MODEL 1
REMARK VINA RESULT:      -7.8      0.000      0.000
REMARK  Name = 
REMARK  4 active torsions:
REMARK  status: ('A' for Active; 'I' for Inactive)
REMARK    1  A    between atoms: C_1  and  N_2
REMARK    2  A    between atoms: C_3  and  C_4
REMARK    3  A    between atoms: C_11  and  O_12
REMARK    4  A    between atoms: O_12  and  C_13
REMARK                            x       y       z     vdW  Elec       q    Type
REMARK                         _______ _______ _______ _____ _____    ______ ____
ROOT
ATOM      1  C   UNL     1       7.916   5.568  13.216  0.00  0.00    +0.000 C 
ATOM      2  N   UNL     1       7.010   4.738  13.976  0.00  0.00    +0.000 N 
ATOM      3  C   UNL     1       6.134   3.759  13.543  0.00  0.00    +0.000 A 
ATOM      4  N   UNL     1       5.435   3.298  14.576  0.00  0.00    +0.000 NA
ATOM      5  C   UNL     1       5.891   3.951  15.687  0.00  0.00    +0.000 A 
ATOM      6  C   UNL     1       5.484   3.835  17.025  0.00  0.00    +0.000 A 
ATOM      7  C   UNL     1       6.115   4.629  17.991  0.00  0.00    +0.000 A 
ATOM      8  C   UNL     1       7.183   5.459  17.637  0.00  0.00    +0.000 A 
ATOM      9  C   UNL     1       7.575   5.612  16.302  0.00  0.00    +0.000 A 
ATOM     10  C   UNL     1       6.899   4.841  15.350  0.00  0.00    +0.000 A 
ENDROOT
BRANCH   3  11
ATOM     11  C   UNL     1       5.986   3.270  12.131  0.00  0.00    +0.000 C 
ATOM     12  F   UNL     1       5.003   3.886  11.427  0.00  0.00    +0.000 F 
ATOM     13  F   UNL     1       7.126   3.456  11.413  0.00  0.00    +0.000 F 
ATOM     14  F   UNL     1       5.704   1.942  12.083  0.00  0.00    +0.000 F 
ENDBRANCH   3  11
BRANCH   7  15
ATOM     15  O   UNL     1       5.643   4.487  19.277  0.00  0.00    +0.000 OA
BRANCH  15  16
ATOM     16  C   UNL     1       4.319   4.765  19.565  0.00  0.00    +0.000 A 
ATOM     17  C   UNL     1       3.734   6.009  19.283  0.00  0.00    +0.000 A 
ATOM     18  C   UNL     1       2.409   6.261  19.638  0.00  0.00    +0.000 A 
ATOM     19  C   UNL     1       1.640   5.252  20.216  0.00  0.00    +0.000 A 
ATOM     20  C   UNL     1       2.190   3.984  20.425  0.00  0.00    +0.000 A 
ATOM     21 CL   UNL     1       1.149   2.773  21.092  0.00  0.00    +0.000 Cl
ATOM     22  C   UNL     1       3.531   3.731  20.100  0.00  0.00    +0.000 A 
ATOM     23 CL   UNL     1       4.230   2.163  20.350  0.00  0.00    +0.000 Cl
ENDBRANCH  15  16
ENDBRANCH   7  15
TORSDOF 3
ENDMDL
MODEL 2
REMARK VINA RESULT:      -7.6      7.185      8.828
REMARK  Name = 
REMARK  4 active torsions:
REMARK  status: ('A' for Active; 'I' for Inactive)
REMARK    1  A    between atoms: C_1  and  N_2
REMARK    2  A    between atoms: C_3  and  C_4
REMARK    3  A    between atoms: C_11  and  O_12
REMARK    4  A    between atoms: O_12  and  C_13
REMARK                            x       y       z     vdW  Elec       q    Type
REMARK                         _______ _______ _______ _____ _____    ______ ____
ROOT
ATOM      1  C   UNL     1      -0.279  11.897  19.528  0.00  0.00    +0.000 C 
ATOM      2  N   UNL     1       0.237  10.670  20.087  0.00  0.00    +0.000 N 
ATOM      3  C   UNL     1       0.142  10.177  21.377  0.00  0.00    +0.000 A 
ATOM      4  N   UNL     1       0.829   9.043  21.472  0.00  0.00    +0.000 NA
ATOM      5  C   UNL     1       1.334   8.779  20.230  0.00  0.00    +0.000 A 
ATOM      6  C   UNL     1       2.132   7.709  19.796  0.00  0.00    +0.000 A 
ATOM      7  C   UNL     1       2.529   7.668  18.454  0.00  0.00    +0.000 A 
ATOM      8  C   UNL     1       2.069   8.632  17.550  0.00  0.00    +0.000 A 
ATOM      9  C   UNL     1       1.303   9.723  17.976  0.00  0.00    +0.000 A 
ATOM     10  C   UNL     1       0.959   9.765  19.331  0.00  0.00    +0.000 A 
ENDROOT
BRANCH   3  11
ATOM     11  C   UNL     1      -0.623  10.806  22.506  0.00  0.00    +0.000 C 
ATOM     12  F   UNL     1      -0.244  12.075  22.799  0.00  0.00    +0.000 F 
ATOM     13  F   UNL     1      -1.955  10.871  22.236  0.00  0.00    +0.000 F 
ATOM     14  F   UNL     1      -0.491  10.100  23.660  0.00  0.00    +0.000 F 
ENDBRANCH   3  11
BRANCH   7  15
ATOM     15  O   UNL     1       3.336   6.609  18.104  0.00  0.00    +0.000 OA
BRANCH  15  16
ATOM     16  C   UNL     1       2.938   5.313  18.382  0.00  0.00    +0.000 A 
ATOM     17  C   UNL     1       1.702   4.801  17.962  0.00  0.00    +0.000 A 
ATOM     18  C   UNL     1       1.321   3.506  18.309  0.00  0.00    +0.000 A 
ATOM     19  C   UNL     1       2.199   2.690  19.023  0.00  0.00    +0.000 A 
ATOM     20  C   UNL     1       3.466   3.164  19.375  0.00  0.00    +0.000 A 
ATOM     21 CL   UNL     1       4.515   2.067  20.207  0.00  0.00    +0.000 Cl
ATOM     22  C   UNL     1       3.845   4.476  19.057  0.00  0.00    +0.000 A 
ATOM     23 CL   UNL     1       5.414   5.081  19.483  0.00  0.00    +0.000 Cl
ENDBRANCH  15  16
ENDBRANCH   7  15
TORSDOF 3
ENDMDL
MODEL 3
REMARK VINA RESULT:      -7.5      6.977      8.966
REMARK  Name = 
REMARK  4 active torsions:
REMARK  status: ('A' for Active; 'I' for Inactive)
REMARK    1  A    between atoms: C_1  and  N_2
REMARK    2  A    between atoms: C_3  and  C_4
REMARK    3  A    between atoms: C_11  and  O_12
REMARK    4  A    between atoms: O_12  and  C_13
REMARK                            x       y       z     vdW  Elec       q    Type
REMARK                         _______ _______ _______ _____ _____    ______ ____
ROOT
ATOM      1  C   UNL     1      -0.173  11.989  18.393  0.00  0.00    +0.000 C 
ATOM      2  N   UNL     1       0.026  10.985  19.411  0.00  0.00    +0.000 N 
ATOM      3  C   UNL     1      -0.474  10.920  20.700  0.00  0.00    +0.000 A 
ATOM      4  N   UNL     1       0.028   9.856  21.319  0.00  0.00    +0.000 NA
ATOM      5  C   UNL     1       0.821   9.207  20.415  0.00  0.00    +0.000 A 
ATOM      6  C   UNL     1       1.581   8.037  20.566  0.00  0.00    +0.000 A 
ATOM      7  C   UNL     1       2.323   7.571  19.474  0.00  0.00    +0.000 A 
ATOM      8  C   UNL     1       2.241   8.216  18.236  0.00  0.00    +0.000 A 
ATOM      9  C   UNL     1       1.517   9.403  18.081  0.00  0.00    +0.000 A 
ATOM     10  C   UNL     1       0.821   9.874  19.199  0.00  0.00    +0.000 A 
ENDROOT
BRANCH   3  11
ATOM     11  C   UNL     1      -1.443  11.886  21.318  0.00  0.00    +0.000 C 
ATOM     12  F   UNL     1      -2.599  12.039  20.624  0.00  0.00    +0.000 F 
ATOM     13  F   UNL     1      -1.811  11.497  22.568  0.00  0.00    +0.000 F 
ATOM     14  F   UNL     1      -0.909  13.131  21.435  0.00  0.00    +0.000 F 
ENDBRANCH   3  11
BRANCH   7  15
ATOM     15  O   UNL     1       3.070   6.437  19.703  0.00  0.00    +0.000 OA
BRANCH  15  16
ATOM     16  C   UNL     1       2.937   5.339  18.871  0.00  0.00    +0.000 A 
ATOM     17  C   UNL     1       3.776   5.128  17.767  0.00  0.00    +0.000 A 
ATOM     18  C   UNL     1       3.572   4.035  16.926  0.00  0.00    +0.000 A 
ATOM     19  C   UNL     1       2.569   3.110  17.218  0.00  0.00    +0.000 A 
ATOM     20  C   UNL     1       1.781   3.269  18.362  0.00  0.00    +0.000 A 
ATOM     21 CL   UNL     1       0.601   2.044  18.682  0.00  0.00    +0.000 Cl
ATOM     22  C   UNL     1       1.959   4.382  19.196  0.00  0.00    +0.000 A 
ATOM     23 CL   UNL     1       0.993   4.594  20.621  0.00  0.00    +0.000 Cl
ENDBRANCH  15  16
ENDBRANCH   7  15
TORSDOF 3
ENDMDL
MODEL 4
REMARK VINA RESULT:      -7.5      6.429      8.609
REMARK  Name = 
REMARK  4 active torsions:
REMARK  status: ('A' for Active; 'I' for Inactive)
REMARK    1  A    between atoms: C_1  and  N_2
REMARK    2  A    between atoms: C_3  and  C_4
REMARK    3  A    between atoms: C_11  and  O_12
REMARK    4  A    between atoms: O_12  and  C_13
REMARK                            x       y       z     vdW  Elec       q    Type
REMARK                         _______ _______ _______ _____ _____    ______ ____
ROOT
ATOM      1  C   UNL     1       0.695  11.131  18.837  0.00  0.00    +0.000 C 
ATOM      2  N   UNL     1       0.854   9.992  19.710  0.00  0.00    +0.000 N 
ATOM      3  C   UNL     1       0.394   9.795  21.000  0.00  0.00    +0.000 A 
ATOM      4  N   UNL     1       0.836   8.627  21.457  0.00  0.00    +0.000 NA
ATOM      5  C   UNL     1       1.549   8.048  20.444  0.00  0.00    +0.000 A 
ATOM      6  C   UNL     1       2.224   6.818  20.414  0.00  0.00    +0.000 A 
ATOM      7  C   UNL     1       2.893   6.448  19.240  0.00  0.00    +0.000 A 
ATOM      8  C   UNL     1       2.818   7.253  18.099  0.00  0.00    +0.000 A 
ATOM      9  C   UNL     1       2.178   8.497  18.127  0.00  0.00    +0.000 A 
ATOM     10  C   UNL     1       1.557   8.865  19.325  0.00  0.00    +0.000 A 
ENDROOT
BRANCH   3  11
ATOM     11  C   UNL     1      -0.480  10.737  21.777  0.00  0.00    +0.000 C 
ATOM     12  F   UNL     1      -0.955  10.226  22.940  0.00  0.00    +0.000 F 
ATOM     13  F   UNL     1       0.185  11.874  22.117  0.00  0.00    +0.000 F 
ATOM     14  F   UNL     1      -1.571  11.119  21.063  0.00  0.00    +0.000 F 
ENDBRANCH   3  11
BRANCH   7  15
ATOM     15  O   UNL     1       3.561   5.245  19.292  0.00  0.00    +0.000 OA
BRANCH  15  16
ATOM     16  C   UNL     1       4.787   5.105  18.665  0.00  0.00    +0.000 A 
ATOM     17  C   UNL     1       5.986   5.522  19.262  0.00  0.00    +0.000 A 
ATOM     18  C   UNL     1       7.193   5.410  18.572  0.00  0.00    +0.000 A 
ATOM     19  C   UNL     1       7.218   4.820  17.308  0.00  0.00    +0.000 A 
ATOM     20  C   UNL     1       6.040   4.328  16.740  0.00  0.00    +0.000 A 
ATOM     21 CL   UNL     1       6.170   3.558  15.195  0.00  0.00    +0.000 Cl
ATOM     22  C   UNL     1       4.818   4.466  17.414  0.00  0.00    +0.000 A 
ATOM     23 CL   UNL     1       3.345   3.858  16.726  0.00  0.00    +0.000 Cl
ENDBRANCH  15  16
ENDBRANCH   7  15
TORSDOF 3
ENDMDL
MODEL 5
REMARK VINA RESULT:      -7.5      6.643      8.586
REMARK  Name = 
REMARK  4 active torsions:
REMARK  status: ('A' for Active; 'I' for Inactive)
REMARK    1  A    between atoms: C_1  and  N_2
REMARK    2  A    between atoms: C_3  and  C_4
REMARK    3  A    between atoms: C_11  and  O_12
REMARK    4  A    between atoms: O_12  and  C_13
REMARK                            x       y       z     vdW  Elec       q    Type
REMARK                         _______ _______ _______ _____ _____    ______ ____
ROOT
ATOM      1  C   UNL     1      -0.484  10.789  21.636  0.00  0.00    +0.000 C 
ATOM      2  N   UNL     1       0.105  10.589  20.333  0.00  0.00    +0.000 N 
ATOM      3  C   UNL     1       0.047  11.387  19.204  0.00  0.00    +0.000 A 
ATOM      4  N   UNL     1       0.672  10.782  18.198  0.00  0.00    +0.000 NA
ATOM      5  C   UNL     1       1.171   9.608  18.689  0.00  0.00    +0.000 A 
ATOM      6  C   UNL     1       1.905   8.605  18.038  0.00  0.00    +0.000 A 
ATOM      7  C   UNL     1       2.302   7.480  18.771  0.00  0.00    +0.000 A 
ATOM      8  C   UNL     1       2.043   7.401  20.143  0.00  0.00    +0.000 A 
ATOM      9  C   UNL     1       1.283   8.377  20.797  0.00  0.00    +0.000 A 
ATOM     10  C   UNL     1       0.857   9.469  20.032  0.00  0.00    +0.000 A 
ENDROOT
BRANCH   3  11
ATOM     11  C   UNL     1      -0.605  12.736  19.112  0.00  0.00    +0.000 C 
ATOM     12  F   UNL     1      -1.839  12.800  19.674  0.00  0.00    +0.000 F 
ATOM     13  F   UNL     1       0.133  13.695  19.733  0.00  0.00    +0.000 F 
ATOM     14  F   UNL     1      -0.761  13.135  17.822  0.00  0.00    +0.000 F 
ENDBRANCH   3  11
BRANCH   7  15
ATOM     15  O   UNL     1       2.990   6.520  18.062  0.00  0.00    +0.000 OA
BRANCH  15  16
ATOM     16  C   UNL     1       2.750   5.178  18.299  0.00  0.00    +0.000 A 
ATOM     17  C   UNL     1       1.592   4.531  17.844  0.00  0.00    +0.000 A 
ATOM     18  C   UNL     1       1.368   3.189  18.151  0.00  0.00    +0.000 A 
ATOM     19  C   UNL     1       2.330   2.468  18.859  0.00  0.00    +0.000 A 
ATOM     20  C   UNL     1       3.524   3.084  19.245  0.00  0.00    +0.000 A 
ATOM     21 CL   UNL     1       4.688   2.101  20.066  0.00  0.00    +0.000 Cl
ATOM     22  C   UNL     1       3.743   4.441  18.967  0.00  0.00    +0.000 A 
ATOM     23 CL   UNL     1       5.220   5.221  19.436  0.00  0.00    +0.000 Cl
ENDBRANCH  15  16
ENDBRANCH   7  15
TORSDOF 3
ENDMDL
MODEL 6
REMARK VINA RESULT:      -7.5      7.171      9.234
REMARK  Name = 
REMARK  4 active torsions:
REMARK  status: ('A' for Active; 'I' for Inactive)
REMARK    1  A    between atoms: C_1  and  N_2
REMARK    2  A    between atoms: C_3  and  C_4
REMARK    3  A    between atoms: C_11  and  O_12
REMARK    4  A    between atoms: O_12  and  C_13
REMARK                            x       y       z     vdW  Elec       q    Type
REMARK                         _______ _______ _______ _____ _____    ______ ____
ROOT
ATOM      1  C   UNL     1      -0.342  12.005  18.623  0.00  0.00    +0.000 C 
ATOM      2  N   UNL     1      -0.087  11.003  19.631  0.00  0.00    +0.000 N 
ATOM      3  C   UNL     1      -0.518  10.940  20.945  0.00  0.00    +0.000 A 
ATOM      4  N   UNL     1       0.017   9.877  21.539  0.00  0.00    +0.000 NA
ATOM      5  C   UNL     1       0.761   9.227  20.594  0.00  0.00    +0.000 A 
ATOM      6  C   UNL     1       1.528   8.057  20.708  0.00  0.00    +0.000 A 
ATOM      7  C   UNL     1       2.211   7.590  19.578  0.00  0.00    +0.000 A 
ATOM      8  C   UNL     1       2.063   8.232  18.345  0.00  0.00    +0.000 A 
ATOM      9  C   UNL     1       1.331   9.419  18.226  0.00  0.00    +0.000 A 
ATOM     10  C   UNL     1       0.695   9.891  19.379  0.00  0.00    +0.000 A 
ENDROOT
BRANCH   3  11
ATOM     11  C   UNL     1      -1.452  11.907  21.612  0.00  0.00    +0.000 C 
ATOM     12  F   UNL     1      -0.922  13.137  21.830  0.00  0.00    +0.000 F 
ATOM     13  F   UNL     1      -2.574  12.114  20.872  0.00  0.00    +0.000 F 
ATOM     14  F   UNL     1      -1.861  11.457  22.827  0.00  0.00    +0.000 F 
ENDBRANCH   3  11
BRANCH   7  15
ATOM     15  O   UNL     1       2.970   6.456  19.769  0.00  0.00    +0.000 OA
BRANCH  15  16
ATOM     16  C   UNL     1       2.871   5.398  18.883  0.00  0.00    +0.000 A 
ATOM     17  C   UNL     1       1.739   4.570  18.826  0.00  0.00    +0.000 A 
ATOM     18  C   UNL     1       1.705   3.484  17.953  0.00  0.00    +0.000 A 
ATOM     19  C   UNL     1       2.772   3.255  17.085  0.00  0.00    +0.000 A 
ATOM     20  C   UNL     1       3.868   4.123  17.078  0.00  0.00    +0.000 A 
ATOM     21 CL   UNL     1       5.121   3.801  15.928  0.00  0.00    +0.000 Cl
ATOM     22  C   UNL     1       3.925   5.199  17.974  0.00  0.00    +0.000 A 
ATOM     23 CL   UNL     1       5.276   6.289  17.978  0.00  0.00    +0.000 Cl
ENDBRANCH  15  16
ENDBRANCH   7  15
TORSDOF 3
ENDMDL
MODEL 7
REMARK VINA RESULT:      -7.4      7.438      9.095
REMARK  Name = 
REMARK  4 active torsions:
REMARK  status: ('A' for Active; 'I' for Inactive)
REMARK    1  A    between atoms: C_1  and  N_2
REMARK    2  A    between atoms: C_3  and  C_4
REMARK    3  A    between atoms: C_11  and  O_12
REMARK    4  A    between atoms: O_12  and  C_13
REMARK                            x       y       z     vdW  Elec       q    Type
REMARK                         _______ _______ _______ _____ _____    ______ ____
ROOT
ATOM      1  C   UNL     1      -0.569  11.808  19.161  0.00  0.00    +0.000 C 
ATOM      2  N   UNL     1      -0.095  10.768  20.043  0.00  0.00    +0.000 N 
ATOM      3  C   UNL     1      -0.290  10.606  21.404  0.00  0.00    +0.000 A 
ATOM      4  N   UNL     1       0.391   9.545  21.828  0.00  0.00    +0.000 NA
ATOM      5  C   UNL     1       0.994   8.995  20.731  0.00  0.00    +0.000 A 
ATOM      6  C   UNL     1       1.826   7.869  20.636  0.00  0.00    +0.000 A 
ATOM      7  C   UNL     1       2.327   7.509  19.379  0.00  0.00    +0.000 A 
ATOM      8  C   UNL     1       1.938   8.209  18.233  0.00  0.00    +0.000 A 
ATOM      9  C   UNL     1       1.137   9.354  18.318  0.00  0.00    +0.000 A 
ATOM     10  C   UNL     1       0.687   9.721  19.591  0.00  0.00    +0.000 A 
ENDROOT
BRANCH   3  11
ATOM     11  C   UNL     1      -1.143  11.475  22.282  0.00  0.00    +0.000 C 
ATOM     12  F   UNL     1      -0.541  12.622  22.686  0.00  0.00    +0.000 F 
ATOM     13  F   UNL     1      -2.285  11.860  21.650  0.00  0.00    +0.000 F 
ATOM     14  F   UNL     1      -1.520  10.830  23.417  0.00  0.00    +0.000 F 
ENDBRANCH   3  11
BRANCH   7  15
ATOM     15  O   UNL     1       3.163   6.414  19.364  0.00  0.00    +0.000 OA
BRANCH  15  16
ATOM     16  C   UNL     1       2.648   5.145  19.563  0.00  0.00    +0.000 A 
ATOM     17  C   UNL     1       1.537   4.907  20.387  0.00  0.00    +0.000 A 
ATOM     18  C   UNL     1       1.084   3.605  20.598  0.00  0.00    +0.000 A 
ATOM     19  C   UNL     1       1.696   2.540  19.938  0.00  0.00    +0.000 A 
ATOM     20  C   UNL     1       2.750   2.777  19.052  0.00  0.00    +0.000 A 
ATOM     21 CL   UNL     1       3.412   1.406  18.229  0.00  0.00    +0.000 Cl
ATOM     22  C   UNL     1       3.233   4.079  18.857  0.00  0.00    +0.000 A 
ATOM     23 CL   UNL     1       4.539   4.393  17.759  0.00  0.00    +0.000 Cl
ENDBRANCH  15  16
ENDBRANCH   7  15
TORSDOF 3
ENDMDL
MODEL 8
REMARK VINA RESULT:      -7.4      1.292      2.251
REMARK  Name = 
REMARK  4 active torsions:
REMARK  status: ('A' for Active; 'I' for Inactive)
REMARK    1  A    between atoms: C_1  and  N_2
REMARK    2  A    between atoms: C_3  and  C_4
REMARK    3  A    between atoms: C_11  and  O_12
REMARK    4  A    between atoms: O_12  and  C_13
REMARK                            x       y       z     vdW  Elec       q    Type
REMARK                         _______ _______ _______ _____ _____    ______ ____
ROOT
ATOM      1  C   UNL     1       5.707   3.450  12.685  0.00  0.00    +0.000 C 
ATOM      2  N   UNL     1       6.278   4.244  13.747  0.00  0.00    +0.000 N 
ATOM      3  C   UNL     1       7.365   5.100  13.725  0.00  0.00    +0.000 A 
ATOM      4  N   UNL     1       7.587   5.569  14.950  0.00  0.00    +0.000 NA
ATOM      5  C   UNL     1       6.615   5.048  15.757  0.00  0.00    +0.000 A 
ATOM      6  C   UNL     1       6.403   5.226  17.133  0.00  0.00    +0.000 A 
ATOM      7  C   UNL     1       5.323   4.570  17.736  0.00  0.00    +0.000 A 
ATOM      8  C   UNL     1       4.428   3.821  16.965  0.00  0.00    +0.000 A 
ATOM      9  C   UNL     1       4.648   3.606  15.600  0.00  0.00    +0.000 A 
ATOM     10  C   UNL     1       5.761   4.235  15.029  0.00  0.00    +0.000 A 
ENDROOT
BRANCH   3  11
ATOM     11  C   UNL     1       8.175   5.464  12.515  0.00  0.00    +0.000 C 
ATOM     12  F   UNL     1       8.160   4.530  11.531  0.00  0.00    +0.000 F 
ATOM     13  F   UNL     1       7.730   6.614  11.940  0.00  0.00    +0.000 F 
ATOM     14  F   UNL     1       9.484   5.661  12.824  0.00  0.00    +0.000 F 
ENDBRANCH   3  11
BRANCH   7  15
ATOM     15  O   UNL     1       5.193   4.763  19.094  0.00  0.00    +0.000 OA
BRANCH  15  16
ATOM     16  C   UNL     1       3.938   4.914  19.657  0.00  0.00    +0.000 A 
ATOM     17  C   UNL     1       3.210   6.109  19.559  0.00  0.00    +0.000 A 
ATOM     18  C   UNL     1       1.971   6.233  20.186  0.00  0.00    +0.000 A 
ATOM     19  C   UNL     1       1.421   5.142  20.859  0.00  0.00    +0.000 A 
ATOM     20  C   UNL     1       2.102   3.922  20.892  0.00  0.00    +0.000 A 
ATOM     21 CL   UNL     1       1.320   2.604  21.697  0.00  0.00    +0.000 Cl
ATOM     22  C   UNL     1       3.363   3.799  20.291  0.00  0.00    +0.000 A 
ATOM     23 CL   UNL     1       4.222   2.292  20.319  0.00  0.00    +0.000 Cl
ENDBRANCH  15  16
ENDBRANCH   7  15
TORSDOF 3
ENDMDL
MODEL 9
REMARK VINA RESULT:      -7.4      5.917      7.618
REMARK  Name = 
REMARK  4 active torsions:
REMARK  status: ('A' for Active; 'I' for Inactive)
REMARK    1  A    between atoms: C_1  and  N_2
REMARK    2  A    between atoms: C_3  and  C_4
REMARK    3  A    between atoms: C_11  and  O_12
REMARK    4  A    between atoms: O_12  and  C_13
REMARK                            x       y       z     vdW  Elec       q    Type
REMARK                         _______ _______ _______ _____ _____    ______ ____
ROOT
ATOM      1  C   UNL     1       3.706   3.408  18.320  0.00  0.00    +0.000 C 
ATOM      2  N   UNL     1       2.999   4.365  19.139  0.00  0.00    +0.000 N 
ATOM      3  C   UNL     1       2.297   4.174  20.315  0.00  0.00    +0.000 A 
ATOM      4  N   UNL     1       1.738   5.321  20.692  0.00  0.00    +0.000 NA
ATOM      5  C   UNL     1       2.117   6.265  19.779  0.00  0.00    +0.000 A 
ATOM      6  C   UNL     1       1.796   7.630  19.717  0.00  0.00    +0.000 A 
ATOM      7  C   UNL     1       2.313   8.394  18.664  0.00  0.00    +0.000 A 
ATOM      8  C   UNL     1       3.197   7.824  17.743  0.00  0.00    +0.000 A 
ATOM      9  C   UNL     1       3.497   6.457  17.772  0.00  0.00    +0.000 A 
ATOM     10  C   UNL     1       2.930   5.705  18.807  0.00  0.00    +0.000 A 
ENDROOT
BRANCH   3  11
ATOM     11  C   UNL     1       2.179   2.882  21.072  0.00  0.00    +0.000 C 
ATOM     12  F   UNL     1       3.366   2.359  21.470  0.00  0.00    +0.000 F 
ATOM     13  F   UNL     1       1.441   3.029  22.204  0.00  0.00    +0.000 F 
ATOM     14  F   UNL     1       1.575   1.916  20.331  0.00  0.00    +0.000 F 
ENDBRANCH   3  11
BRANCH   7  15
ATOM     15  O   UNL     1       1.931   9.718  18.647  0.00  0.00    +0.000 OA
BRANCH  15  16
ATOM     16  C   UNL     1       0.592  10.052  18.555  0.00  0.00    +0.000 A 
ATOM     17  C   UNL     1      -0.236   9.561  17.534  0.00  0.00    +0.000 A 
ATOM     18  C   UNL     1      -1.568   9.966  17.451  0.00  0.00    +0.000 A 
ATOM     19  C   UNL     1      -2.099  10.812  18.424  0.00  0.00    +0.000 A 
ATOM     20  C   UNL     1      -1.304  11.241  19.490  0.00  0.00    +0.000 A 
ATOM     21 CL   UNL     1      -2.059  12.240  20.686  0.00  0.00    +0.000 Cl
ATOM     22  C   UNL     1       0.045  10.864  19.564  0.00  0.00    +0.000 A 
ATOM     23 CL   UNL     1       1.047  11.383  20.882  0.00  0.00    +0.000 Cl
ENDBRANCH  15  16
ENDBRANCH   7  15
TORSDOF 3
ENDMDL
