MODEL 1
REMARK VINA RESULT:      -7.9      0.000      0.000
REMARK  Name = 
REMARK  8 active torsions:
REMARK  status: ('A' for Active; 'I' for Inactive)
REMARK    1  A    between atoms: C_1  and  O_2
REMARK    2  A    between atoms: O_2  and  C_3
REMARK    3  A    between atoms: C_3  and  C_4
REMARK    4  A    between atoms: C_4  and  C_5
REMARK    5  A    between atoms: C_5  and  N_6
REMARK    6  A    between atoms: N_6  and  S_7
REMARK    7  A    between atoms: S_7  and  C_10
REMARK    8  A    between atoms: C_16  and  C_17
REMARK                            x       y       z     vdW  Elec       q    Type
REMARK                         _______ _______ _______ _____ _____    ______ ____
ROOT
ATOM      1  C   UNL     1       5.585   5.252  17.630  0.00  0.00    +0.000 A 
ATOM      2  C   UNL     1       4.670   6.290  17.932  0.00  0.00    +0.000 A 
ATOM      3  C   UNL     1       3.597   6.040  18.787  0.00  0.00    +0.000 A 
ATOM      4  C   UNL     1       3.485   4.752  19.277  0.00  0.00    +0.000 A 
ATOM      5  C   UNL     1       4.364   3.718  18.988  0.00  0.00    +0.000 A 
ATOM      6  C   UNL     1       5.454   3.958  18.172  0.00  0.00    +0.000 A 
ATOM      7  C   UNL     1       3.869   2.462  19.658  0.00  0.00    +0.000 C 
ATOM      8  C   UNL     1       3.530   1.363  18.664  0.00  0.00    +0.000 C 
ATOM      9  C   UNL     1       2.582   2.952  20.376  0.00  0.00    +0.000 C 
ATOM     10  O   UNL     1       1.818   2.267  21.036  0.00  0.00    +0.000 OA
ATOM     11  N   UNL     1       2.468   4.313  20.112  0.00  0.00    +0.000 N 
ATOM     12  C   UNL     1       1.393   5.205  20.489  0.00  0.00    +0.000 C 
ATOM     13  C   UNL     1       1.854   6.669  20.469  0.00  0.00    +0.000 C 
ATOM     14  C   UNL     1       2.527   7.034  19.132  0.00  0.00    +0.000 C 
ENDROOT
BRANCH   1  15
ATOM     15  S   UNL     1       6.935   5.610  16.517  0.00  0.00    +0.000 S 
ATOM     16  O   UNL     1       7.884   4.532  16.635  0.00  0.00    +0.000 OA
ATOM     17  O   UNL     1       7.329   6.990  16.719  0.00  0.00    +0.000 OA
BRANCH  15  18
ATOM     18  N   UNL     1       6.228   5.518  14.978  0.00  0.00    +0.000 NA
ATOM     19  H   UNL     1       5.218   5.520  15.130  0.00  0.00    +0.000 HD
BRANCH  18  20
ATOM     20  C   UNL     1       6.651   4.338  14.192  0.00  0.00    +0.000 C 
BRANCH  20  21
ATOM     21  C   UNL     1       5.584   3.930  13.185  0.00  0.00    +0.000 C 
BRANCH  21  22
ATOM     22  C   UNL     1       6.202   2.997  12.144  0.00  0.00    +0.000 C 
BRANCH  22  24
ATOM     23  C   UNL     1       4.042   3.184  11.227  0.00  0.00    +0.000 C 
ATOM     24  O   UNL     1       5.157   2.329  11.441  0.00  0.00    +0.000 OA
ENDBRANCH  22  24
ENDBRANCH  21  22
ENDBRANCH  20  21
ENDBRANCH  18  20
ENDBRANCH  15  18
ENDBRANCH   1  15
TORSDOF 6
ENDMDL
MODEL 2
REMARK VINA RESULT:      -7.6      2.496      3.978
REMARK  Name = 
REMARK  8 active torsions:
REMARK  status: ('A' for Active; 'I' for Inactive)
REMARK    1  A    between atoms: C_1  and  O_2
REMARK    2  A    between atoms: O_2  and  C_3
REMARK    3  A    between atoms: C_3  and  C_4
REMARK    4  A    between atoms: C_4  and  C_5
REMARK    5  A    between atoms: C_5  and  N_6
REMARK    6  A    between atoms: N_6  and  S_7
REMARK    7  A    between atoms: S_7  and  C_10
REMARK    8  A    between atoms: C_16  and  C_17
REMARK                            x       y       z     vdW  Elec       q    Type
REMARK                         _______ _______ _______ _____ _____    ______ ____
ROOT
ATOM      1  C   UNL     1       4.725   5.156  16.971  0.00  0.00    +0.000 A 
ATOM      2  C   UNL     1       4.088   6.369  17.327  0.00  0.00    +0.000 A 
ATOM      3  C   UNL     1       3.204   6.397  18.405  0.00  0.00    +0.000 A 
ATOM      4  C   UNL     1       2.987   5.196  19.057  0.00  0.00    +0.000 A 
ATOM      5  C   UNL     1       3.593   3.994  18.720  0.00  0.00    +0.000 A 
ATOM      6  C   UNL     1       4.500   3.957  17.678  0.00  0.00    +0.000 A 
ATOM      7  C   UNL     1       3.053   2.913  19.620  0.00  0.00    +0.000 C 
ATOM      8  C   UNL     1       2.322   1.823  18.853  0.00  0.00    +0.000 C 
ATOM      9  C   UNL     1       2.059   3.695  20.521  0.00  0.00    +0.000 C 
ATOM     10  O   UNL     1       1.355   3.222  21.399  0.00  0.00    +0.000 OA
ATOM     11  N   UNL     1       2.121   5.027  20.127  0.00  0.00    +0.000 N 
ATOM     12  C   UNL     1       1.323   6.134  20.607  0.00  0.00    +0.000 C 
ATOM     13  C   UNL     1       2.008   7.477  20.319  0.00  0.00    +0.000 C 
ATOM     14  C   UNL     1       2.420   7.600  18.841  0.00  0.00    +0.000 C 
ENDROOT
BRANCH   1  15
ATOM     15  S   UNL     1       5.836   5.161  15.573  0.00  0.00    +0.000 S 
ATOM     16  O   UNL     1       5.437   6.246  14.713  0.00  0.00    +0.000 OA
ATOM     17  O   UNL     1       5.941   3.802  15.079  0.00  0.00    +0.000 OA
BRANCH  15  18
ATOM     18  N   UNL     1       7.340   5.557  16.251  0.00  0.00    +0.000 NA
ATOM     19  H   UNL     1       8.045   5.208  15.600  0.00  0.00    +0.000 HD
BRANCH  18  20
ATOM     20  C   UNL     1       7.547   5.015  17.612  0.00  0.00    +0.000 C 
BRANCH  20  21
ATOM     21  C   UNL     1       7.699   6.130  18.637  0.00  0.00    +0.000 C 
BRANCH  21  22
ATOM     22  C   UNL     1       7.785   7.474  17.914  0.00  0.00    +0.000 C 
BRANCH  22  24
ATOM     23  C   UNL     1       8.498   9.696  18.221  0.00  0.00    +0.000 C 
ATOM     24  O   UNL     1       8.626   8.350  18.659  0.00  0.00    +0.000 OA
ENDBRANCH  22  24
ENDBRANCH  21  22
ENDBRANCH  20  21
ENDBRANCH  18  20
ENDBRANCH  15  18
ENDBRANCH   1  15
TORSDOF 6
ENDMDL
MODEL 3
REMARK VINA RESULT:      -7.4      0.962      1.150
REMARK  Name = 
REMARK  8 active torsions:
REMARK  status: ('A' for Active; 'I' for Inactive)
REMARK    1  A    between atoms: C_1  and  O_2
REMARK    2  A    between atoms: O_2  and  C_3
REMARK    3  A    between atoms: C_3  and  C_4
REMARK    4  A    between atoms: C_4  and  C_5
REMARK    5  A    between atoms: C_5  and  N_6
REMARK    6  A    between atoms: N_6  and  S_7
REMARK    7  A    between atoms: S_7  and  C_10
REMARK    8  A    between atoms: C_16  and  C_17
REMARK                            x       y       z     vdW  Elec       q    Type
REMARK                         _______ _______ _______ _____ _____    ______ ____
ROOT
ATOM      1  C   UNL     1       5.586   4.922  17.461  0.00  0.00    +0.000 A 
ATOM      2  C   UNL     1       4.848   6.130  17.486  0.00  0.00    +0.000 A 
ATOM      3  C   UNL     1       3.770   6.265  18.359  0.00  0.00    +0.000 A 
ATOM      4  C   UNL     1       3.472   5.169  19.148  0.00  0.00    +0.000 A 
ATOM      5  C   UNL     1       4.175   3.972  19.134  0.00  0.00    +0.000 A 
ATOM      6  C   UNL     1       5.270   3.835  18.301  0.00  0.00    +0.000 A 
ATOM      7  C   UNL     1       3.508   3.010  20.083  0.00  0.00    +0.000 C 
ATOM      8  C   UNL     1       2.981   1.768  19.383  0.00  0.00    +0.000 C 
ATOM      9  C   UNL     1       2.329   3.854  20.639  0.00  0.00    +0.000 C 
ATOM     10  O   UNL     1       1.483   3.477  21.434  0.00  0.00    +0.000 OA
ATOM     11  N   UNL     1       2.419   5.110  20.049  0.00  0.00    +0.000 N 
ATOM     12  C   UNL     1       1.503   6.222  20.180  0.00  0.00    +0.000 C 
ATOM     13  C   UNL     1       2.183   7.547  19.809  0.00  0.00    +0.000 C 
ATOM     14  C   UNL     1       2.873   7.467  18.434  0.00  0.00    +0.000 C 
ENDROOT
BRANCH   1  15
ATOM     15  S   UNL     1       6.949   4.784  16.316  0.00  0.00    +0.000 S 
ATOM     16  O   UNL     1       8.052   4.196  17.032  0.00  0.00    +0.000 OA
ATOM     17  O   UNL     1       7.084   6.051  15.625  0.00  0.00    +0.000 OA
BRANCH  15  18
ATOM     18  N   UNL     1       6.406   3.653  15.173  0.00  0.00    +0.000 NA
ATOM     19  H   UNL     1       7.201   3.042  14.980  0.00  0.00    +0.000 HD
BRANCH  18  20
ATOM     20  C   UNL     1       5.879   4.260  13.931  0.00  0.00    +0.000 C 
BRANCH  20  21
ATOM     21  C   UNL     1       6.419   3.554  12.696  0.00  0.00    +0.000 C 
BRANCH  21  22
ATOM     22  C   UNL     1       5.255   2.974  11.894  0.00  0.00    +0.000 C 
BRANCH  22  24
ATOM     23  C   UNL     1       7.001   1.641  11.050  0.00  0.00    +0.000 C 
ATOM     24  O   UNL     1       5.625   1.689  11.400  0.00  0.00    +0.000 OA
ENDBRANCH  22  24
ENDBRANCH  21  22
ENDBRANCH  20  21
ENDBRANCH  18  20
ENDBRANCH  15  18
ENDBRANCH   1  15
TORSDOF 6
ENDMDL
MODEL 4
REMARK VINA RESULT:      -7.3      2.636      4.649
REMARK  Name = 
REMARK  8 active torsions:
REMARK  status: ('A' for Active; 'I' for Inactive)
REMARK    1  A    between atoms: C_1  and  O_2
REMARK    2  A    between atoms: O_2  and  C_3
REMARK    3  A    between atoms: C_3  and  C_4
REMARK    4  A    between atoms: C_4  and  C_5
REMARK    5  A    between atoms: C_5  and  N_6
REMARK    6  A    between atoms: N_6  and  S_7
REMARK    7  A    between atoms: S_7  and  C_10
REMARK    8  A    between atoms: C_16  and  C_17
REMARK                            x       y       z     vdW  Elec       q    Type
REMARK                         _______ _______ _______ _____ _____    ______ ____
ROOT
ATOM      1  C   UNL     1       5.376   5.431  17.628  0.00  0.00    +0.000 A 
ATOM      2  C   UNL     1       4.430   6.415  18.000  0.00  0.00    +0.000 A 
ATOM      3  C   UNL     1       3.406   6.091  18.890  0.00  0.00    +0.000 A 
ATOM      4  C   UNL     1       3.372   4.784  19.342  0.00  0.00    +0.000 A 
ATOM      5  C   UNL     1       4.282   3.800  18.983  0.00  0.00    +0.000 A 
ATOM      6  C   UNL     1       5.325   4.115  18.132  0.00  0.00    +0.000 A 
ATOM      7  C   UNL     1       3.872   2.503  19.631  0.00  0.00    +0.000 C 
ATOM      8  C   UNL     1       3.540   1.421  18.616  0.00  0.00    +0.000 C 
ATOM      9  C   UNL     1       2.597   2.912  20.417  0.00  0.00    +0.000 C 
ATOM     10  O   UNL     1       1.892   2.173  21.085  0.00  0.00    +0.000 OA
ATOM     11  N   UNL     1       2.411   4.274  20.203  0.00  0.00    +0.000 N 
ATOM     12  C   UNL     1       1.315   5.104  20.653  0.00  0.00    +0.000 C 
ATOM     13  C   UNL     1       1.710   6.587  20.661  0.00  0.00    +0.000 C 
ATOM     14  C   UNL     1       2.308   7.024  19.312  0.00  0.00    +0.000 C 
ENDROOT
BRANCH   1  15
ATOM     15  S   UNL     1       6.661   5.884  16.473  0.00  0.00    +0.000 S 
ATOM     16  O   UNL     1       6.114   5.742  15.148  0.00  0.00    +0.000 OA
ATOM     17  O   UNL     1       7.878   5.203  16.867  0.00  0.00    +0.000 OA
BRANCH  15  18
ATOM     18  N   UNL     1       6.903   7.538  16.764  0.00  0.00    +0.000 NA
ATOM     19  H   UNL     1       7.226   7.936  15.880  0.00  0.00    +0.000 HD
BRANCH  18  20
ATOM     20  C   UNL     1       7.852   7.822  17.862  0.00  0.00    +0.000 C 
BRANCH  20  21
ATOM     21  C   UNL     1       8.235   9.295  17.898  0.00  0.00    +0.000 C 
BRANCH  21  22
ATOM     22  C   UNL     1       9.115   9.560  19.119  0.00  0.00    +0.000 C 
BRANCH  22  24
ATOM     23  C   UNL     1       8.991  11.624  17.995  0.00  0.00    +0.000 C 
ATOM     24  O   UNL     1       9.558  10.914  19.088  0.00  0.00    +0.000 OA
ENDBRANCH  22  24
ENDBRANCH  21  22
ENDBRANCH  20  21
ENDBRANCH  18  20
ENDBRANCH  15  18
ENDBRANCH   1  15
TORSDOF 6
ENDMDL
MODEL 5
REMARK VINA RESULT:      -7.2      1.152      1.441
REMARK  Name = 
REMARK  8 active torsions:
REMARK  status: ('A' for Active; 'I' for Inactive)
REMARK    1  A    between atoms: C_1  and  O_2
REMARK    2  A    between atoms: O_2  and  C_3
REMARK    3  A    between atoms: C_3  and  C_4
REMARK    4  A    between atoms: C_4  and  C_5
REMARK    5  A    between atoms: C_5  and  N_6
REMARK    6  A    between atoms: N_6  and  S_7
REMARK    7  A    between atoms: S_7  and  C_10
REMARK    8  A    between atoms: C_16  and  C_17
REMARK                            x       y       z     vdW  Elec       q    Type
REMARK                         _______ _______ _______ _____ _____    ______ ____
ROOT
ATOM      1  C   UNL     1       5.507   5.308  17.708  0.00  0.00    +0.000 A 
ATOM      2  C   UNL     1       4.586   6.337  18.019  0.00  0.00    +0.000 A 
ATOM      3  C   UNL     1       3.523   6.077  18.883  0.00  0.00    +0.000 A 
ATOM      4  C   UNL     1       3.427   4.787  19.374  0.00  0.00    +0.000 A 
ATOM      5  C   UNL     1       4.313   3.761  19.076  0.00  0.00    +0.000 A 
ATOM      6  C   UNL     1       5.393   4.012  18.250  0.00  0.00    +0.000 A 
ATOM      7  C   UNL     1       3.835   2.501  19.750  0.00  0.00    +0.000 C 
ATOM      8  C   UNL     1       3.496   1.399  18.758  0.00  0.00    +0.000 C 
ATOM      9  C   UNL     1       2.551   2.979  20.480  0.00  0.00    +0.000 C 
ATOM     10  O   UNL     1       1.799   2.287  21.146  0.00  0.00    +0.000 OA
ATOM     11  N   UNL     1       2.422   4.339  20.218  0.00  0.00    +0.000 N 
ATOM     12  C   UNL     1       1.343   5.221  20.606  0.00  0.00    +0.000 C 
ATOM     13  C   UNL     1       1.791   6.689  20.582  0.00  0.00    +0.000 C 
ATOM     14  C   UNL     1       2.447   7.061  19.240  0.00  0.00    +0.000 C 
ENDROOT
BRANCH   1  15
ATOM     15  S   UNL     1       6.844   5.678  16.583  0.00  0.00    +0.000 S 
ATOM     16  O   UNL     1       7.882   4.708  16.819  0.00  0.00    +0.000 OA
ATOM     17  O   UNL     1       7.107   7.102  16.652  0.00  0.00    +0.000 OA
BRANCH  15  18
ATOM     18  N   UNL     1       6.181   5.372  15.051  0.00  0.00    +0.000 NA
ATOM     19  H   UNL     1       5.190   5.608  15.120  0.00  0.00    +0.000 HD
BRANCH  18  20
ATOM     20  C   UNL     1       6.374   3.984  14.580  0.00  0.00    +0.000 C 
BRANCH  20  21
ATOM     21  C   UNL     1       5.948   3.827  13.126  0.00  0.00    +0.000 C 
BRANCH  21  22
ATOM     22  C   UNL     1       7.115   4.202  12.214  0.00  0.00    +0.000 C 
BRANCH  22  24
ATOM     23  C   UNL     1       8.188   6.251  11.777  0.00  0.00    +0.000 C 
ATOM     24  O   UNL     1       7.805   5.316  12.776  0.00  0.00    +0.000 OA
ENDBRANCH  22  24
ENDBRANCH  21  22
ENDBRANCH  20  21
ENDBRANCH  18  20
ENDBRANCH  15  18
ENDBRANCH   1  15
TORSDOF 6
ENDMDL
MODEL 6
REMARK VINA RESULT:      -7.1      1.197      1.333
REMARK  Name = 
REMARK  8 active torsions:
REMARK  status: ('A' for Active; 'I' for Inactive)
REMARK    1  A    between atoms: C_1  and  O_2
REMARK    2  A    between atoms: O_2  and  C_3
REMARK    3  A    between atoms: C_3  and  C_4
REMARK    4  A    between atoms: C_4  and  C_5
REMARK    5  A    between atoms: C_5  and  N_6
REMARK    6  A    between atoms: N_6  and  S_7
REMARK    7  A    between atoms: S_7  and  C_10
REMARK    8  A    between atoms: C_16  and  C_17
REMARK                            x       y       z     vdW  Elec       q    Type
REMARK                         _______ _______ _______ _____ _____    ______ ____
ROOT
ATOM      1  C   UNL     1       4.677   5.641  17.014  0.00  0.00    +0.000 A 
ATOM      2  C   UNL     1       3.891   6.744  17.427  0.00  0.00    +0.000 A 
ATOM      3  C   UNL     1       3.093   6.638  18.565  0.00  0.00    +0.000 A 
ATOM      4  C   UNL     1       3.106   5.418  19.217  0.00  0.00    +0.000 A 
ATOM      5  C   UNL     1       3.860   4.322  18.826  0.00  0.00    +0.000 A 
ATOM      6  C   UNL     1       4.686   4.422  17.722  0.00  0.00    +0.000 A 
ATOM      7  C   UNL     1       3.555   3.172  19.750  0.00  0.00    +0.000 C 
ATOM      8  C   UNL     1       2.944   1.983  19.025  0.00  0.00    +0.000 C 
ATOM      9  C   UNL     1       2.521   3.794  20.727  0.00  0.00    +0.000 C 
ATOM     10  O   UNL     1       1.960   3.221  21.647  0.00  0.00    +0.000 OA
ATOM     11  N   UNL     1       2.353   5.120  20.344  0.00  0.00    +0.000 N 
ATOM     12  C   UNL     1       1.433   6.094  20.889  0.00  0.00    +0.000 C 
ATOM     13  C   UNL     1       1.886   7.525  20.569  0.00  0.00    +0.000 C 
ATOM     14  C   UNL     1       2.169   7.709  19.067  0.00  0.00    +0.000 C 
ENDROOT
BRANCH   1  15
ATOM     15  S   UNL     1       5.673   5.813  15.542  0.00  0.00    +0.000 S 
ATOM     16  O   UNL     1       7.051   5.674  15.939  0.00  0.00    +0.000 OA
ATOM     17  O   UNL     1       5.207   6.979  14.819  0.00  0.00    +0.000 OA
BRANCH  15  18
ATOM     18  N   UNL     1       5.259   4.456  14.610  0.00  0.00    +0.000 NA
ATOM     19  H   UNL     1       4.690   3.861  15.215  0.00  0.00    +0.000 HD
BRANCH  18  20
ATOM     20  C   UNL     1       6.422   3.720  14.071  0.00  0.00    +0.000 C 
BRANCH  20  21
ATOM     21  C   UNL     1       6.495   3.831  12.554  0.00  0.00    +0.000 C 
BRANCH  21  22
ATOM     22  C   UNL     1       5.272   3.153  11.938  0.00  0.00    +0.000 C 
BRANCH  22  24
ATOM     23  C   UNL     1       6.922   1.737  11.037  0.00  0.00    +0.000 C 
ATOM     24  O   UNL     1       5.612   1.815  11.583  0.00  0.00    +0.000 OA
ENDBRANCH  22  24
ENDBRANCH  21  22
ENDBRANCH  20  21
ENDBRANCH  18  20
ENDBRANCH  15  18
ENDBRANCH   1  15
TORSDOF 6
ENDMDL
MODEL 7
REMARK VINA RESULT:      -6.7      4.818      6.936
REMARK  Name = 
REMARK  8 active torsions:
REMARK  status: ('A' for Active; 'I' for Inactive)
REMARK    1  A    between atoms: C_1  and  O_2
REMARK    2  A    between atoms: O_2  and  C_3
REMARK    3  A    between atoms: C_3  and  C_4
REMARK    4  A    between atoms: C_4  and  C_5
REMARK    5  A    between atoms: C_5  and  N_6
REMARK    6  A    between atoms: N_6  and  S_7
REMARK    7  A    between atoms: S_7  and  C_10
REMARK    8  A    between atoms: C_16  and  C_17
REMARK                            x       y       z     vdW  Elec       q    Type
REMARK                         _______ _______ _______ _____ _____    ______ ____
ROOT
ATOM      1  C   UNL     1       2.240   8.117  18.323  0.00  0.00    +0.000 A 
ATOM      2  C   UNL     1       3.357   8.028  17.458  0.00  0.00    +0.000 A 
ATOM      3  C   UNL     1       4.004   6.805  17.286  0.00  0.00    +0.000 A 
ATOM      4  C   UNL     1       3.509   5.737  18.011  0.00  0.00    +0.000 A 
ATOM      5  C   UNL     1       2.423   5.802  18.872  0.00  0.00    +0.000 A 
ATOM      6  C   UNL     1       1.746   6.998  19.025  0.00  0.00    +0.000 A 
ATOM      7  C   UNL     1       2.236   4.453  19.516  0.00  0.00    +0.000 C 
ATOM      8  C   UNL     1       2.398   4.499  21.027  0.00  0.00    +0.000 C 
ATOM      9  C   UNL     1       3.378   3.618  18.879  0.00  0.00    +0.000 C 
ATOM     10  O   UNL     1       3.642   2.451  19.122  0.00  0.00    +0.000 OA
ATOM     11  N   UNL     1       4.043   4.456  17.991  0.00  0.00    +0.000 N 
ATOM     12  C   UNL     1       5.231   4.170  17.216  0.00  0.00    +0.000 C 
ATOM     13  C   UNL     1       5.355   5.122  16.019  0.00  0.00    +0.000 C 
ATOM     14  C   UNL     1       5.233   6.595  16.450  0.00  0.00    +0.000 C 
ENDROOT
BRANCH   1  15
ATOM     15  S   UNL     1       1.451   9.706  18.529  0.00  0.00    +0.000 S 
ATOM     16  O   UNL     1       2.348  10.700  17.998  0.00  0.00    +0.000 OA
ATOM     17  O   UNL     1       0.949   9.785  19.886  0.00  0.00    +0.000 OA
BRANCH  15  18
ATOM     18  N   UNL     1       0.099   9.623  17.506  0.00  0.00    +0.000 NA
ATOM     19  H   UNL     1       0.401  10.003  16.608  0.00  0.00    +0.000 HD
BRANCH  18  20
ATOM     20  C   UNL     1      -1.089  10.336  18.022  0.00  0.00    +0.000 C 
BRANCH  20  21
ATOM     21  C   UNL     1      -2.351   9.926  17.276  0.00  0.00    +0.000 C 
BRANCH  21  22
ATOM     22  C   UNL     1      -3.201  11.166  16.999  0.00  0.00    +0.000 C 
BRANCH  22  24
ATOM     23  C   UNL     1      -3.016  10.090  14.914  0.00  0.00    +0.000 C 
ATOM     24  O   UNL     1      -3.442  11.260  15.597  0.00  0.00    +0.000 OA
ENDBRANCH  22  24
ENDBRANCH  21  22
ENDBRANCH  20  21
ENDBRANCH  18  20
ENDBRANCH  15  18
ENDBRANCH   1  15
TORSDOF 6
ENDMDL
MODEL 8
REMARK VINA RESULT:      -6.7      4.253      7.322
REMARK  Name = 
REMARK  8 active torsions:
REMARK  status: ('A' for Active; 'I' for Inactive)
REMARK    1  A    between atoms: C_1  and  O_2
REMARK    2  A    between atoms: O_2  and  C_3
REMARK    3  A    between atoms: C_3  and  C_4
REMARK    4  A    between atoms: C_4  and  C_5
REMARK    5  A    between atoms: C_5  and  N_6
REMARK    6  A    between atoms: N_6  and  S_7
REMARK    7  A    between atoms: S_7  and  C_10
REMARK    8  A    between atoms: C_16  and  C_17
REMARK                            x       y       z     vdW  Elec       q    Type
REMARK                         _______ _______ _______ _____ _____    ______ ____
ROOT
ATOM      1  C   UNL     1       1.897   7.691  19.818  0.00  0.00    +0.000 A 
ATOM      2  C   UNL     1       1.399   7.843  21.135  0.00  0.00    +0.000 A 
ATOM      3  C   UNL     1       0.784   9.037  21.509  0.00  0.00    +0.000 A 
ATOM      4  C   UNL     1       0.724  10.029  20.546  0.00  0.00    +0.000 A 
ATOM      5  C   UNL     1       1.214   9.906  19.254  0.00  0.00    +0.000 A 
ATOM      6  C   UNL     1       1.792   8.715  18.855  0.00  0.00    +0.000 A 
ATOM      7  C   UNL     1       1.015  11.215  18.536  0.00  0.00    +0.000 C 
ATOM      8  C   UNL     1       2.327  11.849  18.101  0.00  0.00    +0.000 C 
ATOM      9  C   UNL     1       0.330  12.090  19.620  0.00  0.00    +0.000 C 
ATOM     10  O   UNL     1      -0.002  13.258  19.502  0.00  0.00    +0.000 OA
ATOM     11  N   UNL     1       0.179  11.289  20.747  0.00  0.00    +0.000 N 
ATOM     12  C   UNL     1      -0.329  11.669  22.047  0.00  0.00    +0.000 C 
ATOM     13  C   UNL     1      -0.805  10.442  22.837  0.00  0.00    +0.000 C 
ATOM     14  C   UNL     1       0.274   9.345  22.887  0.00  0.00    +0.000 C 
ENDROOT
BRANCH   1  15
ATOM     15  S   UNL     1       2.692   6.151  19.385  0.00  0.00    +0.000 S 
ATOM     16  O   UNL     1       4.111   6.397  19.353  0.00  0.00    +0.000 OA
ATOM     17  O   UNL     1       1.995   5.592  18.245  0.00  0.00    +0.000 OA
BRANCH  15  18
ATOM     18  N   UNL     1       2.367   5.140  20.709  0.00  0.00    +0.000 NA
ATOM     19  H   UNL     1       3.180   4.530  20.805  0.00  0.00    +0.000 HD
BRANCH  18  20
ATOM     20  C   UNL     1       1.118   4.358  20.575  0.00  0.00    +0.000 C 
BRANCH  20  21
ATOM     21  C   UNL     1       1.346   2.889  20.901  0.00  0.00    +0.000 C 
BRANCH  21  22
ATOM     22  C   UNL     1       1.745   2.144  19.627  0.00  0.00    +0.000 C 
BRANCH  22  24
ATOM     23  C   UNL     1       3.475   1.902  18.050  0.00  0.00    +0.000 C 
ATOM     24  O   UNL     1       3.068   2.525  19.261  0.00  0.00    +0.000 OA
ENDBRANCH  22  24
ENDBRANCH  21  22
ENDBRANCH  20  21
ENDBRANCH  18  20
ENDBRANCH  15  18
ENDBRANCH   1  15
TORSDOF 6
ENDMDL
MODEL 9
REMARK VINA RESULT:      -6.7      4.426      7.151
REMARK  Name = 
REMARK  8 active torsions:
REMARK  status: ('A' for Active; 'I' for Inactive)
REMARK    1  A    between atoms: C_1  and  O_2
REMARK    2  A    between atoms: O_2  and  C_3
REMARK    3  A    between atoms: C_3  and  C_4
REMARK    4  A    between atoms: C_4  and  C_5
REMARK    5  A    between atoms: C_5  and  N_6
REMARK    6  A    between atoms: N_6  and  S_7
REMARK    7  A    between atoms: S_7  and  C_10
REMARK    8  A    between atoms: C_16  and  C_17
REMARK                            x       y       z     vdW  Elec       q    Type
REMARK                         _______ _______ _______ _____ _____    ______ ____
ROOT
ATOM      1  C   UNL     1       1.606   7.130  20.365  0.00  0.00    +0.000 A 
ATOM      2  C   UNL     1       2.571   7.404  19.366  0.00  0.00    +0.000 A 
ATOM      3  C   UNL     1       3.203   6.351  18.706  0.00  0.00    +0.000 A 
ATOM      4  C   UNL     1       2.851   5.073  19.103  0.00  0.00    +0.000 A 
ATOM      5  C   UNL     1       1.916   4.781  20.086  0.00  0.00    +0.000 A 
ATOM      6  C   UNL     1       1.252   5.813  20.723  0.00  0.00    +0.000 A 
ATOM      7  C   UNL     1       1.860   3.287  20.269  0.00  0.00    +0.000 C 
ATOM      8  C   UNL     1       2.263   2.853  21.669  0.00  0.00    +0.000 C 
ATOM      9  C   UNL     1       2.899   2.784  19.231  0.00  0.00    +0.000 C 
ATOM     10  O   UNL     1       3.220   1.623  19.034  0.00  0.00    +0.000 OA
ATOM     11  N   UNL     1       3.397   3.909  18.582  0.00  0.00    +0.000 N 
ATOM     12  C   UNL     1       4.449   3.972  17.591  0.00  0.00    +0.000 C 
ATOM     13  C   UNL     1       4.361   5.266  16.771  0.00  0.00    +0.000 C 
ATOM     14  C   UNL     1       4.284   6.509  17.677  0.00  0.00    +0.000 C 
ENDROOT
BRANCH   1  15
ATOM     15  S   UNL     1       0.833   8.508  21.197  0.00  0.00    +0.000 S 
ATOM     16  O   UNL     1       1.738   8.949  22.227  0.00  0.00    +0.000 OA
ATOM     17  O   UNL     1      -0.536   8.138  21.500  0.00  0.00    +0.000 OA
BRANCH  15  18
ATOM     18  N   UNL     1       0.766   9.715  20.007  0.00  0.00    +0.000 NA
ATOM     19  H   UNL     1       1.534  10.357  20.212  0.00  0.00    +0.000 HD
BRANCH  18  20
ATOM     20  C   UNL     1      -0.529  10.427  19.944  0.00  0.00    +0.000 C 
BRANCH  20  21
ATOM     21  C   UNL     1      -0.890  10.797  18.513  0.00  0.00    +0.000 C 
BRANCH  21  22
ATOM     22  C   UNL     1      -2.299  11.389  18.484  0.00  0.00    +0.000 C 
BRANCH  22  24
ATOM     23  C   UNL     1      -2.346  10.038  16.556  0.00  0.00    +0.000 C 
ATOM     24  O   UNL     1      -2.851  11.210  17.182  0.00  0.00    +0.000 OA
ENDBRANCH  22  24
ENDBRANCH  21  22
ENDBRANCH  20  21
ENDBRANCH  18  20
ENDBRANCH  15  18
ENDBRANCH   1  15
TORSDOF 6
ENDMDL
