MODEL 1
REMARK VINA RESULT:      -7.7      0.000      0.000
REMARK  Name = 
REMARK  5 active torsions:
REMARK  status: ('A' for Active; 'I' for Inactive)
REMARK    1  A    between atoms: C_1  and  O_2
REMARK    2  A    between atoms: O_2  and  C_3
REMARK    3  A    between atoms: C_8  and  O_9
REMARK    4  A    between atoms: O_9  and  C_10
REMARK    5  A    between atoms: N_13  and  C_14
REMARK                            x       y       z     vdW  Elec       q    Type
REMARK                         _______ _______ _______ _____ _____    ______ ____
ROOT
ATOM      1  C   UNL     1       1.251   9.059  19.050  0.00  0.00    +0.000 C 
ATOM      2  C   UNL     1       1.448   8.109  20.246  0.00  0.00    +0.000 C 
ATOM      3  C   UNL     1       2.457   6.958  20.111  0.00  0.00    +0.000 C 
ATOM      4  N   UNL     1       2.608   6.555  18.718  0.00  0.00    +0.000 N 
ATOM      5  C   UNL     1       3.112   7.612  17.857  0.00  0.00    +0.000 C 
ATOM      6  C   UNL     1       2.100   8.746  17.797  0.00  0.00    +0.000 C 
ENDROOT
BRANCH   4   7
ATOM      7  C   UNL     1       2.998   5.241  18.390  0.00  0.00    +0.000 A 
ATOM      8  N   UNL     1       4.193   5.063  17.723  0.00  0.00    +0.000 NA
ATOM      9  C   UNL     1       4.563   3.853  17.265  0.00  0.00    +0.000 A 
ATOM     10  N   UNL     1       5.764   3.784  16.571  0.00  0.00    +0.000 N 
ATOM     11  N   UNL     1       3.872   2.718  17.349  0.00  0.00    +0.000 NA
ATOM     12  C   UNL     1       2.739   2.884  18.036  0.00  0.00    +0.000 A 
ATOM     13  N   UNL     1       1.823   1.919  18.311  0.00  0.00    +0.000 N 
ATOM     14  C   UNL     1       0.833   2.490  19.059  0.00  0.00    +0.000 A 
ATOM     15  N   UNL     1       1.042   3.774  19.241  0.00  0.00    +0.000 NA
ATOM     16  C   UNL     1       2.241   4.058  18.591  0.00  0.00    +0.000 A 
ATOM     17  H   UNL     1       5.988   4.705  16.214  0.00  0.00    +0.000 HD
ATOM     18  H   UNL     1       5.715   3.032  15.902  0.00  0.00    +0.000 HD
ATOM     19  H   UNL     1       1.888   0.953  18.019  0.00  0.00    +0.000 HD
ENDBRANCH   4   7
BRANCH   1  20
ATOM     20  O   UNL     1       1.331  10.466  19.486  0.00  0.00    +0.000 OA
BRANCH  20  26
ATOM     21  C   UNL     1      -0.294  11.320  21.123  0.00  0.00    +0.000 A 
ATOM     22  C   UNL     1      -1.540  11.960  21.348  0.00  0.00    +0.000 A 
ATOM     23  C   UNL     1      -2.357  12.389  20.313  0.00  0.00    +0.000 A 
ATOM     24  C   UNL     1      -1.937  12.198  19.016  0.00  0.00    +0.000 A 
ATOM     25  C   UNL     1      -0.711  11.574  18.772  0.00  0.00    +0.000 A 
ATOM     26  C   UNL     1       0.136  11.099  19.791  0.00  0.00    +0.000 A 
BRANCH  21  28
ATOM     27  C   UNL     1      -0.369   9.880  23.098  0.00  0.00    +0.000 C 
ATOM     28  O   UNL     1       0.204  10.913  22.326  0.00  0.00    +0.000 OA
ENDBRANCH  21  28
ENDBRANCH  20  26
ENDBRANCH   1  20
TORSDOF 4
ENDMDL
MODEL 2
REMARK VINA RESULT:      -7.5      3.839      8.331
REMARK  Name = 
REMARK  5 active torsions:
REMARK  status: ('A' for Active; 'I' for Inactive)
REMARK    1  A    between atoms: C_1  and  O_2
REMARK    2  A    between atoms: O_2  and  C_3
REMARK    3  A    between atoms: C_8  and  O_9
REMARK    4  A    between atoms: O_9  and  C_10
REMARK    5  A    between atoms: N_13  and  C_14
REMARK                            x       y       z     vdW  Elec       q    Type
REMARK                         _______ _______ _______ _____ _____    ______ ____
ROOT
ATOM      1  C   UNL     1       2.062   6.807  19.388  0.00  0.00    +0.000 C 
ATOM      2  C   UNL     1       2.309   7.664  18.133  0.00  0.00    +0.000 C 
ATOM      3  C   UNL     1       2.041   9.175  18.211  0.00  0.00    +0.000 C 
ATOM      4  N   UNL     1       1.027   9.476  19.213  0.00  0.00    +0.000 N 
ATOM      5  C   UNL     1       1.405   9.083  20.560  0.00  0.00    +0.000 C 
ATOM      6  C   UNL     1       1.544   7.569  20.629  0.00  0.00    +0.000 C 
ENDROOT
BRANCH   4   7
ATOM      7  C   UNL     1       0.226  10.630  19.100  0.00  0.00    +0.000 A 
ATOM      8  N   UNL     1       0.484  11.688  19.947  0.00  0.00    +0.000 NA
ATOM      9  C   UNL     1      -0.322  12.765  19.983  0.00  0.00    +0.000 A 
ATOM     10  N   UNL     1      -0.001  13.760  20.897  0.00  0.00    +0.000 N 
ATOM     11  N   UNL     1      -1.434  12.958  19.279  0.00  0.00    +0.000 NA
ATOM     12  C   UNL     1      -1.655  11.955  18.426  0.00  0.00    +0.000 A 
ATOM     13  N   UNL     1      -2.695  11.858  17.557  0.00  0.00    +0.000 N 
ATOM     14  C   UNL     1      -2.535  10.701  16.848  0.00  0.00    +0.000 A 
ATOM     15  N   UNL     1      -1.476  10.032  17.243  0.00  0.00    +0.000 NA
ATOM     16  C   UNL     1      -0.902  10.797  18.256  0.00  0.00    +0.000 A 
ATOM     17  H   UNL     1       0.571  13.357  21.631  0.00  0.00    +0.000 HD
ATOM     18  H   UNL     1      -0.845  14.231  21.181  0.00  0.00    +0.000 HD
ATOM     19  H   UNL     1      -3.436  12.538  17.457  0.00  0.00    +0.000 HD
ENDBRANCH   4   7
BRANCH   1  20
ATOM     20  O   UNL     1       3.226   5.943  19.665  0.00  0.00    +0.000 OA
BRANCH  20  26
ATOM     21  C   UNL     1       4.232   3.743  19.216  0.00  0.00    +0.000 A 
ATOM     22  C   UNL     1       4.030   2.392  18.836  0.00  0.00    +0.000 A 
ATOM     23  C   UNL     1       2.773   1.871  18.566  0.00  0.00    +0.000 A 
ATOM     24  C   UNL     1       1.677   2.696  18.683  0.00  0.00    +0.000 A 
ATOM     25  C   UNL     1       1.853   4.029  19.060  0.00  0.00    +0.000 A 
ATOM     26  C   UNL     1       3.112   4.605  19.317  0.00  0.00    +0.000 A 
BRANCH  21  28
ATOM     27  C   UNL     1       6.295   4.697  18.313  0.00  0.00    +0.000 C 
ATOM     28  O   UNL     1       5.575   3.974  19.287  0.00  0.00    +0.000 OA
ENDBRANCH  21  28
ENDBRANCH  20  26
ENDBRANCH   1  20
TORSDOF 4
ENDMDL
MODEL 3
REMARK VINA RESULT:      -7.5      3.606      8.305
REMARK  Name = 
REMARK  5 active torsions:
REMARK  status: ('A' for Active; 'I' for Inactive)
REMARK    1  A    between atoms: C_1  and  O_2
REMARK    2  A    between atoms: O_2  and  C_3
REMARK    3  A    between atoms: C_8  and  O_9
REMARK    4  A    between atoms: O_9  and  C_10
REMARK    5  A    between atoms: N_13  and  C_14
REMARK                            x       y       z     vdW  Elec       q    Type
REMARK                         _______ _______ _______ _____ _____    ______ ____
ROOT
ATOM      1  C   UNL     1       3.788   5.567  19.065  0.00  0.00    +0.000 C 
ATOM      2  C   UNL     1       2.835   5.275  20.238  0.00  0.00    +0.000 C 
ATOM      3  C   UNL     1       1.649   6.223  20.474  0.00  0.00    +0.000 C 
ATOM      4  N   UNL     1       1.943   7.562  19.980  0.00  0.00    +0.000 N 
ATOM      5  C   UNL     1       2.197   7.612  18.549  0.00  0.00    +0.000 C 
ATOM      6  C   UNL     1       3.457   6.823  18.227  0.00  0.00    +0.000 C 
ENDROOT
BRANCH   4   7
ATOM      7  C   UNL     1       1.313   8.690  20.543  0.00  0.00    +0.000 A 
ATOM      8  N   UNL     1       0.818   8.587  21.826  0.00  0.00    +0.000 NA
ATOM      9  C   UNL     1       0.093   9.579  22.376  0.00  0.00    +0.000 A 
ATOM     10  N   UNL     1      -0.395   9.364  23.658  0.00  0.00    +0.000 N 
ATOM     11  N   UNL     1      -0.264  10.725  21.801  0.00  0.00    +0.000 NA
ATOM     12  C   UNL     1       0.256  10.842  20.577  0.00  0.00    +0.000 A 
ATOM     13  N   UNL     1       0.094  11.898  19.737  0.00  0.00    +0.000 N 
ATOM     14  C   UNL     1       0.812  11.638  18.604  0.00  0.00    +0.000 A 
ATOM     15  N   UNL     1       1.388  10.459  18.654  0.00  0.00    +0.000 NA
ATOM     16  C   UNL     1       1.043   9.922  19.891  0.00  0.00    +0.000 A 
ATOM     17  H   UNL     1      -0.431   8.365  23.831  0.00  0.00    +0.000 HD
ATOM     18  H   UNL     1      -1.252   9.880  23.775  0.00  0.00    +0.000 HD
ATOM     19  H   UNL     1      -0.451  12.724  19.939  0.00  0.00    +0.000 HD
ENDBRANCH   4   7
BRANCH   1  20
ATOM     20  O   UNL     1       4.002   4.352  18.254  0.00  0.00    +0.000 OA
BRANCH  20  26
ATOM     21  C   UNL     1       6.383   4.509  17.655  0.00  0.00    +0.000 A 
ATOM     22  C   UNL     1       7.353   4.569  16.623  0.00  0.00    +0.000 A 
ATOM     23  C   UNL     1       7.019   4.514  15.278  0.00  0.00    +0.000 A 
ATOM     24  C   UNL     1       5.693   4.385  14.931  0.00  0.00    +0.000 A 
ATOM     25  C   UNL     1       4.721   4.320  15.932  0.00  0.00    +0.000 A 
ATOM     26  C   UNL     1       5.014   4.398  17.307  0.00  0.00    +0.000 A 
BRANCH  21  28
ATOM     27  C   UNL     1       7.841   5.820  19.117  0.00  0.00    +0.000 C 
ATOM     28  O   UNL     1       7.011   4.711  18.850  0.00  0.00    +0.000 OA
ENDBRANCH  21  28
ENDBRANCH  20  26
ENDBRANCH   1  20
TORSDOF 4
ENDMDL
MODEL 4
REMARK VINA RESULT:      -7.5      0.674      2.285
REMARK  Name = 
REMARK  5 active torsions:
REMARK  status: ('A' for Active; 'I' for Inactive)
REMARK    1  A    between atoms: C_1  and  O_2
REMARK    2  A    between atoms: O_2  and  C_3
REMARK    3  A    between atoms: C_8  and  O_9
REMARK    4  A    between atoms: O_9  and  C_10
REMARK    5  A    between atoms: N_13  and  C_14
REMARK                            x       y       z     vdW  Elec       q    Type
REMARK                         _______ _______ _______ _____ _____    ______ ____
ROOT
ATOM      1  C   UNL     1       1.097   9.064  19.354  0.00  0.00    +0.000 C 
ATOM      2  C   UNL     1       1.431   8.012  20.428  0.00  0.00    +0.000 C 
ATOM      3  C   UNL     1       2.425   6.894  20.077  0.00  0.00    +0.000 C 
ATOM      4  N   UNL     1       2.422   6.621  18.645  0.00  0.00    +0.000 N 
ATOM      5  C   UNL     1       2.821   7.759  17.835  0.00  0.00    +0.000 C 
ATOM      6  C   UNL     1       1.803   8.879  17.992  0.00  0.00    +0.000 C 
ENDROOT
BRANCH   4   7
ATOM      7  C   UNL     1       2.779   5.348  18.156  0.00  0.00    +0.000 A 
ATOM      8  N   UNL     1       1.937   4.288  18.422  0.00  0.00    +0.000 NA
ATOM      9  C   UNL     1       2.280   3.028  18.099  0.00  0.00    +0.000 A 
ATOM     10  N   UNL     1       1.384   2.024  18.443  0.00  0.00    +0.000 N 
ATOM     11  N   UNL     1       3.418   2.624  17.538  0.00  0.00    +0.000 NA
ATOM     12  C   UNL     1       4.209   3.657  17.239  0.00  0.00    +0.000 A 
ATOM     13  N   UNL     1       5.430   3.584  16.645  0.00  0.00    +0.000 N 
ATOM     14  C   UNL     1       5.890   4.860  16.489  0.00  0.00    +0.000 A 
ATOM     15  N   UNL     1       5.055   5.743  16.986  0.00  0.00    +0.000 NA
ATOM     16  C   UNL     1       3.981   5.008  17.483  0.00  0.00    +0.000 A 
ATOM     17  H   UNL     1       0.791   2.360  19.194  0.00  0.00    +0.000 HD
ATOM     18  H   UNL     1       1.892   1.171  18.608  0.00  0.00    +0.000 HD
ATOM     19  H   UNL     1       5.890   2.730  16.364  0.00  0.00    +0.000 HD
ENDBRANCH   4   7
BRANCH   1  20
ATOM     20  O   UNL     1       1.219  10.427  19.906  0.00  0.00    +0.000 OA
BRANCH  20  26
ATOM     21  C   UNL     1      -0.420  11.368  21.482  0.00  0.00    +0.000 A 
ATOM     22  C   UNL     1      -1.647  12.055  21.660  0.00  0.00    +0.000 A 
ATOM     23  C   UNL     1      -2.420  12.494  20.595  0.00  0.00    +0.000 A 
ATOM     24  C   UNL     1      -1.972  12.264  19.314  0.00  0.00    +0.000 A 
ATOM     25  C   UNL     1      -0.763  11.593  19.116  0.00  0.00    +0.000 A 
ATOM     26  C   UNL     1       0.039  11.107  20.166  0.00  0.00    +0.000 A 
BRANCH  21  28
ATOM     27  C   UNL     1      -0.208   9.681  23.240  0.00  0.00    +0.000 C 
ATOM     28  O   UNL     1       0.030  10.965  22.706  0.00  0.00    +0.000 OA
ENDBRANCH  21  28
ENDBRANCH  20  26
ENDBRANCH   1  20
TORSDOF 4
ENDMDL
MODEL 5
REMARK VINA RESULT:      -7.5      3.874      8.410
REMARK  Name = 
REMARK  5 active torsions:
REMARK  status: ('A' for Active; 'I' for Inactive)
REMARK    1  A    between atoms: C_1  and  O_2
REMARK    2  A    between atoms: O_2  and  C_3
REMARK    3  A    between atoms: C_8  and  O_9
REMARK    4  A    between atoms: O_9  and  C_10
REMARK    5  A    between atoms: N_13  and  C_14
REMARK                            x       y       z     vdW  Elec       q    Type
REMARK                         _______ _______ _______ _____ _____    ______ ____
ROOT
ATOM      1  C   UNL     1       2.229   7.273  18.676  0.00  0.00    +0.000 C 
ATOM      2  C   UNL     1       2.197   8.492  17.736  0.00  0.00    +0.000 C 
ATOM      3  C   UNL     1       1.729   9.843  18.300  0.00  0.00    +0.000 C 
ATOM      4  N   UNL     1       0.812   9.654  19.417  0.00  0.00    +0.000 N 
ATOM      5  C   UNL     1       1.403   8.951  20.543  0.00  0.00    +0.000 C 
ATOM      6  C   UNL     1       1.762   7.532  20.127  0.00  0.00    +0.000 C 
ENDROOT
BRANCH   4   7
ATOM      7  C   UNL     1      -0.153  10.633  19.728  0.00  0.00    +0.000 A 
ATOM      8  N   UNL     1      -0.105  11.222  20.974  0.00  0.00    +0.000 NA
ATOM      9  C   UNL     1      -1.070  12.067  21.384  0.00  0.00    +0.000 A 
ATOM     10  N   UNL     1      -0.954  12.577  22.670  0.00  0.00    +0.000 N 
ATOM     11  N   UNL     1      -2.162  12.423  20.712  0.00  0.00    +0.000 NA
ATOM     12  C   UNL     1      -2.181  11.889  19.489  0.00  0.00    +0.000 A 
ATOM     13  N   UNL     1      -3.149  12.070  18.552  0.00  0.00    +0.000 N 
ATOM     14  C   UNL     1      -2.775  11.381  17.433  0.00  0.00    +0.000 A 
ATOM     15  N   UNL     1      -1.646  10.735  17.615  0.00  0.00    +0.000 NA
ATOM     16  C   UNL     1      -1.249  11.027  18.918  0.00  0.00    +0.000 A 
ATOM     17  H   UNL     1      -0.364  11.958  23.215  0.00  0.00    +0.000 HD
ATOM     18  H   UNL     1      -1.874  12.768  23.033  0.00  0.00    +0.000 HD
ATOM     19  H   UNL     1      -3.981  12.630  18.674  0.00  0.00    +0.000 HD
ENDBRANCH   4   7
BRANCH   1  20
ATOM     20  O   UNL     1       3.528   6.579  18.584  0.00  0.00    +0.000 OA
BRANCH  20  26
ATOM     21  C   UNL     1       4.531   4.352  18.875  0.00  0.00    +0.000 A 
ATOM     22  C   UNL     1       4.428   2.957  18.646  0.00  0.00    +0.000 A 
ATOM     23  C   UNL     1       3.346   2.383  17.995  0.00  0.00    +0.000 A 
ATOM     24  C   UNL     1       2.326   3.201  17.565  0.00  0.00    +0.000 A 
ATOM     25  C   UNL     1       2.404   4.578  17.784  0.00  0.00    +0.000 A 
ATOM     26  C   UNL     1       3.495   5.204  18.416  0.00  0.00    +0.000 A 
BRANCH  21  28
ATOM     27  C   UNL     1       6.765   5.340  18.758  0.00  0.00    +0.000 C 
ATOM     28  O   UNL     1       5.756   4.610  19.420  0.00  0.00    +0.000 OA
ENDBRANCH  21  28
ENDBRANCH  20  26
ENDBRANCH   1  20
TORSDOF 4
ENDMDL
MODEL 6
REMARK VINA RESULT:      -7.4      3.813      8.232
REMARK  Name = 
REMARK  5 active torsions:
REMARK  status: ('A' for Active; 'I' for Inactive)
REMARK    1  A    between atoms: C_1  and  O_2
REMARK    2  A    between atoms: O_2  and  C_3
REMARK    3  A    between atoms: C_8  and  O_9
REMARK    4  A    between atoms: O_9  and  C_10
REMARK    5  A    between atoms: N_13  and  C_14
REMARK                            x       y       z     vdW  Elec       q    Type
REMARK                         _______ _______ _______ _____ _____    ______ ____
ROOT
ATOM      1  C   UNL     1       2.152   7.063  19.165  0.00  0.00    +0.000 C 
ATOM      2  C   UNL     1       2.263   8.034  17.976  0.00  0.00    +0.000 C 
ATOM      3  C   UNL     1       1.833   9.496  18.179  0.00  0.00    +0.000 C 
ATOM      4  N   UNL     1       0.825   9.604  19.227  0.00  0.00    +0.000 N 
ATOM      5  C   UNL     1       1.288   9.154  20.529  0.00  0.00    +0.000 C 
ATOM      6  C   UNL     1       1.594   7.665  20.475  0.00  0.00    +0.000 C 
ENDROOT
BRANCH   4   7
ATOM      7  C   UNL     1      -0.101  10.666  19.225  0.00  0.00    +0.000 A 
ATOM      8  N   UNL     1      -0.049  11.578  20.258  0.00  0.00    +0.000 NA
ATOM      9  C   UNL     1      -0.982  12.539  20.388  0.00  0.00    +0.000 A 
ATOM     10  N   UNL     1      -0.865  13.384  21.484  0.00  0.00    +0.000 N 
ATOM     11  N   UNL     1      -2.047  12.733  19.615  0.00  0.00    +0.000 NA
ATOM     12  C   UNL     1      -2.069  11.878  18.589  0.00  0.00    +0.000 A 
ATOM     13  N   UNL     1      -3.013  11.825  17.612  0.00  0.00    +0.000 N 
ATOM     14  C   UNL     1      -2.651  10.837  16.741  0.00  0.00    +0.000 A 
ATOM     15  N   UNL     1      -1.554  10.227  17.127  0.00  0.00    +0.000 NA
ATOM     16  C   UNL     1      -1.167  10.858  18.307  0.00  0.00    +0.000 A 
ATOM     17  H   UNL     1      -0.311  12.921  22.196  0.00  0.00    +0.000 HD
ATOM     18  H   UNL     1      -1.782  13.704  21.753  0.00  0.00    +0.000 HD
ATOM     19  H   UNL     1      -3.822  12.428  17.551  0.00  0.00    +0.000 HD
ENDBRANCH   4   7
BRANCH   1  20
ATOM     20  O   UNL     1       3.412   6.315  19.344  0.00  0.00    +0.000 OA
BRANCH  20  26
ATOM     21  C   UNL     1       2.769   3.968  19.707  0.00  0.00    +0.000 A 
ATOM     22  C   UNL     1       2.834   2.628  19.250  0.00  0.00    +0.000 A 
ATOM     23  C   UNL     1       3.499   2.265  18.088  0.00  0.00    +0.000 A 
ATOM     24  C   UNL     1       4.110   3.248  17.343  0.00  0.00    +0.000 A 
ATOM     25  C   UNL     1       4.054   4.576  17.772  0.00  0.00    +0.000 A 
ATOM     26  C   UNL     1       3.414   4.984  18.957  0.00  0.00    +0.000 A 
BRANCH  21  28
ATOM     27  C   UNL     1       1.805   2.808  21.632  0.00  0.00    +0.000 C 
ATOM     28  O   UNL     1       2.159   3.978  20.928  0.00  0.00    +0.000 OA
ENDBRANCH  21  28
ENDBRANCH  20  26
ENDBRANCH   1  20
TORSDOF 4
ENDMDL
MODEL 7
REMARK VINA RESULT:      -7.4      1.758      2.742
REMARK  Name = 
REMARK  5 active torsions:
REMARK  status: ('A' for Active; 'I' for Inactive)
REMARK    1  A    between atoms: C_1  and  O_2
REMARK    2  A    between atoms: O_2  and  C_3
REMARK    3  A    between atoms: C_8  and  O_9
REMARK    4  A    between atoms: O_9  and  C_10
REMARK    5  A    between atoms: N_13  and  C_14
REMARK                            x       y       z     vdW  Elec       q    Type
REMARK                         _______ _______ _______ _____ _____    ______ ____
ROOT
ATOM      1  C   UNL     1       1.301   9.049  19.982  0.00  0.00    +0.000 C 
ATOM      2  C   UNL     1       1.732   8.769  18.531  0.00  0.00    +0.000 C 
ATOM      3  C   UNL     1       2.173   7.345  18.157  0.00  0.00    +0.000 C 
ATOM      4  N   UNL     1       2.713   6.644  19.315  0.00  0.00    +0.000 N 
ATOM      5  C   UNL     1       1.755   6.479  20.396  0.00  0.00    +0.000 C 
ATOM      6  C   UNL     1       1.369   7.843  20.947  0.00  0.00    +0.000 C 
ENDROOT
BRANCH   4   7
ATOM      7  C   UNL     1       3.657   5.609  19.152  0.00  0.00    +0.000 A 
ATOM      8  N   UNL     1       4.975   5.876  19.457  0.00  0.00    +0.000 NA
ATOM      9  C   UNL     1       5.946   4.979  19.202  0.00  0.00    +0.000 A 
ATOM     10  N   UNL     1       7.247   5.356  19.507  0.00  0.00    +0.000 N 
ATOM     11  N   UNL     1       5.804   3.786  18.629  0.00  0.00    +0.000 NA
ATOM     12  C   UNL     1       4.522   3.511  18.379  0.00  0.00    +0.000 A 
ATOM     13  N   UNL     1       4.043   2.371  17.816  0.00  0.00    +0.000 N 
ATOM     14  C   UNL     1       2.682   2.474  17.767  0.00  0.00    +0.000 A 
ATOM     15  N   UNL     1       2.266   3.632  18.226  0.00  0.00    +0.000 NA
ATOM     16  C   UNL     1       3.414   4.320  18.612  0.00  0.00    +0.000 A 
ATOM     17  H   UNL     1       7.295   6.369  19.535  0.00  0.00    +0.000 HD
ATOM     18  H   UNL     1       7.881   4.885  18.882  0.00  0.00    +0.000 HD
ATOM     19  H   UNL     1       4.608   1.591  17.510  0.00  0.00    +0.000 HD
ENDBRANCH   4   7
BRANCH   1  20
ATOM     20  O   UNL     1       0.010   9.762  20.013  0.00  0.00    +0.000 OA
BRANCH  20  26
ATOM     21  C   UNL     1      -1.007  11.558  18.674  0.00  0.00    +0.000 A 
ATOM     22  C   UNL     1      -0.932  12.900  18.223  0.00  0.00    +0.000 A 
ATOM     23  C   UNL     1       0.086  13.762  18.604  0.00  0.00    +0.000 A 
ATOM     24  C   UNL     1       1.057  13.298  19.463  0.00  0.00    +0.000 A 
ATOM     25  C   UNL     1       1.000  11.981  19.923  0.00  0.00    +0.000 A 
ATOM     26  C   UNL     1      -0.000  11.066  19.542  0.00  0.00    +0.000 A 
BRANCH  21  28
ATOM     27  C   UNL     1      -1.868   9.943  17.052  0.00  0.00    +0.000 C 
ATOM     28  O   UNL     1      -2.042  10.944  18.030  0.00  0.00    +0.000 OA
ENDBRANCH  21  28
ENDBRANCH  20  26
ENDBRANCH   1  20
TORSDOF 4
ENDMDL
MODEL 8
REMARK VINA RESULT:      -7.3      3.748      8.253
REMARK  Name = 
REMARK  5 active torsions:
REMARK  status: ('A' for Active; 'I' for Inactive)
REMARK    1  A    between atoms: C_1  and  O_2
REMARK    2  A    between atoms: O_2  and  C_3
REMARK    3  A    between atoms: C_8  and  O_9
REMARK    4  A    between atoms: O_9  and  C_10
REMARK    5  A    between atoms: N_13  and  C_14
REMARK                            x       y       z     vdW  Elec       q    Type
REMARK                         _______ _______ _______ _____ _____    ______ ____
ROOT
ATOM      1  C   UNL     1       2.256   6.646  19.317  0.00  0.00    +0.000 C 
ATOM      2  C   UNL     1       2.415   7.755  18.261  0.00  0.00    +0.000 C 
ATOM      3  C   UNL     1       1.972   9.182  18.623  0.00  0.00    +0.000 C 
ATOM      4  N   UNL     1       0.919   9.163  19.630  0.00  0.00    +0.000 N 
ATOM      5  C   UNL     1       1.326   8.557  20.887  0.00  0.00    +0.000 C 
ATOM      6  C   UNL     1       1.639   7.084  20.665  0.00  0.00    +0.000 C 
ENDROOT
BRANCH   4   7
ATOM      7  C   UNL     1      -0.010  10.220  19.717  0.00  0.00    +0.000 A 
ATOM      8  N   UNL     1      -0.367  10.871  18.555  0.00  0.00    +0.000 NA
ATOM      9  C   UNL     1      -1.146  11.969  18.581  0.00  0.00    +0.000 A 
ATOM     10  N   UNL     1      -1.416  12.577  17.362  0.00  0.00    +0.000 N 
ATOM     11  N   UNL     1      -1.638  12.577  19.657  0.00  0.00    +0.000 NA
ATOM     12  C   UNL     1      -1.331  11.917  20.777  0.00  0.00    +0.000 A 
ATOM     13  N   UNL     1      -1.697  12.267  22.038  0.00  0.00    +0.000 N 
ATOM     14  C   UNL     1      -1.211  11.316  22.889  0.00  0.00    +0.000 A 
ATOM     15  N   UNL     1      -0.519  10.401  22.250  0.00  0.00    +0.000 NA
ATOM     16  C   UNL     1      -0.566  10.762  20.905  0.00  0.00    +0.000 A 
ATOM     17  H   UNL     1      -0.697  12.311  16.698  0.00  0.00    +0.000 HD
ATOM     18  H   UNL     1      -1.559  13.563  17.511  0.00  0.00    +0.000 HD
ATOM     19  H   UNL     1      -2.244  13.081  22.281  0.00  0.00    +0.000 HD
ENDBRANCH   4   7
BRANCH   1  20
ATOM     20  O   UNL     1       3.509   5.879  19.459  0.00  0.00    +0.000 OA
BRANCH  20  26
ATOM     21  C   UNL     1       3.014   3.501  19.851  0.00  0.00    +0.000 A 
ATOM     22  C   UNL     1       3.046   2.176  19.348  0.00  0.00    +0.000 A 
ATOM     23  C   UNL     1       3.518   1.868  18.080  0.00  0.00    +0.000 A 
ATOM     24  C   UNL     1       3.963   2.892  17.275  0.00  0.00    +0.000 A 
ATOM     25  C   UNL     1       3.935   4.206  17.748  0.00  0.00    +0.000 A 
ATOM     26  C   UNL     1       3.490   4.559  19.036  0.00  0.00    +0.000 A 
BRANCH  21  28
ATOM     27  C   UNL     1       1.489   2.737  21.604  0.00  0.00    +0.000 C 
ATOM     28  O   UNL     1       2.617   3.458  21.156  0.00  0.00    +0.000 OA
ENDBRANCH  21  28
ENDBRANCH  20  26
ENDBRANCH   1  20
TORSDOF 4
ENDMDL
MODEL 9
REMARK VINA RESULT:      -7.3      0.931      1.105
REMARK  Name = 
REMARK  5 active torsions:
REMARK  status: ('A' for Active; 'I' for Inactive)
REMARK    1  A    between atoms: C_1  and  O_2
REMARK    2  A    between atoms: O_2  and  C_3
REMARK    3  A    between atoms: C_8  and  O_9
REMARK    4  A    between atoms: O_9  and  C_10
REMARK    5  A    between atoms: N_13  and  C_14
REMARK                            x       y       z     vdW  Elec       q    Type
REMARK                         _______ _______ _______ _____ _____    ______ ____
ROOT
ATOM      1  C   UNL     1       1.239   9.060  19.021  0.00  0.00    +0.000 C 
ATOM      2  C   UNL     1       1.435   8.108  20.215  0.00  0.00    +0.000 C 
ATOM      3  C   UNL     1       2.460   6.970  20.086  0.00  0.00    +0.000 C 
ATOM      4  N   UNL     1       2.629   6.573  18.694  0.00  0.00    +0.000 N 
ATOM      5  C   UNL     1       3.128   7.639  17.841  0.00  0.00    +0.000 C 
ATOM      6  C   UNL     1       2.103   8.761  17.775  0.00  0.00    +0.000 C 
ENDROOT
BRANCH   4   7
ATOM      7  C   UNL     1       3.037   5.265  18.365  0.00  0.00    +0.000 A 
ATOM      8  N   UNL     1       4.245   5.103  17.718  0.00  0.00    +0.000 NA
ATOM      9  C   UNL     1       4.635   3.899  17.260  0.00  0.00    +0.000 A 
ATOM     10  N   UNL     1       5.848   3.845  16.587  0.00  0.00    +0.000 N 
ATOM     11  N   UNL     1       3.954   2.757  17.325  0.00  0.00    +0.000 NA
ATOM     12  C   UNL     1       2.808   2.908  17.993  0.00  0.00    +0.000 A 
ATOM     13  N   UNL     1       1.896   1.932  18.247  0.00  0.00    +0.000 N 
ATOM     14  C   UNL     1       0.888   2.490  18.980  0.00  0.00    +0.000 A 
ATOM     15  N   UNL     1       1.081   3.774  19.173  0.00  0.00    +0.000 NA
ATOM     16  C   UNL     1       2.288   4.074  18.545  0.00  0.00    +0.000 A 
ATOM     17  H   UNL     1       6.070   4.771  16.239  0.00  0.00    +0.000 HD
ATOM     18  H   UNL     1       5.819   3.098  15.913  0.00  0.00    +0.000 HD
ATOM     19  H   UNL     1       1.975   0.969  17.950  0.00  0.00    +0.000 HD
ENDBRANCH   4   7
BRANCH   1  20
ATOM     20  O   UNL     1       1.298  10.467  19.462  0.00  0.00    +0.000 OA
BRANCH  20  26
ATOM     21  C   UNL     1      -0.109  12.224  20.455  0.00  0.00    +0.000 A 
ATOM     22  C   UNL     1      -1.377  12.855  20.499  0.00  0.00    +0.000 A 
ATOM     23  C   UNL     1      -2.433  12.470  19.686  0.00  0.00    +0.000 A 
ATOM     24  C   UNL     1      -2.238  11.441  18.793  0.00  0.00    +0.000 A 
ATOM     25  C   UNL     1      -0.995  10.807  18.730  0.00  0.00    +0.000 A 
ATOM     26  C   UNL     1       0.095  11.149  19.554  0.00  0.00    +0.000 A 
BRANCH  21  28
ATOM     27  C   UNL     1       0.811  14.127  21.685  0.00  0.00    +0.000 C 
ATOM     28  O   UNL     1       0.666  12.743  21.451  0.00  0.00    +0.000 OA
ENDBRANCH  21  28
ENDBRANCH  20  26
ENDBRANCH   1  20
TORSDOF 4
ENDMDL
