MODEL 1
REMARK VINA RESULT:      -6.9      0.000      0.000
REMARK  Name = 
REMARK  2 active torsions:
REMARK  status: ('A' for Active; 'I' for Inactive)
REMARK    1  A    between atoms: C_1  and  C_2
REMARK    2  A    between atoms: C_16  and  C_17
REMARK                            x       y       z     vdW  Elec       q    Type
REMARK                         _______ _______ _______ _____ _____    ______ ____
ROOT
ATOM      1  C   UNL     1      -1.163  15.460  24.957  0.00  0.00    +0.000 C 
ATOM      2  C   UNL     1      -1.469  15.055  23.526  0.00  0.00    +0.000 C 
ATOM      3  S   UNL     1      -2.572  13.615  23.531  0.00  0.00    +0.000 S 
ATOM      4  C   UNL     1      -1.445  12.664  22.613  0.00  0.00    +0.000 C 
ATOM      5  N   UNL     1      -1.570  11.382  22.511  0.00  0.00    +0.000 NA
ATOM      6  C   UNL     1      -0.694  10.795  21.649  0.00  0.00    +0.000 C 
ATOM      7  C   UNL     1       0.169  11.454  20.874  0.00  0.00    +0.000 C 
ATOM      8  C   UNL     1       0.837  10.514  19.999  0.00  0.00    +0.000 A 
ATOM      9  C   UNL     1       1.238  10.578  18.679  0.00  0.00    +0.000 A 
ATOM     10  C   UNL     1       1.836   9.447  18.115  0.00  0.00    +0.000 A 
ATOM     11  C   UNL     1       2.096   8.310  18.898  0.00  0.00    +0.000 A 
ATOM     12  C   UNL     1       1.555   8.207  20.178  0.00  0.00    +0.000 A 
ATOM     13  C   UNL     1       0.821   9.285  20.626  0.00  0.00    +0.000 A 
ATOM     14  C   UNL     1      -0.284   9.360  21.596  0.00  0.00    +0.000 C 
ATOM     15  O   UNL     1      -0.770   8.413  22.176  0.00  0.00    +0.000 OA
ATOM     16  C   UNL     1       0.607  12.818  21.304  0.00  0.00    +0.000 C 
ATOM     17  N   UNL     1      -0.473  13.447  22.048  0.00  0.00    +0.000 N 
ATOM     18  C   UNL     1      -0.239  14.607  22.755  0.00  0.00    +0.000 C 
ATOM     19  O   UNL     1       0.842  15.183  22.820  0.00  0.00    +0.000 OA
ENDROOT
BRANCH  16  20
ATOM     20  C   UNL     1       1.214  13.617  20.181  0.00  0.00    +0.000 A 
ATOM     21  C   UNL     1       2.607  13.719  20.028  0.00  0.00    +0.000 A 
ATOM     22  C   UNL     1       3.138  14.663  19.143  0.00  0.00    +0.000 A 
ATOM     23  C   UNL     1       2.302  15.471  18.384  0.00  0.00    +0.000 A 
ATOM     24 CL   UNL     1       2.969  16.700  17.388  0.00  0.00    +0.000 Cl
ATOM     25  C   UNL     1       0.914  15.339  18.485  0.00  0.00    +0.000 A 
ATOM     26  C   UNL     1       0.379  14.410  19.377  0.00  0.00    +0.000 A 
ENDBRANCH  16  20
TORSDOF 1
ENDMDL
MODEL 2
REMARK VINA RESULT:      -6.8      3.915      4.914
REMARK  Name = 
REMARK  2 active torsions:
REMARK  status: ('A' for Active; 'I' for Inactive)
REMARK    1  A    between atoms: C_1  and  C_2
REMARK    2  A    between atoms: C_16  and  C_17
REMARK                            x       y       z     vdW  Elec       q    Type
REMARK                         _______ _______ _______ _____ _____    ______ ____
ROOT
ATOM      1  C   UNL     1      -7.876  11.883  21.159  0.00  0.00    +0.000 C 
ATOM      2  C   UNL     1      -6.844  12.778  20.494  0.00  0.00    +0.000 C 
ATOM      3  S   UNL     1      -6.690  12.323  18.746  0.00  0.00    +0.000 S 
ATOM      4  C   UNL     1      -4.991  11.999  18.910  0.00  0.00    +0.000 C 
ATOM      5  N   UNL     1      -4.336  11.356  18.002  0.00  0.00    +0.000 NA
ATOM      6  C   UNL     1      -2.991  11.301  18.206  0.00  0.00    +0.000 C 
ATOM      7  C   UNL     1      -2.343  11.930  19.188  0.00  0.00    +0.000 C 
ATOM      8  C   UNL     1      -0.918  11.750  19.010  0.00  0.00    +0.000 A 
ATOM      9  C   UNL     1       0.167  12.584  19.198  0.00  0.00    +0.000 A 
ATOM     10  C   UNL     1       1.438  12.095  18.886  0.00  0.00    +0.000 A 
ATOM     11  C   UNL     1       1.609  10.763  18.473  0.00  0.00    +0.000 A 
ATOM     12  C   UNL     1       0.500   9.986  18.147  0.00  0.00    +0.000 A 
ATOM     13  C   UNL     1      -0.735  10.577  18.309  0.00  0.00    +0.000 A 
ATOM     14  C   UNL     1      -2.014  10.334  17.621  0.00  0.00    +0.000 C 
ATOM     15  O   UNL     1      -2.186   9.535  16.726  0.00  0.00    +0.000 OA
ATOM     16  C   UNL     1      -3.104  12.272  20.430  0.00  0.00    +0.000 C 
ATOM     17  N   UNL     1      -4.495  12.512  20.080  0.00  0.00    +0.000 N 
ATOM     18  C   UNL     1      -5.448  12.611  21.070  0.00  0.00    +0.000 C 
ATOM     19  O   UNL     1      -5.224  12.509  22.272  0.00  0.00    +0.000 OA
ENDROOT
BRANCH  16  20
ATOM     20  C   UNL     1      -2.421  13.328  21.260  0.00  0.00    +0.000 A 
ATOM     21  C   UNL     1      -2.343  14.661  20.823  0.00  0.00    +0.000 A 
ATOM     22  C   UNL     1      -1.492  15.555  21.481  0.00  0.00    +0.000 A 
ATOM     23  C   UNL     1      -0.756  15.149  22.586  0.00  0.00    +0.000 A 
ATOM     24 CL   UNL     1       0.367  16.226  23.312  0.00  0.00    +0.000 Cl
ATOM     25  C   UNL     1      -0.869  13.841  23.065  0.00  0.00    +0.000 A 
ATOM     26  C   UNL     1      -1.705  12.941  22.404  0.00  0.00    +0.000 A 
ENDBRANCH  16  20
TORSDOF 1
ENDMDL
MODEL 3
REMARK VINA RESULT:      -6.8      4.825      6.606
REMARK  Name = 
REMARK  2 active torsions:
REMARK  status: ('A' for Active; 'I' for Inactive)
REMARK    1  A    between atoms: C_1  and  C_2
REMARK    2  A    between atoms: C_16  and  C_17
REMARK                            x       y       z     vdW  Elec       q    Type
REMARK                         _______ _______ _______ _____ _____    ______ ____
ROOT
ATOM      1  C   UNL     1       2.361  12.431  18.888  0.00  0.00    +0.000 C 
ATOM      2  C   UNL     1       1.235  11.709  19.609  0.00  0.00    +0.000 C 
ATOM      3  S   UNL     1       0.594  10.384  18.550  0.00  0.00    +0.000 S 
ATOM      4  C   UNL     1      -1.012  11.044  18.581  0.00  0.00    +0.000 C 
ATOM      5  N   UNL     1      -1.919  10.652  17.749  0.00  0.00    +0.000 NA
ATOM      6  C   UNL     1      -3.161  11.158  17.985  0.00  0.00    +0.000 C 
ATOM      7  C   UNL     1      -3.488  11.915  19.034  0.00  0.00    +0.000 C 
ATOM      8  C   UNL     1      -4.916  12.152  19.023  0.00  0.00    +0.000 A 
ATOM      9  C   UNL     1      -5.866  12.221  20.022  0.00  0.00    +0.000 A 
ATOM     10  C   UNL     1      -7.198  12.431  19.654  0.00  0.00    +0.000 A 
ATOM     11  C   UNL     1      -7.542  12.650  18.310  0.00  0.00    +0.000 A 
ATOM     12  C   UNL     1      -6.601  12.430  17.305  0.00  0.00    +0.000 A 
ATOM     13  C   UNL     1      -5.340  12.053  17.714  0.00  0.00    +0.000 A 
ATOM     14  C   UNL     1      -4.307  11.257  17.032  0.00  0.00    +0.000 C 
ATOM     15  O   UNL     1      -4.422  10.753  15.936  0.00  0.00    +0.000 OA
ATOM     16  C   UNL     1      -2.405  12.702  19.703  0.00  0.00    +0.000 C 
ATOM     17  N   UNL     1      -1.149  11.981  19.572  0.00  0.00    +0.000 N 
ATOM     18  C   UNL     1       0.039  12.601  19.893  0.00  0.00    +0.000 C 
ATOM     19  O   UNL     1       0.141  13.756  20.295  0.00  0.00    +0.000 OA
ENDROOT
BRANCH  16  20
ATOM     20  C   UNL     1      -2.786  13.157  21.087  0.00  0.00    +0.000 A 
ATOM     21  C   UNL     1      -3.086  14.504  21.355  0.00  0.00    +0.000 A 
ATOM     22  C   UNL     1      -3.185  14.939  22.681  0.00  0.00    +0.000 A 
ATOM     23  C   UNL     1      -3.030  14.046  23.732  0.00  0.00    +0.000 A 
ATOM     24 CL   UNL     1      -3.042  14.617  25.352  0.00  0.00    +0.000 Cl
ATOM     25  C   UNL     1      -2.789  12.693  23.478  0.00  0.00    +0.000 A 
ATOM     26  C   UNL     1      -2.675  12.256  22.158  0.00  0.00    +0.000 A 
ENDBRANCH  16  20
TORSDOF 1
ENDMDL
MODEL 4
REMARK VINA RESULT:      -6.6      4.820      6.581
REMARK  Name = 
REMARK  2 active torsions:
REMARK  status: ('A' for Active; 'I' for Inactive)
REMARK    1  A    between atoms: C_1  and  C_2
REMARK    2  A    between atoms: C_16  and  C_17
REMARK                            x       y       z     vdW  Elec       q    Type
REMARK                         _______ _______ _______ _____ _____    ______ ____
ROOT
ATOM      1  C   UNL     1       2.564  11.984  18.166  0.00  0.00    +0.000 C 
ATOM      2  C   UNL     1       1.474  11.366  19.025  0.00  0.00    +0.000 C 
ATOM      3  S   UNL     1       0.664  10.032  18.102  0.00  0.00    +0.000 S 
ATOM      4  C   UNL     1      -0.894  10.788  18.245  0.00  0.00    +0.000 C 
ATOM      5  N   UNL     1      -1.896  10.411  17.523  0.00  0.00    +0.000 NA
ATOM      6  C   UNL     1      -3.080  11.001  17.845  0.00  0.00    +0.000 C 
ATOM      7  C   UNL     1      -3.264  11.825  18.877  0.00  0.00    +0.000 C 
ATOM      8  C   UNL     1      -4.671  12.147  18.985  0.00  0.00    +0.000 A 
ATOM      9  C   UNL     1      -5.517  12.321  20.063  0.00  0.00    +0.000 A 
ATOM     10  C   UNL     1      -6.864  12.592  19.809  0.00  0.00    +0.000 A 
ATOM     11  C   UNL     1      -7.321  12.765  18.492  0.00  0.00    +0.000 A 
ATOM     12  C   UNL     1      -6.494  12.442  17.418  0.00  0.00    +0.000 A 
ATOM     13  C   UNL     1      -5.222  12.010  17.728  0.00  0.00    +0.000 A 
ATOM     14  C   UNL     1      -4.304  11.121  16.998  0.00  0.00    +0.000 C 
ATOM     15  O   UNL     1      -4.551  10.574  15.945  0.00  0.00    +0.000 OA
ATOM     16  C   UNL     1      -2.081  12.578  19.401  0.00  0.00    +0.000 C 
ATOM     17  N   UNL     1      -0.884  11.778  19.193  0.00  0.00    +0.000 N 
ATOM     18  C   UNL     1       0.361  12.341  19.369  0.00  0.00    +0.000 C 
ATOM     19  O   UNL     1       0.564  13.506  19.698  0.00  0.00    +0.000 OA
ENDROOT
BRANCH  16  20
ATOM     20  C   UNL     1      -2.303  13.121  20.787  0.00  0.00    +0.000 A 
ATOM     21  C   UNL     1      -2.349  12.270  21.905  0.00  0.00    +0.000 A 
ATOM     22  C   UNL     1      -2.806  12.765  23.131  0.00  0.00    +0.000 A 
ATOM     23  C   UNL     1      -3.174  14.097  23.265  0.00  0.00    +0.000 A 
ATOM     24 CL   UNL     1      -3.838  14.660  24.745  0.00  0.00    +0.000 Cl
ATOM     25  C   UNL     1      -3.077  14.967  22.175  0.00  0.00    +0.000 A 
ATOM     26  C   UNL     1      -2.636  14.476  20.946  0.00  0.00    +0.000 A 
ENDBRANCH  16  20
TORSDOF 1
ENDMDL
MODEL 5
REMARK VINA RESULT:      -6.5      3.970      5.205
REMARK  Name = 
REMARK  2 active torsions:
REMARK  status: ('A' for Active; 'I' for Inactive)
REMARK    1  A    between atoms: C_1  and  C_2
REMARK    2  A    between atoms: C_16  and  C_17
REMARK                            x       y       z     vdW  Elec       q    Type
REMARK                         _______ _______ _______ _____ _____    ______ ____
ROOT
ATOM      1  C   UNL     1      -1.675  15.408  25.943  0.00  0.00    +0.000 C 
ATOM      2  C   UNL     1      -1.948  15.665  24.471  0.00  0.00    +0.000 C 
ATOM      3  S   UNL     1      -3.643  16.277  24.270  0.00  0.00    +0.000 S 
ATOM      4  C   UNL     1      -4.060  14.974  23.201  0.00  0.00    +0.000 C 
ATOM      5  N   UNL     1      -5.289  14.710  22.904  0.00  0.00    +0.000 NA
ATOM      6  C   UNL     1      -5.449  13.753  21.950  0.00  0.00    +0.000 C 
ATOM      7  C   UNL     1      -4.453  13.179  21.273  0.00  0.00    +0.000 C 
ATOM      8  C   UNL     1      -5.007  12.312  20.255  0.00  0.00    +0.000 A 
ATOM      9  C   UNL     1      -4.636  12.030  18.954  0.00  0.00    +0.000 A 
ATOM     10  C   UNL     1      -5.435  11.153  18.214  0.00  0.00    +0.000 A 
ATOM     11  C   UNL     1      -6.535  10.515  18.810  0.00  0.00    +0.000 A 
ATOM     12  C   UNL     1      -6.981  10.920  20.066  0.00  0.00    +0.000 A 
ATOM     13  C   UNL     1      -6.256  11.917  20.685  0.00  0.00    +0.000 A 
ATOM     14  C   UNL     1      -6.664  12.931  21.671  0.00  0.00    +0.000 C 
ATOM     15  O   UNL     1      -7.787  13.072  22.105  0.00  0.00    +0.000 OA
ATOM     16  C   UNL     1      -3.096  13.148  21.902  0.00  0.00    +0.000 C 
ATOM     17  N   UNL     1      -2.942  14.320  22.749  0.00  0.00    +0.000 N 
ATOM     18  C   UNL     1      -1.880  14.406  23.623  0.00  0.00    +0.000 C 
ATOM     19  O   UNL     1      -1.014  13.548  23.760  0.00  0.00    +0.000 OA
ENDROOT
BRANCH  16  20
ATOM     20  C   UNL     1      -1.997  12.881  20.907  0.00  0.00    +0.000 A 
ATOM     21  C   UNL     1      -1.318  11.651  20.882  0.00  0.00    +0.000 A 
ATOM     22  C   UNL     1      -0.147  11.524  20.129  0.00  0.00    +0.000 A 
ATOM     23  C   UNL     1       0.328  12.586  19.373  0.00  0.00    +0.000 A 
ATOM     24 CL   UNL     1       1.827  12.450  18.546  0.00  0.00    +0.000 Cl
ATOM     25  C   UNL     1      -0.370  13.797  19.344  0.00  0.00    +0.000 A 
ATOM     26  C   UNL     1      -1.531  13.935  20.104  0.00  0.00    +0.000 A 
ENDBRANCH  16  20
TORSDOF 1
ENDMDL
MODEL 6
REMARK VINA RESULT:      -6.4      6.285      9.145
REMARK  Name = 
REMARK  2 active torsions:
REMARK  status: ('A' for Active; 'I' for Inactive)
REMARK    1  A    between atoms: C_1  and  C_2
REMARK    2  A    between atoms: C_16  and  C_17
REMARK                            x       y       z     vdW  Elec       q    Type
REMARK                         _______ _______ _______ _____ _____    ______ ____
ROOT
ATOM      1  C   UNL     1       1.027   1.875  19.670  0.00  0.00    +0.000 C 
ATOM      2  C   UNL     1       1.314   2.897  18.583  0.00  0.00    +0.000 C 
ATOM      3  S   UNL     1       2.582   2.244  17.462  0.00  0.00    +0.000 S 
ATOM      4  C   UNL     1       3.637   3.591  17.761  0.00  0.00    +0.000 C 
ATOM      5  N   UNL     1       4.881   3.563  17.416  0.00  0.00    +0.000 NA
ATOM      6  C   UNL     1       5.544   4.740  17.590  0.00  0.00    +0.000 C 
ATOM      7  C   UNL     1       4.977   5.881  17.982  0.00  0.00    +0.000 C 
ATOM      8  C   UNL     1       5.958   6.944  17.926  0.00  0.00    +0.000 A 
ATOM      9  C   UNL     1       5.888   8.273  17.555  0.00  0.00    +0.000 A 
ATOM     10  C   UNL     1       7.062   9.029  17.581  0.00  0.00    +0.000 A 
ATOM     11  C   UNL     1       8.261   8.470  18.054  0.00  0.00    +0.000 A 
ATOM     12  C   UNL     1       8.349   7.099  18.282  0.00  0.00    +0.000 A 
ATOM     13  C   UNL     1       7.201   6.365  18.073  0.00  0.00    +0.000 A 
ATOM     14  C   UNL     1       7.018   4.954  17.693  0.00  0.00    +0.000 C 
ATOM     15  O   UNL     1       7.913   4.170  17.465  0.00  0.00    +0.000 OA
ATOM     16  C   UNL     1       3.711   5.807  18.777  0.00  0.00    +0.000 C 
ATOM     17  N   UNL     1       2.972   4.620  18.376  0.00  0.00    +0.000 N 
ATOM     18  C   UNL     1       1.894   4.194  19.121  0.00  0.00    +0.000 C 
ATOM     19  O   UNL     1       1.481   4.746  20.136  0.00  0.00    +0.000 OA
ENDROOT
BRANCH  16  20
ATOM     20  C   UNL     1       2.952   7.107  18.790  0.00  0.00    +0.000 A 
ATOM     21  C   UNL     1       2.398   7.617  19.977  0.00  0.00    +0.000 A 
ATOM     22  C   UNL     1       1.491   8.680  19.914  0.00  0.00    +0.000 A 
ATOM     23  C   UNL     1       1.167   9.264  18.697  0.00  0.00    +0.000 A 
ATOM     24 CL   UNL     1      -0.031  10.492  18.627  0.00  0.00    +0.000 Cl
ATOM     25  C   UNL     1       1.756   8.804  17.516  0.00  0.00    +0.000 A 
ATOM     26  C   UNL     1       2.649   7.734  17.570  0.00  0.00    +0.000 A 
ENDBRANCH  16  20
TORSDOF 1
ENDMDL
MODEL 7
REMARK VINA RESULT:      -6.4      3.475      6.527
REMARK  Name = 
REMARK  2 active torsions:
REMARK  status: ('A' for Active; 'I' for Inactive)
REMARK    1  A    between atoms: C_1  and  C_2
REMARK    2  A    between atoms: C_16  and  C_17
REMARK                            x       y       z     vdW  Elec       q    Type
REMARK                         _______ _______ _______ _____ _____    ______ ____
ROOT
ATOM      1  C   UNL     1       1.831   7.882  20.309  0.00  0.00    +0.000 C 
ATOM      2  C   UNL     1       0.999   8.796  19.424  0.00  0.00    +0.000 C 
ATOM      3  S   UNL     1       2.011   9.373  18.034  0.00  0.00    +0.000 S 
ATOM      4  C   UNL     1       1.763  11.039  18.457  0.00  0.00    +0.000 C 
ATOM      5  N   UNL     1       2.488  11.980  17.950  0.00  0.00    +0.000 NA
ATOM      6  C   UNL     1       2.086  13.241  18.270  0.00  0.00    +0.000 C 
ATOM      7  C   UNL     1       0.983  13.536  18.960  0.00  0.00    +0.000 C 
ATOM      8  C   UNL     1       0.811  14.973  18.991  0.00  0.00    +0.000 A 
ATOM      9  C   UNL     1      -0.299  15.790  18.911  0.00  0.00    +0.000 A 
ATOM     10  C   UNL     1      -0.104  17.174  18.933  0.00  0.00    +0.000 A 
ATOM     11  C   UNL     1       1.181  17.711  19.116  0.00  0.00    +0.000 A 
ATOM     12  C   UNL     1       2.299  16.883  19.046  0.00  0.00    +0.000 A 
ATOM     13  C   UNL     1       2.060  15.540  18.848  0.00  0.00    +0.000 A 
ATOM     14  C   UNL     1       2.888  14.499  18.216  0.00  0.00    +0.000 C 
ATOM     15  O   UNL     1       3.976  14.681  17.714  0.00  0.00    +0.000 OA
ATOM     16  C   UNL     1       0.429  12.499  19.885  0.00  0.00    +0.000 C 
ATOM     17  N   UNL     1       0.735  11.180  19.353  0.00  0.00    +0.000 N 
ATOM     18  C   UNL     1       0.544  10.060  20.133  0.00  0.00    +0.000 C 
ATOM     19  O   UNL     1       0.123  10.071  21.285  0.00  0.00    +0.000 OA
ENDROOT
BRANCH  16  20
ATOM     20  C   UNL     1      -1.005  12.762  20.264  0.00  0.00    +0.000 A 
ATOM     21  C   UNL     1      -1.349  13.204  21.553  0.00  0.00    +0.000 A 
ATOM     22  C   UNL     1      -2.690  13.194  21.952  0.00  0.00    +0.000 A 
ATOM     23  C   UNL     1      -3.687  12.793  21.073  0.00  0.00    +0.000 A 
ATOM     24 CL   UNL     1      -5.312  12.679  21.614  0.00  0.00    +0.000 Cl
ATOM     25  C   UNL     1      -3.363  12.406  19.770  0.00  0.00    +0.000 A 
ATOM     26  C   UNL     1      -2.026  12.399  19.371  0.00  0.00    +0.000 A 
ENDBRANCH  16  20
TORSDOF 1
ENDMDL
MODEL 8
REMARK VINA RESULT:      -6.3      3.979      7.393
REMARK  Name = 
REMARK  2 active torsions:
REMARK  status: ('A' for Active; 'I' for Inactive)
REMARK    1  A    between atoms: C_1  and  C_2
REMARK    2  A    between atoms: C_16  and  C_17
REMARK                            x       y       z     vdW  Elec       q    Type
REMARK                         _______ _______ _______ _____ _____    ______ ____
ROOT
ATOM      1  C   UNL     1      -7.222  12.308  19.507  0.00  0.00    +0.000 C 
ATOM      2  C   UNL     1      -6.545  11.989  20.829  0.00  0.00    +0.000 C 
ATOM      3  S   UNL     1      -7.483  12.748  22.184  0.00  0.00    +0.000 S 
ATOM      4  C   UNL     1      -6.102  13.655  22.721  0.00  0.00    +0.000 C 
ATOM      5  N   UNL     1      -6.222  14.637  23.551  0.00  0.00    +0.000 NA
ATOM      6  C   UNL     1      -5.042  15.160  23.984  0.00  0.00    +0.000 C 
ATOM      7  C   UNL     1      -3.837  14.671  23.686  0.00  0.00    +0.000 C 
ATOM      8  C   UNL     1      -2.830  15.400  24.427  0.00  0.00    +0.000 A 
ATOM      9  C   UNL     1      -1.659  15.017  25.052  0.00  0.00    +0.000 A 
ATOM     10  C   UNL     1      -0.922  15.993  25.728  0.00  0.00    +0.000 A 
ATOM     11  C   UNL     1      -1.322  17.339  25.698  0.00  0.00    +0.000 A 
ATOM     12  C   UNL     1      -2.574  17.683  25.194  0.00  0.00    +0.000 A 
ATOM     13  C   UNL     1      -3.341  16.653  24.692  0.00  0.00    +0.000 A 
ATOM     14  C   UNL     1      -4.802  16.505  24.587  0.00  0.00    +0.000 C 
ATOM     15  O   UNL     1      -5.616  17.315  24.975  0.00  0.00    +0.000 OA
ATOM     16  C   UNL     1      -3.690  13.869  22.431  0.00  0.00    +0.000 C 
ATOM     17  N   UNL     1      -4.944  13.184  22.160  0.00  0.00    +0.000 N 
ATOM     18  C   UNL     1      -5.147  12.573  20.941  0.00  0.00    +0.000 C 
ATOM     19  O   UNL     1      -4.334  12.554  20.022  0.00  0.00    +0.000 OA
ENDROOT
BRANCH  16  20
ATOM     20  C   UNL     1      -2.441  13.029  22.419  0.00  0.00    +0.000 A 
ATOM     21  C   UNL     1      -1.412  13.265  21.490  0.00  0.00    +0.000 A 
ATOM     22  C   UNL     1      -0.392  12.321  21.335  0.00  0.00    +0.000 A 
ATOM     23  C   UNL     1      -0.362  11.175  22.118  0.00  0.00    +0.000 A 
ATOM     24 CL   UNL     1       0.833   9.974  21.837  0.00  0.00    +0.000 Cl
ATOM     25  C   UNL     1      -1.348  10.957  23.085  0.00  0.00    +0.000 A 
ATOM     26  C   UNL     1      -2.376  11.887  23.234  0.00  0.00    +0.000 A 
ENDBRANCH  16  20
TORSDOF 1
ENDMDL
MODEL 9
REMARK VINA RESULT:      -6.3      0.394      1.021
REMARK  Name = 
REMARK  2 active torsions:
REMARK  status: ('A' for Active; 'I' for Inactive)
REMARK    1  A    between atoms: C_1  and  C_2
REMARK    2  A    between atoms: C_16  and  C_17
REMARK                            x       y       z     vdW  Elec       q    Type
REMARK                         _______ _______ _______ _____ _____    ______ ____
ROOT
ATOM      1  C   UNL     1      -1.484  15.360  25.274  0.00  0.00    +0.000 C 
ATOM      2  C   UNL     1      -1.714  15.069  23.800  0.00  0.00    +0.000 C 
ATOM      3  S   UNL     1      -2.810  13.634  23.633  0.00  0.00    +0.000 S 
ATOM      4  C   UNL     1      -1.633  12.758  22.703  0.00  0.00    +0.000 C 
ATOM      5  N   UNL     1      -1.747  11.489  22.494  0.00  0.00    +0.000 NA
ATOM      6  C   UNL     1      -0.825  10.971  21.635  0.00  0.00    +0.000 C 
ATOM      7  C   UNL     1       0.075  11.689  20.962  0.00  0.00    +0.000 C 
ATOM      8  C   UNL     1       0.792  10.821  20.052  0.00  0.00    +0.000 A 
ATOM      9  C   UNL     1       1.262  10.988  18.764  0.00  0.00    +0.000 A 
ATOM     10  C   UNL     1       1.893   9.906  18.144  0.00  0.00    +0.000 A 
ATOM     11  C   UNL     1       2.115   8.711  18.848  0.00  0.00    +0.000 A 
ATOM     12  C   UNL     1       1.508   8.507  20.085  0.00  0.00    +0.000 A 
ATOM     13  C   UNL     1       0.748   9.546  20.578  0.00  0.00    +0.000 A 
ATOM     14  C   UNL     1      -0.407   9.545  21.491  0.00  0.00    +0.000 C 
ATOM     15  O   UNL     1      -0.920   8.555  21.967  0.00  0.00    +0.000 OA
ATOM     16  C   UNL     1       0.485  13.014  21.521  0.00  0.00    +0.000 C 
ATOM     17  N   UNL     1      -0.635  13.583  22.254  0.00  0.00    +0.000 N 
ATOM     18  C   UNL     1      -0.443  14.683  23.063  0.00  0.00    +0.000 C 
ATOM     19  O   UNL     1       0.631  15.252  23.230  0.00  0.00    +0.000 OA
ENDROOT
BRANCH  16  20
ATOM     20  C   UNL     1       1.147  13.900  20.499  0.00  0.00    +0.000 A 
ATOM     21  C   UNL     1       0.409  14.495  19.462  0.00  0.00    +0.000 A 
ATOM     22  C   UNL     1       1.080  15.095  18.391  0.00  0.00    +0.000 A 
ATOM     23  C   UNL     1       2.467  15.146  18.365  0.00  0.00    +0.000 A 
ATOM     24 CL   UNL     1       3.276  15.784  16.991  0.00  0.00    +0.000 Cl
ATOM     25  C   UNL     1       3.212  14.608  19.418  0.00  0.00    +0.000 A 
ATOM     26  C   UNL     1       2.548  13.995  20.481  0.00  0.00    +0.000 A 
ENDBRANCH  16  20
TORSDOF 1
ENDMDL
