MODEL 1
REMARK VINA RESULT:      -8.1      0.000      0.000
REMARK  Name = 
REMARK  5 active torsions:
REMARK  status: ('A' for Active; 'I' for Inactive)
REMARK    1  A    between atoms: C_2  and  C_3
REMARK    2  A    between atoms: C_8  and  C_9
REMARK    3  A    between atoms: C_9  and  N_10
REMARK    4  A    between atoms: C_16  and  N_17
REMARK    5  A    between atoms: C_22  and  C_23
REMARK                            x       y       z     vdW  Elec       q    Type
REMARK                         _______ _______ _______ _____ _____    ______ ____
ROOT
ATOM      1  N   UNL     1       2.887   6.702  18.221  0.00  0.00    +0.000 N 
ATOM      2  C   UNL     1       2.301   5.968  19.298  0.00  0.00    +0.000 A 
ATOM      3  N   UNL     1       2.456   4.578  19.419  0.00  0.00    +0.000 N 
ATOM      4  C   UNL     1       2.470   3.632  18.309  0.00  0.00    +0.000 C 
ATOM      5  C   UNL     1       1.636   2.390  18.574  0.00  0.00    +0.000 C 
ATOM      6  C   UNL     1       2.054   1.713  19.866  0.00  0.00    +0.000 C 
ATOM      7  C   UNL     1       2.000   2.712  21.029  0.00  0.00    +0.000 C 
ATOM      8  C   UNL     1       2.844   3.979  20.717  0.00  0.00    +0.000 C 
ATOM      9  N   UNL     1       1.592   6.576  20.239  0.00  0.00    +0.000 NA
ATOM     10  C   UNL     1       1.429   7.917  20.086  0.00  0.00    +0.000 A 
ATOM     11  N   UNL     1       0.752   8.749  20.951  0.00  0.00    +0.000 N 
ATOM     12  C   UNL     1       0.810  10.063  20.493  0.00  0.00    +0.000 A 
ATOM     13  C   UNL     1       1.485  10.021  19.284  0.00  0.00    +0.000 A 
ATOM     14  C   UNL     1       1.880   8.691  19.062  0.00  0.00    +0.000 A 
ATOM     15  C   UNL     1       2.636   8.075  18.020  0.00  0.00    +0.000 A 
ATOM     16  O   UNL     1       2.995   8.726  17.039  0.00  0.00    +0.000 OA
ATOM     17  H   UNL     1       0.289   8.439  21.792  0.00  0.00    +0.000 HD
ENDROOT
BRANCH  12  18
ATOM     18  C   UNL     1       0.286  11.237  21.199  0.00  0.00    +0.000 A 
ATOM     19  C   UNL     1      -0.755  11.141  22.123  0.00  0.00    +0.000 A 
ATOM     20  C   UNL     1      -1.156  12.270  22.843  0.00  0.00    +0.000 A 
ATOM     21  C   UNL     1      -0.506  13.471  22.613  0.00  0.00    +0.000 A 
ATOM     22  N   UNL     1       0.498  13.615  21.727  0.00  0.00    +0.000 NA
ATOM     23  C   UNL     1       0.873  12.498  21.053  0.00  0.00    +0.000 A 
ENDBRANCH  12  18
BRANCH   7  24
ATOM     24  N   UNL     1       2.427   2.018  22.253  0.00  0.00    +0.000 NA
ATOM     25  H   UNL     1       3.255   2.468  22.644  0.00  0.00    +0.000 HD
ATOM     26  H   UNL     1       2.722   1.071  22.008  0.00  0.00    +0.000 HD
ENDBRANCH   7  24
BRANCH   1  27
ATOM     27  C   UNL     1       3.717   6.145  17.162  0.00  0.00    +0.000 C 
BRANCH  27  33
ATOM     28  C   UNL     1       5.994   5.049  16.588  0.00  0.00    +0.000 A 
ATOM     29  C   UNL     1       7.264   4.647  17.032  0.00  0.00    +0.000 A 
ATOM     30  C   UNL     1       7.706   4.943  18.321  0.00  0.00    +0.000 A 
ATOM     31  C   UNL     1       6.882   5.647  19.189  0.00  0.00    +0.000 A 
ATOM     32  C   UNL     1       5.611   6.029  18.771  0.00  0.00    +0.000 A 
ATOM     33  C   UNL     1       5.147   5.757  17.465  0.00  0.00    +0.000 A 
BRANCH  28  35
ATOM     34  N   UNL     1       5.337   4.384  14.166  0.00  0.00    +0.000 NA
ATOM     35  C   UNL     1       5.617   4.699  15.247  0.00  0.00    +0.000 C 
ENDBRANCH  28  35
ENDBRANCH  27  33
ENDBRANCH   1  27
TORSDOF 5
ENDMDL
MODEL 2
REMARK VINA RESULT:      -7.8      1.034      1.279
REMARK  Name = 
REMARK  5 active torsions:
REMARK  status: ('A' for Active; 'I' for Inactive)
REMARK    1  A    between atoms: C_2  and  C_3
REMARK    2  A    between atoms: C_8  and  C_9
REMARK    3  A    between atoms: C_9  and  N_10
REMARK    4  A    between atoms: C_16  and  N_17
REMARK    5  A    between atoms: C_22  and  C_23
REMARK                            x       y       z     vdW  Elec       q    Type
REMARK                         _______ _______ _______ _____ _____    ______ ____
ROOT
ATOM      1  N   UNL     1       3.203   6.402  17.842  0.00  0.00    +0.000 N 
ATOM      2  C   UNL     1       2.362   5.931  18.896  0.00  0.00    +0.000 A 
ATOM      3  N   UNL     1       2.295   4.571  19.239  0.00  0.00    +0.000 N 
ATOM      4  C   UNL     1       2.340   3.460  18.295  0.00  0.00    +0.000 C 
ATOM      5  C   UNL     1       1.306   2.387  18.587  0.00  0.00    +0.000 C 
ATOM      6  C   UNL     1       1.422   1.887  20.016  0.00  0.00    +0.000 C 
ATOM      7  C   UNL     1       1.336   3.063  20.997  0.00  0.00    +0.000 C 
ATOM      8  C   UNL     1       2.391   4.152  20.656  0.00  0.00    +0.000 C 
ATOM      9  N   UNL     1       1.614   6.765  19.605  0.00  0.00    +0.000 NA
ATOM     10  C   UNL     1       1.670   8.072  19.236  0.00  0.00    +0.000 A 
ATOM     11  N   UNL     1       0.998   9.109  19.843  0.00  0.00    +0.000 N 
ATOM     12  C   UNL     1       1.312  10.315  19.219  0.00  0.00    +0.000 A 
ATOM     13  C   UNL     1       2.150   9.993  18.163  0.00  0.00    +0.000 A 
ATOM     14  C   UNL     1       2.378   8.608  18.205  0.00  0.00    +0.000 A 
ATOM     15  C   UNL     1       3.187   7.744  17.406  0.00  0.00    +0.000 A 
ATOM     16  O   UNL     1       3.780   8.177  16.419  0.00  0.00    +0.000 OA
ATOM     17  H   UNL     1       0.372   8.999  20.627  0.00  0.00    +0.000 HD
ENDROOT
BRANCH  12  18
ATOM     18  C   UNL     1       0.862  11.642  19.649  0.00  0.00    +0.000 A 
ATOM     19  C   UNL     1       0.104  12.471  18.821  0.00  0.00    +0.000 A 
ATOM     20  C   UNL     1      -0.385  13.686  19.307  0.00  0.00    +0.000 A 
ATOM     21  C   UNL     1      -0.096  14.045  20.613  0.00  0.00    +0.000 A 
ATOM     22  N   UNL     1       0.636  13.282  21.448  0.00  0.00    +0.000 NA
ATOM     23  C   UNL     1       1.086  12.102  20.950  0.00  0.00    +0.000 A 
ENDBRANCH  12  18
BRANCH   7  24
ATOM     24  N   UNL     1       1.469   2.534  22.363  0.00  0.00    +0.000 NA
ATOM     25  H   UNL     1       1.641   3.294  23.021  0.00  0.00    +0.000 HD
ATOM     26  H   UNL     1       2.301   1.942  22.406  0.00  0.00    +0.000 HD
ENDBRANCH   7  24
BRANCH   1  27
ATOM     27  C   UNL     1       4.095   5.585  17.032  0.00  0.00    +0.000 C 
BRANCH  27  33
ATOM     28  C   UNL     1       6.516   4.709  16.732  0.00  0.00    +0.000 A 
ATOM     29  C   UNL     1       7.775   4.476  17.310  0.00  0.00    +0.000 A 
ATOM     30  C   UNL     1       8.064   4.899  18.607  0.00  0.00    +0.000 A 
ATOM     31  C   UNL     1       7.096   5.562  19.349  0.00  0.00    +0.000 A 
ATOM     32  C   UNL     1       5.836   5.777  18.799  0.00  0.00    +0.000 A 
ATOM     33  C   UNL     1       5.524   5.374  17.482  0.00  0.00    +0.000 A 
BRANCH  28  35
ATOM     34  N   UNL     1       6.100   3.884  14.306  0.00  0.00    +0.000 NA
ATOM     35  C   UNL     1       6.301   4.236  15.393  0.00  0.00    +0.000 C 
ENDBRANCH  28  35
ENDBRANCH  27  33
ENDBRANCH   1  27
TORSDOF 5
ENDMDL
MODEL 3
REMARK VINA RESULT:      -7.6      1.283      1.508
REMARK  Name = 
REMARK  5 active torsions:
REMARK  status: ('A' for Active; 'I' for Inactive)
REMARK    1  A    between atoms: C_2  and  C_3
REMARK    2  A    between atoms: C_8  and  C_9
REMARK    3  A    between atoms: C_9  and  N_10
REMARK    4  A    between atoms: C_16  and  N_17
REMARK    5  A    between atoms: C_22  and  C_23
REMARK                            x       y       z     vdW  Elec       q    Type
REMARK                         _______ _______ _______ _____ _____    ______ ____
ROOT
ATOM      1  N   UNL     1       2.718   6.833  18.473  0.00  0.00    +0.000 N 
ATOM      2  C   UNL     1       1.978   6.136  19.476  0.00  0.00    +0.000 A 
ATOM      3  N   UNL     1       2.020   4.737  19.592  0.00  0.00    +0.000 N 
ATOM      4  C   UNL     1       2.076   3.801  18.475  0.00  0.00    +0.000 C 
ATOM      5  C   UNL     1       1.134   2.621  18.639  0.00  0.00    +0.000 C 
ATOM      6  C   UNL     1       1.372   1.905  19.955  0.00  0.00    +0.000 C 
ATOM      7  C   UNL     1       1.275   2.897  21.122  0.00  0.00    +0.000 C 
ATOM      8  C   UNL     1       2.234   4.102  20.912  0.00  0.00    +0.000 C 
ATOM      9  N   UNL     1       1.225   6.786  20.353  0.00  0.00    +0.000 NA
ATOM     10  C   UNL     1       1.174   8.136  20.204  0.00  0.00    +0.000 A 
ATOM     11  N   UNL     1       0.477   9.009  21.010  0.00  0.00    +0.000 N 
ATOM     12  C   UNL     1       0.673  10.319  20.580  0.00  0.00    +0.000 A 
ATOM     13  C   UNL     1       1.459  10.236  19.442  0.00  0.00    +0.000 A 
ATOM     14  C   UNL     1       1.779   8.884  19.241  0.00  0.00    +0.000 A 
ATOM     15  C   UNL     1       2.588   8.223  18.268  0.00  0.00    +0.000 A 
ATOM     16  O   UNL     1       3.087   8.853  17.337  0.00  0.00    +0.000 OA
ATOM     17  H   UNL     1      -0.089   8.727  21.797  0.00  0.00    +0.000 HD
ENDROOT
BRANCH  12  18
ATOM     18  C   UNL     1       0.167  11.523  21.248  0.00  0.00    +0.000 A 
ATOM     19  C   UNL     1      -0.819  11.463  22.233  0.00  0.00    +0.000 A 
ATOM     20  C   UNL     1      -1.201  12.624  22.911  0.00  0.00    +0.000 A 
ATOM     21  C   UNL     1      -0.587  13.820  22.579  0.00  0.00    +0.000 A 
ATOM     22  N   UNL     1       0.365  13.929  21.631  0.00  0.00    +0.000 NA
ATOM     23  C   UNL     1       0.722  12.782  21.000  0.00  0.00    +0.000 A 
ENDBRANCH  12  18
BRANCH   7  24
ATOM     24  N   UNL     1       1.529   2.164  22.372  0.00  0.00    +0.000 NA
ATOM     25  H   UNL     1       2.454   2.395  22.735  0.00  0.00    +0.000 HD
ATOM     26  H   UNL     1       1.560   1.164  22.166  0.00  0.00    +0.000 HD
ENDBRANCH   7  24
BRANCH   1  27
ATOM     27  C   UNL     1       3.607   6.226  17.492  0.00  0.00    +0.000 C 
BRANCH  27  33
ATOM     28  C   UNL     1       5.910   5.451  18.391  0.00  0.00    +0.000 A 
ATOM     29  C   UNL     1       7.272   5.742  18.577  0.00  0.00    +0.000 A 
ATOM     30  C   UNL     1       7.841   6.902  18.051  0.00  0.00    +0.000 A 
ATOM     31  C   UNL     1       7.056   7.790  17.329  0.00  0.00    +0.000 A 
ATOM     32  C   UNL     1       5.701   7.528  17.159  0.00  0.00    +0.000 A 
ATOM     33  C   UNL     1       5.104   6.353  17.667  0.00  0.00    +0.000 A 
BRANCH  28  35
ATOM     34  N   UNL     1       5.035   3.246  19.445  0.00  0.00    +0.000 NA
ATOM     35  C   UNL     1       5.405   4.238  18.970  0.00  0.00    +0.000 C 
ENDBRANCH  28  35
ENDBRANCH  27  33
ENDBRANCH   1  27
TORSDOF 5
ENDMDL
MODEL 4
REMARK VINA RESULT:      -7.5      2.164      4.763
REMARK  Name = 
REMARK  5 active torsions:
REMARK  status: ('A' for Active; 'I' for Inactive)
REMARK    1  A    between atoms: C_2  and  C_3
REMARK    2  A    between atoms: C_8  and  C_9
REMARK    3  A    between atoms: C_9  and  N_10
REMARK    4  A    between atoms: C_16  and  N_17
REMARK    5  A    between atoms: C_22  and  C_23
REMARK                            x       y       z     vdW  Elec       q    Type
REMARK                         _______ _______ _______ _____ _____    ______ ____
ROOT
ATOM      1  N   UNL     1       3.071   6.073  19.576  0.00  0.00    +0.000 N 
ATOM      2  C   UNL     1       3.814   6.486  18.428  0.00  0.00    +0.000 A 
ATOM      3  N   UNL     1       4.802   5.671  17.851  0.00  0.00    +0.000 N 
ATOM      4  C   UNL     1       5.729   4.821  18.589  0.00  0.00    +0.000 C 
ATOM      5  C   UNL     1       7.156   4.914  18.079  0.00  0.00    +0.000 C 
ATOM      6  C   UNL     1       7.228   4.626  16.590  0.00  0.00    +0.000 C 
ATOM      7  C   UNL     1       6.273   5.552  15.826  0.00  0.00    +0.000 C 
ATOM      8  C   UNL     1       4.828   5.451  16.387  0.00  0.00    +0.000 C 
ATOM      9  N   UNL     1       3.591   7.658  17.849  0.00  0.00    +0.000 NA
ATOM     10  C   UNL     1       2.653   8.443  18.441  0.00  0.00    +0.000 A 
ATOM     11  N   UNL     1       2.247   9.684  18.000  0.00  0.00    +0.000 N 
ATOM     12  C   UNL     1       1.251  10.186  18.834  0.00  0.00    +0.000 A 
ATOM     13  C   UNL     1       1.092   9.254  19.847  0.00  0.00    +0.000 A 
ATOM     14  C   UNL     1       1.948   8.175  19.574  0.00  0.00    +0.000 A 
ATOM     15  C   UNL     1       2.166   6.930  20.237  0.00  0.00    +0.000 A 
ATOM     16  O   UNL     1       1.606   6.683  21.305  0.00  0.00    +0.000 OA
ATOM     17  H   UNL     1       2.623  10.149  17.187  0.00  0.00    +0.000 HD
ENDROOT
BRANCH  12  18
ATOM     18  C   UNL     1       0.512  11.435  18.626  0.00  0.00    +0.000 A 
ATOM     19  C   UNL     1      -0.880  11.465  18.529  0.00  0.00    +0.000 A 
ATOM     20  C   UNL     1      -1.547  12.688  18.429  0.00  0.00    +0.000 A 
ATOM     21  C   UNL     1      -0.801  13.855  18.422  0.00  0.00    +0.000 A 
ATOM     22  N   UNL     1       0.544  13.877  18.506  0.00  0.00    +0.000 NA
ATOM     23  C   UNL     1       1.162  12.673  18.615  0.00  0.00    +0.000 A 
ENDBRANCH  12  18
BRANCH   7  24
ATOM     24  N   UNL     1       6.364   5.227  14.394  0.00  0.00    +0.000 NA
ATOM     25  H   UNL     1       6.164   4.238  14.243  0.00  0.00    +0.000 HD
ATOM     26  H   UNL     1       7.330   5.360  14.088  0.00  0.00    +0.000 HD
ENDBRANCH   7  24
BRANCH   1  27
ATOM     27  C   UNL     1       3.202   4.796  20.263  0.00  0.00    +0.000 C 
BRANCH  27  33
ATOM     28  C   UNL     1       2.937   2.283  19.687  0.00  0.00    +0.000 A 
ATOM     29  C   UNL     1       2.162   1.276  19.087  0.00  0.00    +0.000 A 
ATOM     30  C   UNL     1       0.899   1.553  18.566  0.00  0.00    +0.000 A 
ATOM     31  C   UNL     1       0.389   2.842  18.636  0.00  0.00    +0.000 A 
ATOM     32  C   UNL     1       1.156   3.854  19.204  0.00  0.00    +0.000 A 
ATOM     33  C   UNL     1       2.431   3.597  19.754  0.00  0.00    +0.000 A 
BRANCH  28  35
ATOM     34  N   UNL     1       5.256   1.608  20.640  0.00  0.00    +0.000 NA
ATOM     35  C   UNL     1       4.230   1.913  20.195  0.00  0.00    +0.000 C 
ENDBRANCH  28  35
ENDBRANCH  27  33
ENDBRANCH   1  27
TORSDOF 5
ENDMDL
MODEL 5
REMARK VINA RESULT:      -7.3      4.100     11.343
REMARK  Name = 
REMARK  5 active torsions:
REMARK  status: ('A' for Active; 'I' for Inactive)
REMARK    1  A    between atoms: C_2  and  C_3
REMARK    2  A    between atoms: C_8  and  C_9
REMARK    3  A    between atoms: C_9  and  N_10
REMARK    4  A    between atoms: C_16  and  N_17
REMARK    5  A    between atoms: C_22  and  C_23
REMARK                            x       y       z     vdW  Elec       q    Type
REMARK                         _______ _______ _______ _____ _____    ______ ____
ROOT
ATOM      1  N   UNL     1      -3.150  13.227  20.869  0.00  0.00    +0.000 N 
ATOM      2  C   UNL     1      -2.099  13.651  21.738  0.00  0.00    +0.000 A 
ATOM      3  N   UNL     1      -2.279  14.688  22.667  0.00  0.00    +0.000 N 
ATOM      4  C   UNL     1      -3.064  15.896  22.441  0.00  0.00    +0.000 C 
ATOM      5  C   UNL     1      -2.368  17.158  22.920  0.00  0.00    +0.000 C 
ATOM      6  C   UNL     1      -1.963  17.042  24.379  0.00  0.00    +0.000 C 
ATOM      7  C   UNL     1      -1.109  15.786  24.593  0.00  0.00    +0.000 C 
ATOM      8  C   UNL     1      -1.840  14.518  24.072  0.00  0.00    +0.000 C 
ATOM      9  N   UNL     1      -0.907  13.072  21.710  0.00  0.00    +0.000 NA
ATOM     10  C   UNL     1      -0.745  12.092  20.782  0.00  0.00    +0.000 A 
ATOM     11  N   UNL     1       0.396  11.345  20.592  0.00  0.00    +0.000 N 
ATOM     12  C   UNL     1       0.195  10.415  19.574  0.00  0.00    +0.000 A 
ATOM     13  C   UNL     1      -1.082  10.646  19.089  0.00  0.00    +0.000 A 
ATOM     14  C   UNL     1      -1.655  11.668  19.863  0.00  0.00    +0.000 A 
ATOM     15  C   UNL     1      -2.947  12.274  19.848  0.00  0.00    +0.000 A 
ATOM     16  O   UNL     1      -3.770  11.973  18.984  0.00  0.00    +0.000 OA
ATOM     17  H   UNL     1       1.247  11.462  21.121  0.00  0.00    +0.000 HD
ENDROOT
BRANCH  12  18
ATOM     18  C   UNL     1       1.152   9.385  19.157  0.00  0.00    +0.000 A 
ATOM     19  C   UNL     1       1.493   8.313  19.983  0.00  0.00    +0.000 A 
ATOM     20  C   UNL     1       2.334   7.304  19.506  0.00  0.00    +0.000 A 
ATOM     21  C   UNL     1       2.819   7.398  18.212  0.00  0.00    +0.000 A 
ATOM     22  N   UNL     1       2.524   8.416  17.380  0.00  0.00    +0.000 NA
ATOM     23  C   UNL     1       1.695   9.373  17.868  0.00  0.00    +0.000 A 
ENDBRANCH  12  18
BRANCH   7  24
ATOM     24  N   UNL     1      -0.756  15.708  26.018  0.00  0.00    +0.000 NA
ATOM     25  H   UNL     1       0.076  16.267  26.208  0.00  0.00    +0.000 HD
ATOM     26  H   UNL     1      -0.493  14.746  26.240  0.00  0.00    +0.000 HD
ENDBRANCH   7  24
BRANCH   1  27
ATOM     27  C   UNL     1      -4.505  13.760  20.844  0.00  0.00    +0.000 C 
BRANCH  27  33
ATOM     28  C   UNL     1      -6.758  12.535  21.213  0.00  0.00    +0.000 A 
ATOM     29  C   UNL     1      -7.726  12.074  22.122  0.00  0.00    +0.000 A 
ATOM     30  C   UNL     1      -7.528  12.174  23.499  0.00  0.00    +0.000 A 
ATOM     31  C   UNL     1      -6.360  12.739  23.990  0.00  0.00    +0.000 A 
ATOM     32  C   UNL     1      -5.405  13.224  23.101  0.00  0.00    +0.000 A 
ATOM     33  C   UNL     1      -5.572  13.118  21.703  0.00  0.00    +0.000 A 
BRANCH  28  35
ATOM     34  N   UNL     1      -7.247  12.254  18.679  0.00  0.00    +0.000 NA
ATOM     35  C   UNL     1      -7.043  12.396  19.812  0.00  0.00    +0.000 C 
ENDBRANCH  28  35
ENDBRANCH  27  33
ENDBRANCH   1  27
TORSDOF 5
ENDMDL
MODEL 6
REMARK VINA RESULT:      -7.0      1.063      1.273
REMARK  Name = 
REMARK  5 active torsions:
REMARK  status: ('A' for Active; 'I' for Inactive)
REMARK    1  A    between atoms: C_2  and  C_3
REMARK    2  A    between atoms: C_8  and  C_9
REMARK    3  A    between atoms: C_9  and  N_10
REMARK    4  A    between atoms: C_16  and  N_17
REMARK    5  A    between atoms: C_22  and  C_23
REMARK                            x       y       z     vdW  Elec       q    Type
REMARK                         _______ _______ _______ _____ _____    ______ ____
ROOT
ATOM      1  N   UNL     1       2.719   7.132  18.183  0.00  0.00    +0.000 N 
ATOM      2  C   UNL     1       2.243   6.337  19.270  0.00  0.00    +0.000 A 
ATOM      3  N   UNL     1       2.464   4.951  19.328  0.00  0.00    +0.000 N 
ATOM      4  C   UNL     1       2.437   4.045  18.186  0.00  0.00    +0.000 C 
ATOM      5  C   UNL     1       1.676   2.760  18.462  0.00  0.00    +0.000 C 
ATOM      6  C   UNL     1       2.214   2.058  19.696  0.00  0.00    +0.000 C 
ATOM      7  C   UNL     1       2.202   3.014  20.896  0.00  0.00    +0.000 C 
ATOM      8  C   UNL     1       2.968   4.326  20.572  0.00  0.00    +0.000 C 
ATOM      9  N   UNL     1       1.579   6.881  20.281  0.00  0.00    +0.000 NA
ATOM     10  C   UNL     1       1.349   8.217  20.189  0.00  0.00    +0.000 A 
ATOM     11  N   UNL     1       0.703   8.989  21.129  0.00  0.00    +0.000 N 
ATOM     12  C   UNL     1       0.673  10.319  20.718  0.00  0.00    +0.000 A 
ATOM     13  C   UNL     1       1.261  10.347  19.464  0.00  0.00    +0.000 A 
ATOM     14  C   UNL     1       1.694   9.045  19.166  0.00  0.00    +0.000 A 
ATOM     15  C   UNL     1       2.398   8.499  18.050  0.00  0.00    +0.000 A 
ATOM     16  O   UNL     1       2.658   9.198  17.071  0.00  0.00    +0.000 OA
ATOM     17  H   UNL     1       0.314   8.630  21.989  0.00  0.00    +0.000 HD
ENDROOT
BRANCH  12  18
ATOM     18  C   UNL     1       0.153  11.444  21.502  0.00  0.00    +0.000 A 
ATOM     19  C   UNL     1       0.403  12.771  21.149  0.00  0.00    +0.000 A 
ATOM     20  C   UNL     1      -0.194  13.810  21.868  0.00  0.00    +0.000 A 
ATOM     21  C   UNL     1      -1.024  13.492  22.931  0.00  0.00    +0.000 A 
ATOM     22  N   UNL     1      -1.289  12.228  23.314  0.00  0.00    +0.000 NA
ATOM     23  C   UNL     1      -0.705  11.241  22.588  0.00  0.00    +0.000 A 
ENDBRANCH  12  18
BRANCH   7  24
ATOM     24  N   UNL     1       2.745   2.297  22.060  0.00  0.00    +0.000 NA
ATOM     25  H   UNL     1       3.381   2.901  22.581  0.00  0.00    +0.000 HD
ATOM     26  H   UNL     1       3.318   1.519  21.729  0.00  0.00    +0.000 HD
ENDBRANCH   7  24
BRANCH   1  27
ATOM     27  C   UNL     1       3.493   6.649  17.047  0.00  0.00    +0.000 C 
BRANCH  27  33
ATOM     28  C   UNL     1       5.821   5.523  16.886  0.00  0.00    +0.000 A 
ATOM     29  C   UNL     1       7.206   5.620  17.104  0.00  0.00    +0.000 A 
ATOM     30  C   UNL     1       7.785   6.810  17.544  0.00  0.00    +0.000 A 
ATOM     31  C   UNL     1       6.989   7.923  17.774  0.00  0.00    +0.000 A 
ATOM     32  C   UNL     1       5.613   7.834  17.587  0.00  0.00    +0.000 A 
ATOM     33  C   UNL     1       5.004   6.646  17.125  0.00  0.00    +0.000 A 
BRANCH  28  35
ATOM     34  N   UNL     1       4.918   3.239  16.044  0.00  0.00    +0.000 NA
ATOM     35  C   UNL     1       5.306   4.259  16.437  0.00  0.00    +0.000 C 
ENDBRANCH  28  35
ENDBRANCH  27  33
ENDBRANCH   1  27
TORSDOF 5
ENDMDL
MODEL 7
REMARK VINA RESULT:      -6.9      3.012     10.146
REMARK  Name = 
REMARK  5 active torsions:
REMARK  status: ('A' for Active; 'I' for Inactive)
REMARK    1  A    between atoms: C_2  and  C_3
REMARK    2  A    between atoms: C_8  and  C_9
REMARK    3  A    between atoms: C_9  and  N_10
REMARK    4  A    between atoms: C_16  and  N_17
REMARK    5  A    between atoms: C_22  and  C_23
REMARK                            x       y       z     vdW  Elec       q    Type
REMARK                         _______ _______ _______ _____ _____    ______ ____
ROOT
ATOM      1  N   UNL     1      -0.613  12.011  19.041  0.00  0.00    +0.000 N 
ATOM      2  C   UNL     1       0.654  12.669  19.072  0.00  0.00    +0.000 A 
ATOM      3  N   UNL     1       0.775  14.033  19.385  0.00  0.00    +0.000 N 
ATOM      4  C   UNL     1      -0.158  15.076  18.976  0.00  0.00    +0.000 C 
ATOM      5  C   UNL     1       0.534  16.327  18.463  0.00  0.00    +0.000 C 
ATOM      6  C   UNL     1       1.529  16.860  19.478  0.00  0.00    +0.000 C 
ATOM      7  C   UNL     1       2.524  15.760  19.871  0.00  0.00    +0.000 C 
ATOM      8  C   UNL     1       1.784  14.488  20.368  0.00  0.00    +0.000 C 
ATOM      9  N   UNL     1       1.777  12.011  18.818  0.00  0.00    +0.000 NA
ATOM     10  C   UNL     1       1.636  10.701  18.487  0.00  0.00    +0.000 A 
ATOM     11  N   UNL     1       2.662   9.826  18.207  0.00  0.00    +0.000 N 
ATOM     12  C   UNL     1       2.151   8.559  17.937  0.00  0.00    +0.000 A 
ATOM     13  C   UNL     1       0.771   8.681  17.992  0.00  0.00    +0.000 A 
ATOM     14  C   UNL     1       0.474  10.004  18.357  0.00  0.00    +0.000 A 
ATOM     15  C   UNL     1      -0.760  10.676  18.608  0.00  0.00    +0.000 A 
ATOM     16  O   UNL     1      -1.834  10.103  18.426  0.00  0.00    +0.000 OA
ATOM     17  H   UNL     1       3.639  10.079  18.204  0.00  0.00    +0.000 HD
ENDROOT
BRANCH  12  18
ATOM     18  C   UNL     1       2.946   7.351  17.691  0.00  0.00    +0.000 A 
ATOM     19  C   UNL     1       4.207   7.404  17.097  0.00  0.00    +0.000 A 
ATOM     20  C   UNL     1       4.970   6.240  16.971  0.00  0.00    +0.000 A 
ATOM     21  C   UNL     1       4.444   5.047  17.439  0.00  0.00    +0.000 A 
ATOM     22  N   UNL     1       3.229   4.944  18.013  0.00  0.00    +0.000 NA
ATOM     23  C   UNL     1       2.519   6.095  18.132  0.00  0.00    +0.000 A 
ENDBRANCH  12  18
BRANCH   7  24
ATOM     24  N   UNL     1       3.455  16.316  20.865  0.00  0.00    +0.000 NA
ATOM     25  H   UNL     1       4.197  15.646  21.067  0.00  0.00    +0.000 HD
ATOM     26  H   UNL     1       2.956  16.445  21.747  0.00  0.00    +0.000 HD
ENDBRANCH   7  24
BRANCH   1  27
ATOM     27  C   UNL     1      -1.900  12.623  19.345  0.00  0.00    +0.000 C 
BRANCH  27  33
ATOM     28  C   UNL     1      -3.795  12.771  21.106  0.00  0.00    +0.000 A 
ATOM     29  C   UNL     1      -4.159  12.767  22.462  0.00  0.00    +0.000 A 
ATOM     30  C   UNL     1      -3.218  12.519  23.462  0.00  0.00    +0.000 A 
ATOM     31  C   UNL     1      -1.896  12.273  23.120  0.00  0.00    +0.000 A 
ATOM     32  C   UNL     1      -1.516  12.300  21.782  0.00  0.00    +0.000 A 
ATOM     33  C   UNL     1      -2.452  12.530  20.750  0.00  0.00    +0.000 A 
BRANCH  28  35
ATOM     34  N   UNL     1      -5.671  13.217  19.367  0.00  0.00    +0.000 NA
ATOM     35  C   UNL     1      -4.826  13.039  20.141  0.00  0.00    +0.000 C 
ENDBRANCH  28  35
ENDBRANCH  27  33
ENDBRANCH   1  27
TORSDOF 5
ENDMDL
MODEL 8
REMARK VINA RESULT:      -6.8      3.010     10.743
REMARK  Name = 
REMARK  5 active torsions:
REMARK  status: ('A' for Active; 'I' for Inactive)
REMARK    1  A    between atoms: C_2  and  C_3
REMARK    2  A    between atoms: C_8  and  C_9
REMARK    3  A    between atoms: C_9  and  N_10
REMARK    4  A    between atoms: C_16  and  N_17
REMARK    5  A    between atoms: C_22  and  C_23
REMARK                            x       y       z     vdW  Elec       q    Type
REMARK                         _______ _______ _______ _____ _____    ______ ____
ROOT
ATOM      1  N   UNL     1      -0.397  12.208  22.102  0.00  0.00    +0.000 N 
ATOM      2  C   UNL     1       0.247  12.687  20.920  0.00  0.00    +0.000 A 
ATOM      3  N   UNL     1       0.233  14.046  20.566  0.00  0.00    +0.000 N 
ATOM      4  C   UNL     1      -0.895  14.952  20.750  0.00  0.00    +0.000 C 
ATOM      5  C   UNL     1      -1.154  15.833  19.540  0.00  0.00    +0.000 C 
ATOM      6  C   UNL     1       0.094  16.598  19.139  0.00  0.00    +0.000 C 
ATOM      7  C   UNL     1       1.261  15.628  18.916  0.00  0.00    +0.000 C 
ATOM      8  C   UNL     1       1.484  14.727  20.162  0.00  0.00    +0.000 C 
ATOM      9  N   UNL     1       0.899  11.864  20.110  0.00  0.00    +0.000 NA
ATOM     10  C   UNL     1       0.875  10.550  20.455  0.00  0.00    +0.000 A 
ATOM     11  N   UNL     1       1.500   9.528  19.775  0.00  0.00    +0.000 N 
ATOM     12  C   UNL     1       1.284   8.316  20.428  0.00  0.00    +0.000 A 
ATOM     13  C   UNL     1       0.452   8.599  21.499  0.00  0.00    +0.000 A 
ATOM     14  C   UNL     1       0.230   9.986  21.513  0.00  0.00    +0.000 A 
ATOM     15  C   UNL     1      -0.496  10.834  22.403  0.00  0.00    +0.000 A 
ATOM     16  O   UNL     1      -1.155  10.355  23.325  0.00  0.00    +0.000 OA
ATOM     17  H   UNL     1       2.036   9.652  18.929  0.00  0.00    +0.000 HD
ENDROOT
BRANCH  12  18
ATOM     18  C   UNL     1       1.872   7.026  20.052  0.00  0.00    +0.000 A 
ATOM     19  C   UNL     1       1.611   5.857  20.767  0.00  0.00    +0.000 A 
ATOM     20  C   UNL     1       2.114   4.635  20.315  0.00  0.00    +0.000 A 
ATOM     21  C   UNL     1       2.874   4.615  19.157  0.00  0.00    +0.000 A 
ATOM     22  N   UNL     1       3.158   5.718  18.436  0.00  0.00    +0.000 NA
ATOM     23  C   UNL     1       2.645   6.887  18.895  0.00  0.00    +0.000 A 
ENDBRANCH  12  18
BRANCH   7  24
ATOM     24  N   UNL     1       2.448  16.413  18.547  0.00  0.00    +0.000 NA
ATOM     25  H   UNL     1       3.196  15.795  18.230  0.00  0.00    +0.000 HD
ATOM     26  H   UNL     1       2.812  16.872  19.384  0.00  0.00    +0.000 HD
ENDBRANCH   7  24
BRANCH   1  27
ATOM     27  C   UNL     1      -1.101  13.025  23.081  0.00  0.00    +0.000 C 
BRANCH  27  33
ATOM     28  C   UNL     1      -3.387  13.996  23.818  0.00  0.00    +0.000 A 
ATOM     29  C   UNL     1      -4.776  14.051  23.614  0.00  0.00    +0.000 A 
ATOM     30  C   UNL     1      -5.373  13.407  22.531  0.00  0.00    +0.000 A 
ATOM     31  C   UNL     1      -4.589  12.694  21.634  0.00  0.00    +0.000 A 
ATOM     32  C   UNL     1      -3.216  12.609  21.838  0.00  0.00    +0.000 A 
ATOM     33  C   UNL     1      -2.585  13.267  22.917  0.00  0.00    +0.000 A 
BRANCH  28  35
ATOM     34  N   UNL     1      -2.413  15.271  25.859  0.00  0.00    +0.000 NA
ATOM     35  C   UNL     1      -2.855  14.685  24.961  0.00  0.00    +0.000 C 
ENDBRANCH  28  35
ENDBRANCH  27  33
ENDBRANCH   1  27
TORSDOF 5
ENDMDL
MODEL 9
REMARK VINA RESULT:      -6.8      3.275     10.725
REMARK  Name = 
REMARK  5 active torsions:
REMARK  status: ('A' for Active; 'I' for Inactive)
REMARK    1  A    between atoms: C_2  and  C_3
REMARK    2  A    between atoms: C_8  and  C_9
REMARK    3  A    between atoms: C_9  and  N_10
REMARK    4  A    between atoms: C_16  and  N_17
REMARK    5  A    between atoms: C_22  and  C_23
REMARK                            x       y       z     vdW  Elec       q    Type
REMARK                         _______ _______ _______ _____ _____    ______ ____
ROOT
ATOM      1  N   UNL     1      -0.793  13.223  19.914  0.00  0.00    +0.000 N 
ATOM      2  C   UNL     1       0.396  13.799  19.371  0.00  0.00    +0.000 A 
ATOM      3  N   UNL     1       0.577  15.189  19.291  0.00  0.00    +0.000 N 
ATOM      4  C   UNL     1      -0.466  16.158  18.972  0.00  0.00    +0.000 C 
ATOM      5  C   UNL     1      -0.015  17.213  17.978  0.00  0.00    +0.000 C 
ATOM      6  C   UNL     1       1.246  17.913  18.453  0.00  0.00    +0.000 C 
ATOM      7  C   UNL     1       2.343  16.883  18.749  0.00  0.00    +0.000 C 
ATOM      8  C   UNL     1       1.842  15.806  19.751  0.00  0.00    +0.000 C 
ATOM      9  N   UNL     1       1.388  13.039  18.929  0.00  0.00    +0.000 NA
ATOM     10  C   UNL     1       1.179  11.697  18.987  0.00  0.00    +0.000 A 
ATOM     11  N   UNL     1       2.077  10.726  18.605  0.00  0.00    +0.000 N 
ATOM     12  C   UNL     1       1.539   9.461  18.829  0.00  0.00    +0.000 A 
ATOM     13  C   UNL     1       0.253   9.668  19.301  0.00  0.00    +0.000 A 
ATOM     14  C   UNL     1       0.058  11.055  19.415  0.00  0.00    +0.000 A 
ATOM     15  C   UNL     1      -1.040  11.834  19.887  0.00  0.00    +0.000 A 
ATOM     16  O   UNL     1      -2.099  11.295  20.208  0.00  0.00    +0.000 OA
ATOM     17  H   UNL     1       2.992  10.916  18.222  0.00  0.00    +0.000 HD
ENDROOT
BRANCH  12  18
ATOM     18  C   UNL     1       2.239   8.187  18.632  0.00  0.00    +0.000 A 
ATOM     19  C   UNL     1       3.059   7.956  17.528  0.00  0.00    +0.000 A 
ATOM     20  C   UNL     1       3.783   6.765  17.432  0.00  0.00    +0.000 A 
ATOM     21  C   UNL     1       3.661   5.828  18.446  0.00  0.00    +0.000 A 
ATOM     22  N   UNL     1       2.877   6.003  19.528  0.00  0.00    +0.000 NA
ATOM     23  C   UNL     1       2.196   7.176  19.597  0.00  0.00    +0.000 A 
ENDBRANCH  12  18
BRANCH   7  24
ATOM     24  N   UNL     1       3.535  17.604  19.221  0.00  0.00    +0.000 NA
ATOM     25  H   UNL     1       3.318  18.132  20.065  0.00  0.00    +0.000 HD
ATOM     26  H   UNL     1       3.795  18.302  18.522  0.00  0.00    +0.000 HD
ENDBRANCH   7  24
BRANCH   1  27
ATOM     27  C   UNL     1      -1.923  13.959  20.467  0.00  0.00    +0.000 C 
BRANCH  27  33
ATOM     28  C   UNL     1      -3.091  13.745  22.770  0.00  0.00    +0.000 A 
ATOM     29  C   UNL     1      -3.111  14.099  24.129  0.00  0.00    +0.000 A 
ATOM     30  C   UNL     1      -2.082  14.851  24.695  0.00  0.00    +0.000 A 
ATOM     31  C   UNL     1      -1.014  15.262  23.909  0.00  0.00    +0.000 A 
ATOM     32  C   UNL     1      -0.993  14.940  22.556  0.00  0.00    +0.000 A 
ATOM     33  C   UNL     1      -2.014  14.166  21.963  0.00  0.00    +0.000 A 
BRANCH  28  35
ATOM     34  N   UNL     1      -5.076  12.322  21.890  0.00  0.00    +0.000 NA
ATOM     35  C   UNL     1      -4.193  12.973  22.267  0.00  0.00    +0.000 C 
ENDBRANCH  28  35
ENDBRANCH  27  33
ENDBRANCH   1  27
TORSDOF 5
ENDMDL
