MODEL 1
REMARK VINA RESULT:      -8.3      0.000      0.000
REMARK  Name = 
REMARK  7 active torsions:
REMARK  status: ('A' for Active; 'I' for Inactive)
REMARK    1  A    between atoms: C_2  and  O_3
REMARK    2  A    between atoms: C_2  and  C_4
REMARK    3  A    between atoms: C_4  and  C_5
REMARK    4  A    between atoms: C_8  and  C_9
REMARK    5  A    between atoms: C_12  and  O_13
REMARK    6  A    between atoms: O_13  and  C_14
REMARK    7  A    between atoms: C_14  and  C_15
REMARK                            x       y       z     vdW  Elec       q    Type
REMARK                         _______ _______ _______ _____ _____    ______ ____
ROOT
ATOM      1  C   UNL     1       2.509   6.816  19.228  0.00  0.00    +0.000 A 
ATOM      2  C   UNL     1       1.937   7.101  20.479  0.00  0.00    +0.000 A 
ATOM      3  C   UNL     1       1.248   8.305  20.727  0.00  0.00    +0.000 A 
ATOM      4  C   UNL     1       1.113   9.267  19.730  0.00  0.00    +0.000 A 
ATOM      5  C   UNL     1       1.668   8.988  18.476  0.00  0.00    +0.000 A 
ATOM      6  C   UNL     1       2.365   7.786  18.228  0.00  0.00    +0.000 A 
ENDROOT
BRANCH   1  10
ATOM      7  C   UNL     1       5.495   5.474  18.101  0.00  0.00    +0.000 C 
ATOM      8  C   UNL     1       4.627   4.599  17.197  0.00  0.00    +0.000 C 
ATOM      9  C   UNL     1       3.192   4.985  17.552  0.00  0.00    +0.000 C 
ATOM     10  C   UNL     1       3.221   5.483  19.013  0.00  0.00    +0.000 C 
ATOM     11  C   UNL     1       4.709   5.454  19.418  0.00  0.00    +0.000 C 
BRANCH   7  12
ATOM     12  C   UNL     1       6.931   4.960  18.246  0.00  0.00    +0.000 C 
BRANCH  12  14
ATOM     13  O   UNL     1       8.216   6.964  18.729  0.00  0.00    +0.000 OA
ATOM     14  C   UNL     1       7.790   5.876  19.091  0.00  0.00    +0.000 C 
BRANCH  14  15
ATOM     15  O   UNL     1       8.018   5.391  20.332  0.00  0.00    +0.000 OA
ATOM     16  H   UNL     1       7.576   5.889  21.045  0.00  0.00    +0.000 HD
ENDBRANCH  14  15
ENDBRANCH  12  14
ENDBRANCH   7  12
ENDBRANCH   1  10
BRANCH   4  17
ATOM     17  O   UNL     1       0.435  10.458  19.848  0.00  0.00    +0.000 OA
BRANCH  17  18
ATOM     18  C   UNL     1       0.057  11.134  18.629  0.00  0.00    +0.000 C 
BRANCH  18  19
ATOM     19  C   UNL     1      -1.443  11.093  18.332  0.00  0.00    +0.000 A 
ATOM     20  C   UNL     1      -1.973  10.164  17.446  0.00  0.00    +0.000 A 
ATOM     21  C   UNL     1      -3.350  10.129  17.242  0.00  0.00    +0.000 A 
ATOM     22  C   UNL     1      -4.192  10.944  18.001  0.00  0.00    +0.000 A 
ATOM     23  C   UNL     1      -5.592  10.839  17.885  0.00  0.00    +0.000 A 
ATOM     24  C   UNL     1      -6.428  11.552  18.740  0.00  0.00    +0.000 A 
ATOM     25  C   UNL     1      -5.865  12.408  19.678  0.00  0.00    +0.000 A 
ATOM     26  C   UNL     1      -4.470  12.559  19.738  0.00  0.00    +0.000 A 
ATOM     27  C   UNL     1      -3.601  11.824  18.927  0.00  0.00    +0.000 A 
ATOM     28  N   UNL     1      -2.252  11.923  19.059  0.00  0.00    +0.000 NA
ENDBRANCH  18  19
ENDBRANCH  17  18
ENDBRANCH   4  17
TORSDOF 7
ENDMDL
MODEL 2
REMARK VINA RESULT:      -8.2      1.444      1.731
REMARK  Name = 
REMARK  7 active torsions:
REMARK  status: ('A' for Active; 'I' for Inactive)
REMARK    1  A    between atoms: C_2  and  O_3
REMARK    2  A    between atoms: C_2  and  C_4
REMARK    3  A    between atoms: C_4  and  C_5
REMARK    4  A    between atoms: C_8  and  C_9
REMARK    5  A    between atoms: C_12  and  O_13
REMARK    6  A    between atoms: O_13  and  C_14
REMARK    7  A    between atoms: C_14  and  C_15
REMARK                            x       y       z     vdW  Elec       q    Type
REMARK                         _______ _______ _______ _____ _____    ______ ____
ROOT
ATOM      1  C   UNL     1       2.536   6.557  19.000  0.00  0.00    +0.000 A 
ATOM      2  C   UNL     1       2.025   7.013  20.227  0.00  0.00    +0.000 A 
ATOM      3  C   UNL     1       1.526   8.321  20.387  0.00  0.00    +0.000 A 
ATOM      4  C   UNL     1       1.525   9.219  19.324  0.00  0.00    +0.000 A 
ATOM      5  C   UNL     1       2.019   8.772  18.093  0.00  0.00    +0.000 A 
ATOM      6  C   UNL     1       2.527   7.465  17.933  0.00  0.00    +0.000 A 
ENDROOT
BRANCH   1  10
ATOM      7  C   UNL     1       4.272   4.447  16.874  0.00  0.00    +0.000 C 
ATOM      8  C   UNL     1       3.083   3.500  17.030  0.00  0.00    +0.000 C 
ATOM      9  C   UNL     1       2.148   4.215  18.005  0.00  0.00    +0.000 C 
ATOM     10  C   UNL     1       3.039   5.122  18.881  0.00  0.00    +0.000 C 
ATOM     11  C   UNL     1       4.461   4.964  18.305  0.00  0.00    +0.000 C 
BRANCH   7  12
ATOM     12  C   UNL     1       5.521   3.765  16.306  0.00  0.00    +0.000 C 
BRANCH  12  14
ATOM     13  O   UNL     1       7.758   4.622  16.709  0.00  0.00    +0.000 OA
ATOM     14  C   UNL     1       6.679   4.725  16.142  0.00  0.00    +0.000 C 
BRANCH  14  15
ATOM     15  O   UNL     1       6.424   5.714  15.256  0.00  0.00    +0.000 OA
ATOM     16  H   UNL     1       5.688   6.301  15.510  0.00  0.00    +0.000 HD
ENDBRANCH  14  15
ENDBRANCH  12  14
ENDBRANCH   7  12
ENDBRANCH   1  10
BRANCH   4  17
ATOM     17  O   UNL     1       1.034  10.504  19.356  0.00  0.00    +0.000 OA
BRANCH  17  18
ATOM     18  C   UNL     1      -0.218  10.721  20.042  0.00  0.00    +0.000 C 
BRANCH  18  19
ATOM     19  C   UNL     1      -1.400  11.001  19.113  0.00  0.00    +0.000 A 
ATOM     20  C   UNL     1      -1.460  10.443  17.842  0.00  0.00    +0.000 A 
ATOM     21  C   UNL     1      -2.577  10.684  17.047  0.00  0.00    +0.000 A 
ATOM     22  C   UNL     1      -3.669  11.385  17.565  0.00  0.00    +0.000 A 
ATOM     23  C   UNL     1      -4.849  11.539  16.811  0.00  0.00    +0.000 A 
ATOM     24  C   UNL     1      -5.981  12.116  17.380  0.00  0.00    +0.000 A 
ATOM     25  C   UNL     1      -5.917  12.584  18.686  0.00  0.00    +0.000 A 
ATOM     26  C   UNL     1      -4.715  12.491  19.405  0.00  0.00    +0.000 A 
ATOM     27  C   UNL     1      -3.575  11.876  18.880  0.00  0.00    +0.000 A 
ATOM     28  N   UNL     1      -2.447  11.720  19.623  0.00  0.00    +0.000 NA
ENDBRANCH  18  19
ENDBRANCH  17  18
ENDBRANCH   4  17
TORSDOF 7
ENDMDL
MODEL 3
REMARK VINA RESULT:      -8.1      6.869     10.018
REMARK  Name = 
REMARK  7 active torsions:
REMARK  status: ('A' for Active; 'I' for Inactive)
REMARK    1  A    between atoms: C_2  and  O_3
REMARK    2  A    between atoms: C_2  and  C_4
REMARK    3  A    between atoms: C_4  and  C_5
REMARK    4  A    between atoms: C_8  and  C_9
REMARK    5  A    between atoms: C_12  and  O_13
REMARK    6  A    between atoms: O_13  and  C_14
REMARK    7  A    between atoms: C_14  and  C_15
REMARK                            x       y       z     vdW  Elec       q    Type
REMARK                         _______ _______ _______ _____ _____    ______ ____
ROOT
ATOM      1  C   UNL     1       4.978   5.180  17.642  0.00  0.00    +0.000 A 
ATOM      2  C   UNL     1       5.016   6.376  16.905  0.00  0.00    +0.000 A 
ATOM      3  C   UNL     1       6.056   7.314  17.058  0.00  0.00    +0.000 A 
ATOM      4  C   UNL     1       7.094   7.087  17.959  0.00  0.00    +0.000 A 
ATOM      5  C   UNL     1       7.074   5.893  18.688  0.00  0.00    +0.000 A 
ATOM      6  C   UNL     1       6.028   4.956  18.542  0.00  0.00    +0.000 A 
ENDROOT
BRANCH   1  10
ATOM      7  C   UNL     1       2.859   3.030  19.335  0.00  0.00    +0.000 C 
ATOM      8  C   UNL     1       3.326   1.970  18.339  0.00  0.00    +0.000 C 
ATOM      9  C   UNL     1       4.283   2.713  17.407  0.00  0.00    +0.000 C 
ATOM     10  C   UNL     1       3.839   4.191  17.414  0.00  0.00    +0.000 C 
ATOM     11  C   UNL     1       2.687   4.261  18.438  0.00  0.00    +0.000 C 
BRANCH   7  12
ATOM     12  C   UNL     1       1.577   2.640  20.080  0.00  0.00    +0.000 C 
BRANCH  12  14
ATOM     13  O   UNL     1       0.893   2.493  22.406  0.00  0.00    +0.000 OA
ATOM     14  C   UNL     1       1.790   2.528  21.574  0.00  0.00    +0.000 C 
BRANCH  14  15
ATOM     15  O   UNL     1       3.093   2.427  21.917  0.00  0.00    +0.000 OA
ATOM     16  H   UNL     1       3.261   1.862  22.694  0.00  0.00    +0.000 HD
ENDBRANCH  14  15
ENDBRANCH  12  14
ENDBRANCH   7  12
ENDBRANCH   1  10
BRANCH   4  17
ATOM     17  O   UNL     1       8.175   7.913  18.165  0.00  0.00    +0.000 OA
BRANCH  17  18
ATOM     18  C   UNL     1       8.136   9.225  17.563  0.00  0.00    +0.000 C 
BRANCH  18  19
ATOM     19  C   UNL     1       8.878  10.299  18.359  0.00  0.00    +0.000 A 
ATOM     20  C   UNL     1       9.226  10.094  19.688  0.00  0.00    +0.000 A 
ATOM     21  C   UNL     1       9.945  11.078  20.361  0.00  0.00    +0.000 A 
ATOM     22  C   UNL     1      10.404  12.205  19.675  0.00  0.00    +0.000 A 
ATOM     23  C   UNL     1      11.226  13.153  20.315  0.00  0.00    +0.000 A 
ATOM     24  C   UNL     1      11.793  14.199  19.593  0.00  0.00    +0.000 A 
ATOM     25  C   UNL     1      11.497  14.327  18.243  0.00  0.00    +0.000 A 
ATOM     26  C   UNL     1      10.619  13.418  17.630  0.00  0.00    +0.000 A 
ATOM     27  C   UNL     1      10.070  12.330  18.314  0.00  0.00    +0.000 A 
ATOM     28  N   UNL     1       9.290  11.414  17.681  0.00  0.00    +0.000 NA
ENDBRANCH  18  19
ENDBRANCH  17  18
ENDBRANCH   4  17
TORSDOF 7
ENDMDL
MODEL 4
REMARK VINA RESULT:      -8.1      1.395      1.807
REMARK  Name = 
REMARK  7 active torsions:
REMARK  status: ('A' for Active; 'I' for Inactive)
REMARK    1  A    between atoms: C_2  and  O_3
REMARK    2  A    between atoms: C_2  and  C_4
REMARK    3  A    between atoms: C_4  and  C_5
REMARK    4  A    between atoms: C_8  and  C_9
REMARK    5  A    between atoms: C_12  and  O_13
REMARK    6  A    between atoms: O_13  and  C_14
REMARK    7  A    between atoms: C_14  and  C_15
REMARK                            x       y       z     vdW  Elec       q    Type
REMARK                         _______ _______ _______ _____ _____    ______ ____
ROOT
ATOM      1  C   UNL     1       2.516   6.917  19.014  0.00  0.00    +0.000 A 
ATOM      2  C   UNL     1       2.613   7.709  17.858  0.00  0.00    +0.000 A 
ATOM      3  C   UNL     1       2.112   9.026  17.811  0.00  0.00    +0.000 A 
ATOM      4  C   UNL     1       1.494   9.592  18.922  0.00  0.00    +0.000 A 
ATOM      5  C   UNL     1       1.403   8.818  20.084  0.00  0.00    +0.000 A 
ATOM      6  C   UNL     1       1.897   7.496  20.130  0.00  0.00    +0.000 A 
ENDROOT
BRANCH   1  10
ATOM      7  C   UNL     1       4.212   4.675  16.994  0.00  0.00    +0.000 C 
ATOM      8  C   UNL     1       3.103   3.688  17.355  0.00  0.00    +0.000 C 
ATOM      9  C   UNL     1       2.203   4.458  18.321  0.00  0.00    +0.000 C 
ATOM     10  C   UNL     1       3.100   5.507  19.012  0.00  0.00    +0.000 C 
ATOM     11  C   UNL     1       4.480   5.363  18.337  0.00  0.00    +0.000 C 
BRANCH   7  12
ATOM     12  C   UNL     1       5.453   4.001  16.400  0.00  0.00    +0.000 C 
BRANCH  12  14
ATOM     13  O   UNL     1       6.462   6.004  15.466  0.00  0.00    +0.000 OA
ATOM     14  C   UNL     1       6.572   4.985  16.134  0.00  0.00    +0.000 C 
BRANCH  14  15
ATOM     15  O   UNL     1       7.728   4.652  16.751  0.00  0.00    +0.000 OA
ATOM     16  H   UNL     1       8.084   5.345  17.337  0.00  0.00    +0.000 HD
ENDBRANCH  14  15
ENDBRANCH  12  14
ENDBRANCH   7  12
ENDBRANCH   1  10
BRANCH   4  17
ATOM     17  O   UNL     1       1.001  10.874  19.002  0.00  0.00    +0.000 OA
BRANCH  17  18
ATOM     18  C   UNL     1      -0.173  11.088  19.815  0.00  0.00    +0.000 C 
BRANCH  18  19
ATOM     19  C   UNL     1      -1.469  11.233  19.015  0.00  0.00    +0.000 A 
ATOM     20  C   UNL     1      -1.641  10.573  17.805  0.00  0.00    +0.000 A 
ATOM     21  C   UNL     1      -2.855  10.693  17.134  0.00  0.00    +0.000 A 
ATOM     22  C   UNL     1      -3.919  11.378  17.725  0.00  0.00    +0.000 A 
ATOM     23  C   UNL     1      -5.185  11.413  17.108  0.00  0.00    +0.000 A 
ATOM     24  C   UNL     1      -6.276  11.977  17.763  0.00  0.00    +0.000 A 
ATOM     25  C   UNL     1      -6.090  12.551  19.014  0.00  0.00    +0.000 A 
ATOM     26  C   UNL     1      -4.809  12.575  19.589  0.00  0.00    +0.000 A 
ATOM     27  C   UNL     1      -3.703  11.977  18.980  0.00  0.00    +0.000 A 
ATOM     28  N   UNL     1      -2.490  11.938  19.591  0.00  0.00    +0.000 NA
ENDBRANCH  18  19
ENDBRANCH  17  18
ENDBRANCH   4  17
TORSDOF 7
ENDMDL
MODEL 5
REMARK VINA RESULT:      -8.1      6.743      9.815
REMARK  Name = 
REMARK  7 active torsions:
REMARK  status: ('A' for Active; 'I' for Inactive)
REMARK    1  A    between atoms: C_2  and  O_3
REMARK    2  A    between atoms: C_2  and  C_4
REMARK    3  A    between atoms: C_4  and  C_5
REMARK    4  A    between atoms: C_8  and  C_9
REMARK    5  A    between atoms: C_12  and  O_13
REMARK    6  A    between atoms: O_13  and  C_14
REMARK    7  A    between atoms: C_14  and  C_15
REMARK                            x       y       z     vdW  Elec       q    Type
REMARK                         _______ _______ _______ _____ _____    ______ ____
ROOT
ATOM      1  C   UNL     1       5.008   5.282  17.486  0.00  0.00    +0.000 A 
ATOM      2  C   UNL     1       6.005   4.875  18.389  0.00  0.00    +0.000 A 
ATOM      3  C   UNL     1       7.108   5.694  18.702  0.00  0.00    +0.000 A 
ATOM      4  C   UNL     1       7.251   6.950  18.118  0.00  0.00    +0.000 A 
ATOM      5  C   UNL     1       6.258   7.372  17.227  0.00  0.00    +0.000 A 
ATOM      6  C   UNL     1       5.157   6.549  16.906  0.00  0.00    +0.000 A 
ENDROOT
BRANCH   1  10
ATOM      7  C   UNL     1       2.884   3.030  19.035  0.00  0.00    +0.000 C 
ATOM      8  C   UNL     1       3.269   2.070  17.911  0.00  0.00    +0.000 C 
ATOM      9  C   UNL     1       4.213   2.878  17.021  0.00  0.00    +0.000 C 
ATOM     10  C   UNL     1       3.825   4.361  17.206  0.00  0.00    +0.000 C 
ATOM     11  C   UNL     1       2.720   4.356  18.284  0.00  0.00    +0.000 C 
BRANCH   7  12
ATOM     12  C   UNL     1       1.622   2.603  19.792  0.00  0.00    +0.000 C 
BRANCH  12  14
ATOM     13  O   UNL     1       1.566   2.472  22.217  0.00  0.00    +0.000 OA
ATOM     14  C   UNL     1       1.580   3.153  21.201  0.00  0.00    +0.000 C 
BRANCH  14  15
ATOM     15  O   UNL     1       1.602   4.505  21.242  0.00  0.00    +0.000 OA
ATOM     16  H   UNL     1       1.553   4.933  20.367  0.00  0.00    +0.000 HD
ENDBRANCH  14  15
ENDBRANCH  12  14
ENDBRANCH   7  12
ENDBRANCH   1  10
BRANCH   4  17
ATOM     17  O   UNL     1       8.264   7.845  18.374  0.00  0.00    +0.000 OA
BRANCH  17  18
ATOM     18  C   UNL     1       8.216   9.118  17.693  0.00  0.00    +0.000 C 
BRANCH  18  19
ATOM     19  C   UNL     1       8.847  10.270  18.478  0.00  0.00    +0.000 A 
ATOM     20  C   UNL     1       9.335  10.078  19.764  0.00  0.00    +0.000 A 
ATOM     21  C   UNL     1       9.946  11.141  20.423  0.00  0.00    +0.000 A 
ATOM     22  C   UNL     1      10.164  12.349  19.756  0.00  0.00    +0.000 A 
ATOM     23  C   UNL     1      10.879  13.394  20.373  0.00  0.00    +0.000 A 
ATOM     24  C   UNL     1      11.213  14.540  19.658  0.00  0.00    +0.000 A 
ATOM     25  C   UNL     1      10.787  14.665  18.342  0.00  0.00    +0.000 A 
ATOM     26  C   UNL     1      10.012  13.648  17.759  0.00  0.00    +0.000 A 
ATOM     27  C   UNL     1       9.700  12.465  18.433  0.00  0.00    +0.000 A 
ATOM     28  N   UNL     1       9.021  11.458  17.822  0.00  0.00    +0.000 NA
ENDBRANCH  18  19
ENDBRANCH  17  18
ENDBRANCH   4  17
TORSDOF 7
ENDMDL
MODEL 6
REMARK VINA RESULT:      -8.1      0.260      1.134
REMARK  Name = 
REMARK  7 active torsions:
REMARK  status: ('A' for Active; 'I' for Inactive)
REMARK    1  A    between atoms: C_2  and  O_3
REMARK    2  A    between atoms: C_2  and  C_4
REMARK    3  A    between atoms: C_4  and  C_5
REMARK    4  A    between atoms: C_8  and  C_9
REMARK    5  A    between atoms: C_12  and  O_13
REMARK    6  A    between atoms: O_13  and  C_14
REMARK    7  A    between atoms: C_14  and  C_15
REMARK                            x       y       z     vdW  Elec       q    Type
REMARK                         _______ _______ _______ _____ _____    ______ ____
ROOT
ATOM      1  C   UNL     1       2.324   6.918  19.354  0.00  0.00    +0.000 A 
ATOM      2  C   UNL     1       2.299   7.826  18.282  0.00  0.00    +0.000 A 
ATOM      3  C   UNL     1       1.707   9.099  18.397  0.00  0.00    +0.000 A 
ATOM      4  C   UNL     1       1.116   9.505  19.590  0.00  0.00    +0.000 A 
ATOM      5  C   UNL     1       1.146   8.615  20.669  0.00  0.00    +0.000 A 
ATOM      6  C   UNL     1       1.732   7.335  20.553  0.00  0.00    +0.000 A 
ENDROOT
BRANCH   1  10
ATOM      7  C   UNL     1       5.186   5.452  18.070  0.00  0.00    +0.000 C 
ATOM      8  C   UNL     1       4.234   4.526  17.315  0.00  0.00    +0.000 C 
ATOM      9  C   UNL     1       2.839   4.959  17.765  0.00  0.00    +0.000 C 
ATOM     10  C   UNL     1       3.003   5.563  19.176  0.00  0.00    +0.000 C 
ATOM     11  C   UNL     1       4.521   5.542  19.449  0.00  0.00    +0.000 C 
BRANCH   7  12
ATOM     12  C   UNL     1       6.625   4.929  18.125  0.00  0.00    +0.000 C 
BRANCH  12  14
ATOM     13  O   UNL     1       7.730   5.358  20.245  0.00  0.00    +0.000 OA
ATOM     14  C   UNL     1       7.485   5.706  19.098  0.00  0.00    +0.000 C 
BRANCH  14  15
ATOM     15  O   UNL     1       8.008   6.831  18.561  0.00  0.00    +0.000 OA
ATOM     16  H   UNL     1       8.426   7.428  19.209  0.00  0.00    +0.000 HD
ENDBRANCH  14  15
ENDBRANCH  12  14
ENDBRANCH   7  12
ENDBRANCH   1  10
BRANCH   4  17
ATOM     17  O   UNL     1       0.541  10.733  19.826  0.00  0.00    +0.000 OA
BRANCH  17  18
ATOM     18  C   UNL     1       0.091  11.489  18.682  0.00  0.00    +0.000 C 
BRANCH  18  19
ATOM     19  C   UNL     1      -1.400  11.335  18.379  0.00  0.00    +0.000 A 
ATOM     20  C   UNL     1      -1.853  10.376  17.483  0.00  0.00    +0.000 A 
ATOM     21  C   UNL     1      -3.223  10.236  17.274  0.00  0.00    +0.000 A 
ATOM     22  C   UNL     1      -4.129  10.976  18.037  0.00  0.00    +0.000 A 
ATOM     23  C   UNL     1      -5.516  10.764  17.915  0.00  0.00    +0.000 A 
ATOM     24  C   UNL     1      -6.407  11.401  18.773  0.00  0.00    +0.000 A 
ATOM     25  C   UNL     1      -5.915  12.289  19.720  0.00  0.00    +0.000 A 
ATOM     26  C   UNL     1      -4.536  12.548  19.787  0.00  0.00    +0.000 A 
ATOM     27  C   UNL     1      -3.611  11.891  18.972  0.00  0.00    +0.000 A 
ATOM     28  N   UNL     1      -2.274  12.093  19.110  0.00  0.00    +0.000 NA
ENDBRANCH  18  19
ENDBRANCH  17  18
ENDBRANCH   4  17
TORSDOF 7
ENDMDL
MODEL 7
REMARK VINA RESULT:      -8.0      2.155      2.676
REMARK  Name = 
REMARK  7 active torsions:
REMARK  status: ('A' for Active; 'I' for Inactive)
REMARK    1  A    between atoms: C_2  and  O_3
REMARK    2  A    between atoms: C_2  and  C_4
REMARK    3  A    between atoms: C_4  and  C_5
REMARK    4  A    between atoms: C_8  and  C_9
REMARK    5  A    between atoms: C_12  and  O_13
REMARK    6  A    between atoms: O_13  and  C_14
REMARK    7  A    between atoms: C_14  and  C_15
REMARK                            x       y       z     vdW  Elec       q    Type
REMARK                         _______ _______ _______ _____ _____    ______ ____
ROOT
ATOM      1  C   UNL     1       2.905   6.522  18.906  0.00  0.00    +0.000 A 
ATOM      2  C   UNL     1       2.242   6.858  20.098  0.00  0.00    +0.000 A 
ATOM      3  C   UNL     1       1.595   8.098  20.268  0.00  0.00    +0.000 A 
ATOM      4  C   UNL     1       1.592   9.047  19.249  0.00  0.00    +0.000 A 
ATOM      5  C   UNL     1       2.238   8.718  18.052  0.00  0.00    +0.000 A 
ATOM      6  C   UNL     1       2.894   7.479  17.883  0.00  0.00    +0.000 A 
ENDROOT
BRANCH   1  10
ATOM      7  C   UNL     1       4.673   4.559  16.669  0.00  0.00    +0.000 C 
ATOM      8  C   UNL     1       3.630   3.483  16.967  0.00  0.00    +0.000 C 
ATOM      9  C   UNL     1       2.712   4.116  18.013  0.00  0.00    +0.000 C 
ATOM     10  C   UNL     1       3.566   5.154  18.772  0.00  0.00    +0.000 C 
ATOM     11  C   UNL     1       4.935   5.147  18.061  0.00  0.00    +0.000 C 
BRANCH   7  12
ATOM     12  C   UNL     1       5.935   4.010  15.996  0.00  0.00    +0.000 C 
BRANCH  12  14
ATOM     13  O   UNL     1       7.397   5.950  15.974  0.00  0.00    +0.000 OA
ATOM     14  C   UNL     1       7.171   4.808  16.350  0.00  0.00    +0.000 C 
BRANCH  14  15
ATOM     15  O   UNL     1       8.011   4.144  17.176  0.00  0.00    +0.000 OA
ATOM     16  H   UNL     1       7.571   3.703  17.926  0.00  0.00    +0.000 HD
ENDBRANCH  14  15
ENDBRANCH  12  14
ENDBRANCH   7  12
ENDBRANCH   1  10
BRANCH   4  17
ATOM     17  O   UNL     1       0.966  10.271  19.290  0.00  0.00    +0.000 OA
BRANCH  17  18
ATOM     18  C   UNL     1       0.770  10.875  20.587  0.00  0.00    +0.000 C 
BRANCH  18  19
ATOM     19  C   UNL     1      -0.586  11.563  20.756  0.00  0.00    +0.000 A 
ATOM     20  C   UNL     1      -1.375  11.872  19.656  0.00  0.00    +0.000 A 
ATOM     21  C   UNL     1      -2.624  12.453  19.858  0.00  0.00    +0.000 A 
ATOM     22  C   UNL     1      -3.119  12.619  21.153  0.00  0.00    +0.000 A 
ATOM     23  C   UNL     1      -4.425  13.102  21.369  0.00  0.00    +0.000 A 
ATOM     24  C   UNL     1      -4.964  13.136  22.652  0.00  0.00    +0.000 A 
ATOM     25  C   UNL     1      -4.179  12.735  23.725  0.00  0.00    +0.000 A 
ATOM     26  C   UNL     1      -2.854  12.323  23.508  0.00  0.00    +0.000 A 
ATOM     27  C   UNL     1      -2.298  12.233  22.229  0.00  0.00    +0.000 A 
ATOM     28  N   UNL     1      -1.042  11.752  22.033  0.00  0.00    +0.000 NA
ENDBRANCH  18  19
ENDBRANCH  17  18
ENDBRANCH   4  17
TORSDOF 7
ENDMDL
MODEL 8
REMARK VINA RESULT:      -8.0      1.679      2.673
REMARK  Name = 
REMARK  7 active torsions:
REMARK  status: ('A' for Active; 'I' for Inactive)
REMARK    1  A    between atoms: C_2  and  O_3
REMARK    2  A    between atoms: C_2  and  C_4
REMARK    3  A    between atoms: C_4  and  C_5
REMARK    4  A    between atoms: C_8  and  C_9
REMARK    5  A    between atoms: C_12  and  O_13
REMARK    6  A    between atoms: O_13  and  C_14
REMARK    7  A    between atoms: C_14  and  C_15
REMARK                            x       y       z     vdW  Elec       q    Type
REMARK                         _______ _______ _______ _____ _____    ______ ____
ROOT
ATOM      1  C   UNL     1       2.583   5.675  19.239  0.00  0.00    +0.000 A 
ATOM      2  C   UNL     1       2.694   6.822  18.435  0.00  0.00    +0.000 A 
ATOM      3  C   UNL     1       2.206   8.076  18.854  0.00  0.00    +0.000 A 
ATOM      4  C   UNL     1       1.587   8.223  20.092  0.00  0.00    +0.000 A 
ATOM      5  C   UNL     1       1.483   7.090  20.907  0.00  0.00    +0.000 A 
ATOM      6  C   UNL     1       1.964   5.832  20.486  0.00  0.00    +0.000 A 
ENDROOT
BRANCH   1  10
ATOM      7  C   UNL     1       4.618   4.337  16.779  0.00  0.00    +0.000 C 
ATOM      8  C   UNL     1       3.459   3.382  16.501  0.00  0.00    +0.000 C 
ATOM      9  C   UNL     1       2.397   3.754  17.536  0.00  0.00    +0.000 C 
ATOM     10  C   UNL     1       3.154   4.350  18.742  0.00  0.00    +0.000 C 
ATOM     11  C   UNL     1       4.634   4.386  18.310  0.00  0.00    +0.000 C 
BRANCH   7  12
ATOM     12  C   UNL     1       5.947   3.871  16.173  0.00  0.00    +0.000 C 
BRANCH  12  14
ATOM     13  O   UNL     1       7.619   5.194  17.337  0.00  0.00    +0.000 OA
ATOM     14  C   UNL     1       7.035   4.915  16.298  0.00  0.00    +0.000 C 
BRANCH  14  15
ATOM     15  O   UNL     1       7.345   5.500  15.120  0.00  0.00    +0.000 OA
ATOM     16  H   UNL     1       6.571   5.759  14.585  0.00  0.00    +0.000 HD
ENDBRANCH  14  15
ENDBRANCH  12  14
ENDBRANCH   7  12
ENDBRANCH   1  10
BRANCH   4  17
ATOM     17  O   UNL     1       1.106   9.400  20.616  0.00  0.00    +0.000 OA
BRANCH  17  18
ATOM     18  C   UNL     1       0.993  10.530  19.724  0.00  0.00    +0.000 C 
BRANCH  18  19
ATOM     19  C   UNL     1      -0.427  10.785  19.217  0.00  0.00    +0.000 A 
ATOM     20  C   UNL     1      -1.264  11.690  19.857  0.00  0.00    +0.000 A 
ATOM     21  C   UNL     1      -2.532  11.929  19.333  0.00  0.00    +0.000 A 
ATOM     22  C   UNL     1      -2.911  11.350  18.120  0.00  0.00    +0.000 A 
ATOM     23  C   UNL     1      -4.146  11.670  17.522  0.00  0.00    +0.000 A 
ATOM     24  C   UNL     1      -4.459  11.200  16.251  0.00  0.00    +0.000 A 
ATOM     25  C   UNL     1      -3.560  10.368  15.597  0.00  0.00    +0.000 A 
ATOM     26  C   UNL     1      -2.363   9.996  16.230  0.00  0.00    +0.000 A 
ATOM     27  C   UNL     1      -1.997  10.487  17.486  0.00  0.00    +0.000 A 
ATOM     28  N   UNL     1      -0.796  10.182  18.045  0.00  0.00    +0.000 NA
ENDBRANCH  18  19
ENDBRANCH  17  18
ENDBRANCH   4  17
TORSDOF 7
ENDMDL
MODEL 9
REMARK VINA RESULT:      -7.9      0.719      1.428
REMARK  Name = 
REMARK  7 active torsions:
REMARK  status: ('A' for Active; 'I' for Inactive)
REMARK    1  A    between atoms: C_2  and  O_3
REMARK    2  A    between atoms: C_2  and  C_4
REMARK    3  A    between atoms: C_4  and  C_5
REMARK    4  A    between atoms: C_8  and  C_9
REMARK    5  A    between atoms: C_12  and  O_13
REMARK    6  A    between atoms: O_13  and  C_14
REMARK    7  A    between atoms: C_14  and  C_15
REMARK                            x       y       z     vdW  Elec       q    Type
REMARK                         _______ _______ _______ _____ _____    ______ ____
ROOT
ATOM      1  C   UNL     1       2.532   6.846  19.092  0.00  0.00    +0.000 A 
ATOM      2  C   UNL     1       1.986   7.216  20.332  0.00  0.00    +0.000 A 
ATOM      3  C   UNL     1       1.295   8.431  20.511  0.00  0.00    +0.000 A 
ATOM      4  C   UNL     1       1.130   9.320  19.451  0.00  0.00    +0.000 A 
ATOM      5  C   UNL     1       1.658   8.956  18.208  0.00  0.00    +0.000 A 
ATOM      6  C   UNL     1       2.358   7.743  18.029  0.00  0.00    +0.000 A 
ENDROOT
BRANCH   1  10
ATOM      7  C   UNL     1       5.540   5.455  18.093  0.00  0.00    +0.000 C 
ATOM      8  C   UNL     1       4.692   4.539  17.213  0.00  0.00    +0.000 C 
ATOM      9  C   UNL     1       3.249   4.940  17.518  0.00  0.00    +0.000 C 
ATOM     10  C   UNL     1       3.248   5.506  18.954  0.00  0.00    +0.000 C 
ATOM     11  C   UNL     1       4.727   5.498  19.391  0.00  0.00    +0.000 C 
BRANCH   7  12
ATOM     12  C   UNL     1       6.973   4.950  18.291  0.00  0.00    +0.000 C 
BRANCH  12  14
ATOM     13  O   UNL     1       8.217   6.989  18.733  0.00  0.00    +0.000 OA
ATOM     14  C   UNL     1       7.811   5.901  19.118  0.00  0.00    +0.000 C 
BRANCH  14  15
ATOM     15  O   UNL     1       8.045   5.448  20.370  0.00  0.00    +0.000 OA
ATOM     16  H   UNL     1       8.445   6.108  20.967  0.00  0.00    +0.000 HD
ENDBRANCH  14  15
ENDBRANCH  12  14
ENDBRANCH   7  12
ENDBRANCH   1  10
BRANCH   4  17
ATOM     17  O   UNL     1       0.447  10.513  19.501  0.00  0.00    +0.000 OA
BRANCH  17  18
ATOM     18  C   UNL     1      -0.461  10.806  18.417  0.00  0.00    +0.000 C 
BRANCH  18  19
ATOM     19  C   UNL     1      -1.831  11.314  18.870  0.00  0.00    +0.000 A 
ATOM     20  C   UNL     1      -1.952  12.182  19.948  0.00  0.00    +0.000 A 
ATOM     21  C   UNL     1      -3.213  12.660  20.296  0.00  0.00    +0.000 A 
ATOM     22  C   UNL     1      -4.322  12.357  19.503  0.00  0.00    +0.000 A 
ATOM     23  C   UNL     1      -5.582  12.923  19.779  0.00  0.00    +0.000 A 
ATOM     24  C   UNL     1      -6.650  12.729  18.909  0.00  0.00    +0.000 A 
ATOM     25  C   UNL     1      -6.474  11.927  17.790  0.00  0.00    +0.000 A 
ATOM     26  C   UNL     1      -5.233  11.308  17.561  0.00  0.00    +0.000 A 
ATOM     27  C   UNL     1      -4.127  11.519  18.389  0.00  0.00    +0.000 A 
ATOM     28  N   UNL     1      -2.914  10.979  18.103  0.00  0.00    +0.000 NA
ENDBRANCH  18  19
ENDBRANCH  17  18
ENDBRANCH   4  17
TORSDOF 7
ENDMDL
