MODEL 1
REMARK VINA RESULT:      -9.0      0.000      0.000
REMARK  Name = 
REMARK  7 active torsions:
REMARK  status: ('A' for Active; 'I' for Inactive)
REMARK    1  A    between atoms: N_2  and  C_4
REMARK    2  A    between atoms: C_11  and  O_12
REMARK    3  A    between atoms: O_12  and  C_13
REMARK    4  A    between atoms: C_13  and  C_14
REMARK    5  A    between atoms: C_17  and  C_18
REMARK    6  A    between atoms: C_21  and  O_22
REMARK    7  A    between atoms: O_22  and  C_23
REMARK                            x       y       z     vdW  Elec       q    Type
REMARK                         _______ _______ _______ _____ _____    ______ ____
ROOT
ATOM      1  C   UNL     1       2.606   7.121  18.766  0.00  0.00    +0.000 A 
ATOM      2  C   UNL     1       2.205   6.828  20.051  0.00  0.00    +0.000 A 
ATOM      3  N   UNL     1       1.479   7.665  20.817  0.00  0.00    +0.000 NA
ATOM      4  C   UNL     1       1.124   8.841  20.261  0.00  0.00    +0.000 A 
ATOM      5  N   UNL     1       1.431   9.207  19.002  0.00  0.00    +0.000 NA
ATOM      6  C   UNL     1       2.162   8.332  18.284  0.00  0.00    +0.000 A 
ENDROOT
BRANCH   4   7
ATOM      7  C   UNL     1       0.391   9.808  21.102  0.00  0.00    +0.000 A 
ATOM      8  C   UNL     1       0.253  11.152  20.717  0.00  0.00    +0.000 A 
ATOM      9  C   UNL     1      -0.469  12.062  21.494  0.00  0.00    +0.000 A 
ATOM     10  C   UNL     1      -1.079  11.656  22.681  0.00  0.00    +0.000 A 
ATOM     11  C   UNL     1      -0.916  10.343  23.110  0.00  0.00    +0.000 A 
ATOM     12  C   UNL     1      -0.206   9.428  22.319  0.00  0.00    +0.000 A 
BRANCH  10  13
ATOM     13  O   UNL     1      -1.735  12.642  23.348  0.00  0.00    +0.000 OA
BRANCH  13  14
ATOM     14  C   UNL     1      -3.152  12.619  23.410  0.00  0.00    +0.000 C 
ATOM     15  F   UNL     1      -3.662  11.760  24.317  0.00  0.00    +0.000 F 
ATOM     16  F   UNL     1      -3.604  13.862  23.689  0.00  0.00    +0.000 F 
ATOM     17  F   UNL     1      -3.628  12.265  22.195  0.00  0.00    +0.000 F 
ENDBRANCH  13  14
ENDBRANCH  10  13
ENDBRANCH   4   7
BRANCH   1  18
ATOM     18  C   UNL     1       3.493   6.220  17.980  0.00  0.00    +0.000 C 
BRANCH  18  19
ATOM     19  O   UNL     1       3.457   4.904  18.535  0.00  0.00    +0.000 OA
BRANCH  19  27
ATOM     20  C   UNL     1       6.889   4.781  14.246  0.00  0.00    +0.000 A 
ATOM     21  C   UNL     1       5.614   4.296  14.484  0.00  0.00    +0.000 A 
ATOM     22  N   UNL     1       5.516   4.280  15.845  0.00  0.00    +0.000 N 
ATOM     23  C   UNL     1       6.712   4.674  16.362  0.00  0.00    +0.000 A 
ATOM     24  N   UNL     1       7.566   5.010  15.429  0.00  0.00    +0.000 NA
ATOM     25  O   UNL     1       7.008   4.584  17.648  0.00  0.00    +0.000 OA
ATOM     26  C   UNL     1       5.909   4.774  18.527  0.00  0.00    +0.000 C 
ATOM     27  C   UNL     1       4.580   4.086  18.142  0.00  0.00    +0.000 C 
ATOM     28  C   UNL     1       4.436   3.765  16.648  0.00  0.00    +0.000 C 
BRANCH  20  30
ATOM     29  O   UNL     1       7.194   4.207  12.054  0.00  0.00    +0.000 OA
ATOM     30  N   UNL     1       7.530   4.979  12.965  0.00  0.00    +0.000 N 
ATOM     31  O   UNL     1       8.359   5.893  12.867  0.00  0.00    +0.000 OA
ENDBRANCH  20  30
ENDBRANCH  19  27
ENDBRANCH  18  19
ENDBRANCH   1  18
TORSDOF 7
ENDMDL
MODEL 2
REMARK VINA RESULT:      -9.0      0.254      1.042
REMARK  Name = 
REMARK  7 active torsions:
REMARK  status: ('A' for Active; 'I' for Inactive)
REMARK    1  A    between atoms: N_2  and  C_4
REMARK    2  A    between atoms: C_11  and  O_12
REMARK    3  A    between atoms: O_12  and  C_13
REMARK    4  A    between atoms: C_13  and  C_14
REMARK    5  A    between atoms: C_17  and  C_18
REMARK    6  A    between atoms: C_21  and  O_22
REMARK    7  A    between atoms: O_22  and  C_23
REMARK                            x       y       z     vdW  Elec       q    Type
REMARK                         _______ _______ _______ _____ _____    ______ ____
ROOT
ATOM      1  C   UNL     1       2.505   6.933  18.818  0.00  0.00    +0.000 A 
ATOM      2  C   UNL     1       2.245   8.212  18.382  0.00  0.00    +0.000 A 
ATOM      3  N   UNL     1       1.608   9.140  19.123  0.00  0.00    +0.000 NA
ATOM      4  C   UNL     1       1.235   8.772  20.364  0.00  0.00    +0.000 A 
ATOM      5  N   UNL     1       1.476   7.559  20.900  0.00  0.00    +0.000 NA
ATOM      6  C   UNL     1       2.111   6.671  20.111  0.00  0.00    +0.000 A 
ENDROOT
BRANCH   4   7
ATOM      7  C   UNL     1       0.471   9.744  21.172  0.00  0.00    +0.000 A 
ATOM      8  C   UNL     1       0.287  11.068  20.739  0.00  0.00    +0.000 A 
ATOM      9  C   UNL     1      -0.465  11.980  21.485  0.00  0.00    +0.000 A 
ATOM     10  C   UNL     1      -1.060  11.596  22.686  0.00  0.00    +0.000 A 
ATOM     11  C   UNL     1      -0.854  10.305  23.161  0.00  0.00    +0.000 A 
ATOM     12  C   UNL     1      -0.113   9.387  22.402  0.00  0.00    +0.000 A 
BRANCH  10  13
ATOM     13  O   UNL     1      -1.749  12.582  23.320  0.00  0.00    +0.000 OA
BRANCH  13  14
ATOM     14  C   UNL     1      -3.167  12.546  23.332  0.00  0.00    +0.000 C 
ATOM     15  F   UNL     1      -3.699  11.696  24.236  0.00  0.00    +0.000 F 
ATOM     16  F   UNL     1      -3.641  13.788  23.575  0.00  0.00    +0.000 F 
ATOM     17  F   UNL     1      -3.597  12.165  22.108  0.00  0.00    +0.000 F 
ENDBRANCH  13  14
ENDBRANCH  10  13
ENDBRANCH   4   7
BRANCH   1  18
ATOM     18  C   UNL     1       3.119   5.898  17.941  0.00  0.00    +0.000 C 
BRANCH  18  19
ATOM     19  O   UNL     1       3.241   4.669  18.658  0.00  0.00    +0.000 OA
BRANCH  19  27
ATOM     20  C   UNL     1       6.891   4.789  14.553  0.00  0.00    +0.000 A 
ATOM     21  C   UNL     1       5.638   4.225  14.723  0.00  0.00    +0.000 A 
ATOM     22  N   UNL     1       5.471   4.193  16.076  0.00  0.00    +0.000 N 
ATOM     23  C   UNL     1       6.612   4.656  16.657  0.00  0.00    +0.000 A 
ATOM     24  N   UNL     1       7.490   5.051  15.771  0.00  0.00    +0.000 NA
ATOM     25  O   UNL     1       6.846   4.574  17.956  0.00  0.00    +0.000 OA
ATOM     26  C   UNL     1       5.693   4.690  18.777  0.00  0.00    +0.000 C 
ATOM     27  C   UNL     1       4.431   3.924  18.321  0.00  0.00    +0.000 C 
ATOM     28  C   UNL     1       4.385   3.606  16.820  0.00  0.00    +0.000 C 
BRANCH  20  30
ATOM     29  O   UNL     1       8.509   5.861  13.345  0.00  0.00    +0.000 OA
ATOM     30  N   UNL     1       7.583   5.036  13.308  0.00  0.00    +0.000 N 
ATOM     31  O   UNL     1       7.210   4.415  12.304  0.00  0.00    +0.000 OA
ENDBRANCH  20  30
ENDBRANCH  19  27
ENDBRANCH  18  19
ENDBRANCH   1  18
TORSDOF 7
ENDMDL
MODEL 3
REMARK VINA RESULT:      -8.8      0.437      1.304
REMARK  Name = 
REMARK  7 active torsions:
REMARK  status: ('A' for Active; 'I' for Inactive)
REMARK    1  A    between atoms: N_2  and  C_4
REMARK    2  A    between atoms: C_11  and  O_12
REMARK    3  A    between atoms: O_12  and  C_13
REMARK    4  A    between atoms: C_13  and  C_14
REMARK    5  A    between atoms: C_17  and  C_18
REMARK    6  A    between atoms: C_21  and  O_22
REMARK    7  A    between atoms: O_22  and  C_23
REMARK                            x       y       z     vdW  Elec       q    Type
REMARK                         _______ _______ _______ _____ _____    ______ ____
ROOT
ATOM      1  C   UNL     1       2.482   7.283  19.038  0.00  0.00    +0.000 A 
ATOM      2  C   UNL     1       1.999   7.051  20.306  0.00  0.00    +0.000 A 
ATOM      3  N   UNL     1       1.222   7.920  20.981  0.00  0.00    +0.000 NA
ATOM      4  C   UNL     1       0.900   9.065  20.347  0.00  0.00    +0.000 A 
ATOM      5  N   UNL     1       1.289   9.371  19.093  0.00  0.00    +0.000 NA
ATOM      6  C   UNL     1       2.067   8.467  18.469  0.00  0.00    +0.000 A 
ENDROOT
BRANCH   4   7
ATOM      7  C   UNL     1       0.112  10.068  21.090  0.00  0.00    +0.000 A 
ATOM      8  C   UNL     1      -0.326   9.826  22.402  0.00  0.00    +0.000 A 
ATOM      9  C   UNL     1      -1.043  10.787  23.120  0.00  0.00    +0.000 A 
ATOM     10  C   UNL     1      -1.341  12.024  22.549  0.00  0.00    +0.000 A 
ATOM     11  C   UNL     1      -0.962  12.271  21.234  0.00  0.00    +0.000 A 
ATOM     12  C   UNL     1      -0.228  11.311  20.522  0.00  0.00    +0.000 A 
BRANCH  10  13
ATOM     13  O   UNL     1      -2.057  12.860  23.347  0.00  0.00    +0.000 OA
BRANCH  13  14
ATOM     14  C   UNL     1      -3.467  12.718  23.420  0.00  0.00    +0.000 C 
ATOM     15  F   UNL     1      -4.134  13.862  23.675  0.00  0.00    +0.000 F 
ATOM     16  F   UNL     1      -3.922  12.201  22.258  0.00  0.00    +0.000 F 
ATOM     17  F   UNL     1      -3.759  11.843  24.409  0.00  0.00    +0.000 F 
ENDBRANCH  13  14
ENDBRANCH  10  13
ENDBRANCH   4   7
BRANCH   1  18
ATOM     18  C   UNL     1       3.421   6.350  18.356  0.00  0.00    +0.000 C 
BRANCH  18  19
ATOM     19  O   UNL     1       3.256   5.033  18.881  0.00  0.00    +0.000 OA
BRANCH  19  27
ATOM     20  C   UNL     1       6.826   4.798  14.710  0.00  0.00    +0.000 A 
ATOM     21  C   UNL     1       5.496   4.449  14.871  0.00  0.00    +0.000 A 
ATOM     22  N   UNL     1       5.341   4.354  16.224  0.00  0.00    +0.000 N 
ATOM     23  C   UNL     1       6.552   4.573  16.807  0.00  0.00    +0.000 A 
ATOM     24  N   UNL     1       7.475   4.870  15.928  0.00  0.00    +0.000 NA
ATOM     25  O   UNL     1       6.782   4.364  18.092  0.00  0.00    +0.000 OA
ATOM     26  C   UNL     1       5.677   4.621  18.945  0.00  0.00    +0.000 C 
ATOM     27  C   UNL     1       4.296   4.118  18.469  0.00  0.00    +0.000 C 
ATOM     28  C   UNL     1       4.178   3.915  16.952  0.00  0.00    +0.000 C 
BRANCH  20  30
ATOM     29  O   UNL     1       8.448   5.847  13.488  0.00  0.00    +0.000 OA
ATOM     30  N   UNL     1       7.537   5.005  13.468  0.00  0.00    +0.000 N 
ATOM     31  O   UNL     1       7.192   4.338  12.484  0.00  0.00    +0.000 OA
ENDBRANCH  20  30
ENDBRANCH  19  27
ENDBRANCH  18  19
ENDBRANCH   1  18
TORSDOF 7
ENDMDL
MODEL 4
REMARK VINA RESULT:      -8.6      0.471      1.583
REMARK  Name = 
REMARK  7 active torsions:
REMARK  status: ('A' for Active; 'I' for Inactive)
REMARK    1  A    between atoms: N_2  and  C_4
REMARK    2  A    between atoms: C_11  and  O_12
REMARK    3  A    between atoms: O_12  and  C_13
REMARK    4  A    between atoms: C_13  and  C_14
REMARK    5  A    between atoms: C_17  and  C_18
REMARK    6  A    between atoms: C_21  and  O_22
REMARK    7  A    between atoms: O_22  and  C_23
REMARK                            x       y       z     vdW  Elec       q    Type
REMARK                         _______ _______ _______ _____ _____    ______ ____
ROOT
ATOM      1  C   UNL     1       2.544   6.898  18.757  0.00  0.00    +0.000 A 
ATOM      2  C   UNL     1       2.213   8.160  18.317  0.00  0.00    +0.000 A 
ATOM      3  N   UNL     1       1.526   9.054  19.055  0.00  0.00    +0.000 NA
ATOM      4  C   UNL     1       1.172   8.669  20.297  0.00  0.00    +0.000 A 
ATOM      5  N   UNL     1       1.479   7.473  20.836  0.00  0.00    +0.000 NA
ATOM      6  C   UNL     1       2.163   6.619  20.051  0.00  0.00    +0.000 A 
ENDROOT
BRANCH   4   7
ATOM      7  C   UNL     1       0.355   9.599  21.101  0.00  0.00    +0.000 A 
ATOM      8  C   UNL     1      -0.029   9.284  22.416  0.00  0.00    +0.000 A 
ATOM      9  C   UNL     1      -0.774  10.177  23.191  0.00  0.00    +0.000 A 
ATOM     10  C   UNL     1      -1.155  11.417  22.677  0.00  0.00    +0.000 A 
ATOM     11  C   UNL     1      -0.829  11.733  21.363  0.00  0.00    +0.000 A 
ATOM     12  C   UNL     1      -0.068  10.842  20.593  0.00  0.00    +0.000 A 
BRANCH  10  13
ATOM     13  O   UNL     1      -1.889  12.182  23.528  0.00  0.00    +0.000 OA
BRANCH  13  14
ATOM     14  C   UNL     1      -2.949  12.974  23.015  0.00  0.00    +0.000 C 
ATOM     15  F   UNL     1      -2.558  13.981  22.207  0.00  0.00    +0.000 F 
ATOM     16  F   UNL     1      -3.806  12.181  22.335  0.00  0.00    +0.000 F 
ATOM     17  F   UNL     1      -3.620  13.518  24.056  0.00  0.00    +0.000 F 
ENDBRANCH  13  14
ENDBRANCH  10  13
ENDBRANCH   4   7
BRANCH   1  18
ATOM     18  C   UNL     1       3.215   5.896  17.883  0.00  0.00    +0.000 C 
BRANCH  18  19
ATOM     19  O   UNL     1       3.465   4.702  18.625  0.00  0.00    +0.000 OA
BRANCH  19  27
ATOM     20  C   UNL     1       7.016   4.868  14.435  0.00  0.00    +0.000 A 
ATOM     21  C   UNL     1       5.872   4.139  14.710  0.00  0.00    +0.000 A 
ATOM     22  N   UNL     1       5.723   4.256  16.061  0.00  0.00    +0.000 N 
ATOM     23  C   UNL     1       6.779   4.965  16.546  0.00  0.00    +0.000 A 
ATOM     24  N   UNL     1       7.575   5.376  15.592  0.00  0.00    +0.000 NA
ATOM     25  O   UNL     1       7.033   5.090  17.838  0.00  0.00    +0.000 OA
ATOM     26  C   UNL     1       5.884   5.126  18.670  0.00  0.00    +0.000 C 
ATOM     27  C   UNL     1       4.757   4.118  18.351  0.00  0.00    +0.000 C 
ATOM     28  C   UNL     1       4.751   3.606  16.903  0.00  0.00    +0.000 C 
BRANCH  20  30
ATOM     29  O   UNL     1       8.594   5.862  13.113  0.00  0.00    +0.000 OA
ATOM     30  N   UNL     1       7.650   5.058  13.150  0.00  0.00    +0.000 N 
ATOM     31  O   UNL     1       7.213   4.415  12.187  0.00  0.00    +0.000 OA
ENDBRANCH  20  30
ENDBRANCH  19  27
ENDBRANCH  18  19
ENDBRANCH   1  18
TORSDOF 7
ENDMDL
MODEL 5
REMARK VINA RESULT:      -8.4      1.117      1.469
REMARK  Name = 
REMARK  7 active torsions:
REMARK  status: ('A' for Active; 'I' for Inactive)
REMARK    1  A    between atoms: N_2  and  C_4
REMARK    2  A    between atoms: C_11  and  O_12
REMARK    3  A    between atoms: O_12  and  C_13
REMARK    4  A    between atoms: C_13  and  C_14
REMARK    5  A    between atoms: C_17  and  C_18
REMARK    6  A    between atoms: C_21  and  O_22
REMARK    7  A    between atoms: O_22  and  C_23
REMARK                            x       y       z     vdW  Elec       q    Type
REMARK                         _______ _______ _______ _____ _____    ______ ____
ROOT
ATOM      1  C   UNL     1       2.505   7.330  18.954  0.00  0.00    +0.000 A 
ATOM      2  C   UNL     1       2.079   7.167  20.253  0.00  0.00    +0.000 A 
ATOM      3  N   UNL     1       1.277   8.042  20.892  0.00  0.00    +0.000 NA
ATOM      4  C   UNL     1       0.871   9.117  20.188  0.00  0.00    +0.000 A 
ATOM      5  N   UNL     1       1.200   9.349  18.902  0.00  0.00    +0.000 NA
ATOM      6  C   UNL     1       2.006   8.443  18.317  0.00  0.00    +0.000 A 
ENDROOT
BRANCH   4   7
ATOM      7  C   UNL     1       0.053  10.130  20.885  0.00  0.00    +0.000 A 
ATOM      8  C   UNL     1      -0.162  10.066  22.272  0.00  0.00    +0.000 A 
ATOM      9  C   UNL     1      -0.907  11.041  22.939  0.00  0.00    +0.000 A 
ATOM     10  C   UNL     1      -1.459  12.115  22.241  0.00  0.00    +0.000 A 
ATOM     11  C   UNL     1      -1.302  12.176  20.860  0.00  0.00    +0.000 A 
ATOM     12  C   UNL     1      -0.539  11.205  20.196  0.00  0.00    +0.000 A 
BRANCH  10  13
ATOM     13  O   UNL     1      -2.174  12.983  23.005  0.00  0.00    +0.000 OA
BRANCH  13  14
ATOM     14  C   UNL     1      -1.568  14.188  23.444  0.00  0.00    +0.000 C 
ATOM     15  F   UNL     1      -1.586  14.372  24.781  0.00  0.00    +0.000 F 
ATOM     16  F   UNL     1      -0.285  14.221  23.020  0.00  0.00    +0.000 F 
ATOM     17  F   UNL     1      -2.222  15.228  22.878  0.00  0.00    +0.000 F 
ENDBRANCH  13  14
ENDBRANCH  10  13
ENDBRANCH   4   7
BRANCH   1  18
ATOM     18  C   UNL     1       3.472   6.400  18.308  0.00  0.00    +0.000 C 
BRANCH  18  19
ATOM     19  O   UNL     1       3.288   5.080  18.822  0.00  0.00    +0.000 OA
BRANCH  19  27
ATOM     20  C   UNL     1       6.839   4.798  14.637  0.00  0.00    +0.000 A 
ATOM     21  C   UNL     1       5.507   4.458  14.806  0.00  0.00    +0.000 A 
ATOM     22  N   UNL     1       5.358   4.373  16.160  0.00  0.00    +0.000 N 
ATOM     23  C   UNL     1       6.572   4.587  16.737  0.00  0.00    +0.000 A 
ATOM     24  N   UNL     1       7.494   4.873  15.852  0.00  0.00    +0.000 NA
ATOM     25  O   UNL     1       6.806   4.385  18.022  0.00  0.00    +0.000 OA
ATOM     26  C   UNL     1       5.706   4.654  18.878  0.00  0.00    +0.000 C 
ATOM     27  C   UNL     1       4.320   4.157  18.411  0.00  0.00    +0.000 C 
ATOM     28  C   UNL     1       4.195   3.945  16.896  0.00  0.00    +0.000 C 
BRANCH  20  30
ATOM     29  O   UNL     1       7.177   4.299  12.432  0.00  0.00    +0.000 OA
ATOM     30  N   UNL     1       7.546   4.993  13.391  0.00  0.00    +0.000 N 
ATOM     31  O   UNL     1       8.460   5.828  13.368  0.00  0.00    +0.000 OA
ENDBRANCH  20  30
ENDBRANCH  19  27
ENDBRANCH  18  19
ENDBRANCH   1  18
TORSDOF 7
ENDMDL
MODEL 6
REMARK VINA RESULT:      -8.4      5.848     12.008
REMARK  Name = 
REMARK  7 active torsions:
REMARK  status: ('A' for Active; 'I' for Inactive)
REMARK    1  A    between atoms: N_2  and  C_4
REMARK    2  A    between atoms: C_11  and  O_12
REMARK    3  A    between atoms: O_12  and  C_13
REMARK    4  A    between atoms: C_13  and  C_14
REMARK    5  A    between atoms: C_17  and  C_18
REMARK    6  A    between atoms: C_21  and  O_22
REMARK    7  A    between atoms: O_22  and  C_23
REMARK                            x       y       z     vdW  Elec       q    Type
REMARK                         _______ _______ _______ _____ _____    ______ ____
ROOT
ATOM      1  C   UNL     1       2.166   7.293  19.768  0.00  0.00    +0.000 A 
ATOM      2  C   UNL     1       2.446   7.923  18.576  0.00  0.00    +0.000 A 
ATOM      3  N   UNL     1       3.164   7.362  17.584  0.00  0.00    +0.000 NA
ATOM      4  C   UNL     1       3.604   6.105  17.791  0.00  0.00    +0.000 A 
ATOM      5  N   UNL     1       3.353   5.388  18.903  0.00  0.00    +0.000 NA
ATOM      6  C   UNL     1       2.634   6.001  19.862  0.00  0.00    +0.000 A 
ENDROOT
BRANCH   4   7
ATOM      7  C   UNL     1       4.456   5.493  16.752  0.00  0.00    +0.000 A 
ATOM      8  C   UNL     1       4.592   4.098  16.648  0.00  0.00    +0.000 A 
ATOM      9  C   UNL     1       5.370   3.515  15.645  0.00  0.00    +0.000 A 
ATOM     10  C   UNL     1       6.035   4.308  14.709  0.00  0.00    +0.000 A 
ATOM     11  C   UNL     1       5.956   5.692  14.819  0.00  0.00    +0.000 A 
ATOM     12  C   UNL     1       5.161   6.274  15.817  0.00  0.00    +0.000 A 
BRANCH  10  13
ATOM     13  O   UNL     1       6.769   3.617  13.798  0.00  0.00    +0.000 OA
BRANCH  13  14
ATOM     14  C   UNL     1       6.291   3.490  12.469  0.00  0.00    +0.000 C 
ATOM     15  F   UNL     1       6.458   2.265  11.926  0.00  0.00    +0.000 F 
ATOM     16  F   UNL     1       4.977   3.801  12.437  0.00  0.00    +0.000 F 
ATOM     17  F   UNL     1       6.950   4.377  11.689  0.00  0.00    +0.000 F 
ENDBRANCH  13  14
ENDBRANCH  10  13
ENDBRANCH   4   7
BRANCH   1  18
ATOM     18  C   UNL     1       1.457   7.974  20.886  0.00  0.00    +0.000 C 
BRANCH  18  19
ATOM     19  O   UNL     1       0.839   9.169  20.407  0.00  0.00    +0.000 OA
BRANCH  19  27
ATOM     20  C   UNL     1      -3.052  12.441  22.493  0.00  0.00    +0.000 A 
ATOM     21  C   UNL     1      -2.277  12.462  21.345  0.00  0.00    +0.000 A 
ATOM     22  N   UNL     1      -1.235  11.631  21.635  0.00  0.00    +0.000 N 
ATOM     23  C   UNL     1      -1.373  11.208  22.922  0.00  0.00    +0.000 A 
ATOM     24  N   UNL     1      -2.473  11.656  23.472  0.00  0.00    +0.000 NA
ATOM     25  O   UNL     1      -0.430  10.545  23.569  0.00  0.00    +0.000 OA
ATOM     26  C   UNL     1       0.354   9.681  22.760  0.00  0.00    +0.000 C 
ATOM     27  C   UNL     1       0.806  10.229  21.388  0.00  0.00    +0.000 C 
ATOM     28  C   UNL     1      -0.068  11.363  20.834  0.00  0.00    +0.000 C 
BRANCH  20  30
ATOM     29  O   UNL     1      -5.334  12.575  22.504  0.00  0.00    +0.000 OA
ATOM     30  N   UNL     1      -4.274  13.172  22.743  0.00  0.00    +0.000 N 
ATOM     31  O   UNL     1      -4.179  14.330  23.173  0.00  0.00    +0.000 OA
ENDBRANCH  20  30
ENDBRANCH  19  27
ENDBRANCH  18  19
ENDBRANCH   1  18
TORSDOF 7
ENDMDL
MODEL 7
REMARK VINA RESULT:      -8.4      1.041      1.695
REMARK  Name = 
REMARK  7 active torsions:
REMARK  status: ('A' for Active; 'I' for Inactive)
REMARK    1  A    between atoms: N_2  and  C_4
REMARK    2  A    between atoms: C_11  and  O_12
REMARK    3  A    between atoms: O_12  and  C_13
REMARK    4  A    between atoms: C_13  and  C_14
REMARK    5  A    between atoms: C_17  and  C_18
REMARK    6  A    between atoms: C_21  and  O_22
REMARK    7  A    between atoms: O_22  and  C_23
REMARK                            x       y       z     vdW  Elec       q    Type
REMARK                         _______ _______ _______ _____ _____    ______ ____
ROOT
ATOM      1  C   UNL     1       2.609   7.304  18.575  0.00  0.00    +0.000 A 
ATOM      2  C   UNL     1       2.146   8.442  17.954  0.00  0.00    +0.000 A 
ATOM      3  N   UNL     1       1.373   9.364  18.561  0.00  0.00    +0.000 NA
ATOM      4  C   UNL     1       1.068   9.141  19.855  0.00  0.00    +0.000 A 
ATOM      5  N   UNL     1       1.501   8.081  20.564  0.00  0.00    +0.000 NA
ATOM      6  C   UNL     1       2.266   7.190  19.904  0.00  0.00    +0.000 A 
ENDROOT
BRANCH   4   7
ATOM      7  C   UNL     1       0.162  10.096  20.524  0.00  0.00    +0.000 A 
ATOM      8  C   UNL     1       0.109  10.192  21.925  0.00  0.00    +0.000 A 
ATOM      9  C   UNL     1      -0.723  11.118  22.560  0.00  0.00    +0.000 A 
ATOM     10  C   UNL     1      -1.525  11.982  21.814  0.00  0.00    +0.000 A 
ATOM     11  C   UNL     1      -1.527  11.874  20.428  0.00  0.00    +0.000 A 
ATOM     12  C   UNL     1      -0.680  10.955  19.793  0.00  0.00    +0.000 A 
BRANCH  10  13
ATOM     13  O   UNL     1      -2.297  12.821  22.555  0.00  0.00    +0.000 OA
BRANCH  13  14
ATOM     14  C   UNL     1      -1.781  14.084  22.942  0.00  0.00    +0.000 C 
ATOM     15  F   UNL     1      -0.874  14.606  22.089  0.00  0.00    +0.000 F 
ATOM     16  F   UNL     1      -2.801  14.959  23.076  0.00  0.00    +0.000 F 
ATOM     17  F   UNL     1      -1.182  13.952  24.147  0.00  0.00    +0.000 F 
ENDBRANCH  13  14
ENDBRANCH  10  13
ENDBRANCH   4   7
BRANCH   1  18
ATOM     18  C   UNL     1       3.376   6.253  17.851  0.00  0.00    +0.000 C 
BRANCH  18  19
ATOM     19  O   UNL     1       3.500   5.094  18.675  0.00  0.00    +0.000 OA
BRANCH  19  27
ATOM     20  C   UNL     1       6.858   4.784  14.336  0.00  0.00    +0.000 A 
ATOM     21  C   UNL     1       5.557   4.384  14.588  0.00  0.00    +0.000 A 
ATOM     22  N   UNL     1       5.477   4.360  15.950  0.00  0.00    +0.000 N 
ATOM     23  C   UNL     1       6.703   4.668  16.454  0.00  0.00    +0.000 A 
ATOM     24  N   UNL     1       7.565   4.956  15.512  0.00  0.00    +0.000 NA
ATOM     25  O   UNL     1       7.009   4.544  17.734  0.00  0.00    +0.000 OA
ATOM     26  C   UNL     1       5.938   4.799  18.630  0.00  0.00    +0.000 C 
ATOM     27  C   UNL     1       4.560   4.206  18.258  0.00  0.00    +0.000 C 
ATOM     28  C   UNL     1       4.375   3.911  16.763  0.00  0.00    +0.000 C 
BRANCH  20  30
ATOM     29  O   UNL     1       7.119   4.190  12.144  0.00  0.00    +0.000 OA
ATOM     30  N   UNL     1       7.494   4.953  13.049  0.00  0.00    +0.000 N 
ATOM     31  O   UNL     1       8.357   5.833  12.939  0.00  0.00    +0.000 OA
ENDBRANCH  20  30
ENDBRANCH  19  27
ENDBRANCH  18  19
ENDBRANCH   1  18
TORSDOF 7
ENDMDL
MODEL 8
REMARK VINA RESULT:      -8.2      0.863      1.651
REMARK  Name = 
REMARK  7 active torsions:
REMARK  status: ('A' for Active; 'I' for Inactive)
REMARK    1  A    between atoms: N_2  and  C_4
REMARK    2  A    between atoms: C_11  and  O_12
REMARK    3  A    between atoms: O_12  and  C_13
REMARK    4  A    between atoms: C_13  and  C_14
REMARK    5  A    between atoms: C_17  and  C_18
REMARK    6  A    between atoms: C_21  and  O_22
REMARK    7  A    between atoms: O_22  and  C_23
REMARK                            x       y       z     vdW  Elec       q    Type
REMARK                         _______ _______ _______ _____ _____    ______ ____
ROOT
ATOM      1  C   UNL     1       2.666   7.399  18.595  0.00  0.00    +0.000 A 
ATOM      2  C   UNL     1       2.229   8.508  17.905  0.00  0.00    +0.000 A 
ATOM      3  N   UNL     1       1.442   9.461  18.442  0.00  0.00    +0.000 NA
ATOM      4  C   UNL     1       1.094   9.303  19.734  0.00  0.00    +0.000 A 
ATOM      5  N   UNL     1       1.498   8.276  20.507  0.00  0.00    +0.000 NA
ATOM      6  C   UNL     1       2.280   7.352  19.916  0.00  0.00    +0.000 A 
ENDROOT
BRANCH   4   7
ATOM      7  C   UNL     1       0.173  10.292  20.327  0.00  0.00    +0.000 A 
ATOM      8  C   UNL     1       0.340  10.746  21.646  0.00  0.00    +0.000 A 
ATOM      9  C   UNL     1      -0.510  11.708  22.198  0.00  0.00    +0.000 A 
ATOM     10  C   UNL     1      -1.553  12.250  21.447  0.00  0.00    +0.000 A 
ATOM     11  C   UNL     1      -1.770  11.782  20.156  0.00  0.00    +0.000 A 
ATOM     12  C   UNL     1      -0.905  10.829  19.599  0.00  0.00    +0.000 A 
BRANCH  10  13
ATOM     13  O   UNL     1      -2.314  13.162  22.108  0.00  0.00    +0.000 OA
BRANCH  13  14
ATOM     14  C   UNL     1      -3.504  12.741  22.755  0.00  0.00    +0.000 C 
ATOM     15  F   UNL     1      -4.450  12.249  21.927  0.00  0.00    +0.000 F 
ATOM     16  F   UNL     1      -3.200  11.796  23.673  0.00  0.00    +0.000 F 
ATOM     17  F   UNL     1      -4.038  13.799  23.406  0.00  0.00    +0.000 F 
ENDBRANCH  13  14
ENDBRANCH  10  13
ENDBRANCH   4   7
BRANCH   1  18
ATOM     18  C   UNL     1       3.450   6.311  17.947  0.00  0.00    +0.000 C 
BRANCH  18  19
ATOM     19  O   UNL     1       3.940   5.413  18.943  0.00  0.00    +0.000 OA
BRANCH  19  27
ATOM     20  C   UNL     1       6.896   4.862  14.344  0.00  0.00    +0.000 A 
ATOM     21  C   UNL     1       5.841   4.167  14.910  0.00  0.00    +0.000 A 
ATOM     22  N   UNL     1       5.864   4.542  16.222  0.00  0.00    +0.000 N 
ATOM     23  C   UNL     1       6.932   5.364  16.410  0.00  0.00    +0.000 A 
ATOM     24  N   UNL     1       7.572   5.605  15.294  0.00  0.00    +0.000 NA
ATOM     25  O   UNL     1       7.346   5.747  17.606  0.00  0.00    +0.000 OA
ATOM     26  C   UNL     1       6.315   5.912  18.569  0.00  0.00    +0.000 C 
ATOM     27  C   UNL     1       5.216   4.826  18.607  0.00  0.00    +0.000 C 
ATOM     28  C   UNL     1       5.049   4.040  17.299  0.00  0.00    +0.000 C 
BRANCH  20  30
ATOM     29  O   UNL     1       8.220   5.633  12.648  0.00  0.00    +0.000 OA
ATOM     30  N   UNL     1       7.344   4.816  12.970  0.00  0.00    +0.000 N 
ATOM     31  O   UNL     1       6.829   3.976  12.221  0.00  0.00    +0.000 OA
ENDBRANCH  20  30
ENDBRANCH  19  27
ENDBRANCH  18  19
ENDBRANCH   1  18
TORSDOF 7
ENDMDL
MODEL 9
REMARK VINA RESULT:      -8.2      5.801     11.919
REMARK  Name = 
REMARK  7 active torsions:
REMARK  status: ('A' for Active; 'I' for Inactive)
REMARK    1  A    between atoms: N_2  and  C_4
REMARK    2  A    between atoms: C_11  and  O_12
REMARK    3  A    between atoms: O_12  and  C_13
REMARK    4  A    between atoms: C_13  and  C_14
REMARK    5  A    between atoms: C_17  and  C_18
REMARK    6  A    between atoms: C_21  and  O_22
REMARK    7  A    between atoms: O_22  and  C_23
REMARK                            x       y       z     vdW  Elec       q    Type
REMARK                         _______ _______ _______ _____ _____    ______ ____
ROOT
ATOM      1  C   UNL     1       2.225   7.038  19.933  0.00  0.00    +0.000 A 
ATOM      2  C   UNL     1       2.720   5.755  20.008  0.00  0.00    +0.000 A 
ATOM      3  N   UNL     1       3.471   5.185  19.045  0.00  0.00    +0.000 NA
ATOM      4  C   UNL     1       3.753   5.945  17.968  0.00  0.00    +0.000 A 
ATOM      5  N   UNL     1       3.350   7.222  17.815  0.00  0.00    +0.000 NA
ATOM      6  C   UNL     1       2.599   7.737  18.807  0.00  0.00    +0.000 A 
ENDROOT
BRANCH   4   7
ATOM      7  C   UNL     1       4.511   5.323  16.864  0.00  0.00    +0.000 A 
ATOM      8  C   UNL     1       4.609   3.927  16.742  0.00  0.00    +0.000 A 
ATOM      9  C   UNL     1       5.297   3.336  15.679  0.00  0.00    +0.000 A 
ATOM     10  C   UNL     1       5.907   4.122  14.702  0.00  0.00    +0.000 A 
ATOM     11  C   UNL     1       5.866   5.507  14.826  0.00  0.00    +0.000 A 
ATOM     12  C   UNL     1       5.161   6.097  15.884  0.00  0.00    +0.000 A 
BRANCH  10  13
ATOM     13  O   UNL     1       6.556   3.423  13.734  0.00  0.00    +0.000 OA
BRANCH  13  14
ATOM     14  C   UNL     1       6.021   3.388  12.420  0.00  0.00    +0.000 C 
ATOM     15  F   UNL     1       6.035   2.170  11.840  0.00  0.00    +0.000 F 
ATOM     16  F   UNL     1       4.748   3.840  12.447  0.00  0.00    +0.000 F 
ATOM     17  F   UNL     1       6.744   4.223  11.640  0.00  0.00    +0.000 F 
ENDBRANCH  13  14
ENDBRANCH  10  13
ENDBRANCH   4   7
BRANCH   1  18
ATOM     18  C   UNL     1       1.314   7.605  20.965  0.00  0.00    +0.000 C 
BRANCH  18  19
ATOM     19  O   UNL     1       0.700   8.793  20.464  0.00  0.00    +0.000 OA
BRANCH  19  27
ATOM     20  C   UNL     1      -2.855  12.533  22.353  0.00  0.00    +0.000 A 
ATOM     21  C   UNL     1      -2.087  12.414  21.207  0.00  0.00    +0.000 A 
ATOM     22  N   UNL     1      -1.127  11.506  21.546  0.00  0.00    +0.000 N 
ATOM     23  C   UNL     1      -1.300  11.172  22.854  0.00  0.00    +0.000 A 
ATOM     24  N   UNL     1      -2.350  11.753  23.376  0.00  0.00    +0.000 NA
ATOM     25  O   UNL     1      -0.421  10.461  23.540  0.00  0.00    +0.000 OA
ATOM     26  C   UNL     1       0.274   9.482  22.783  0.00  0.00    +0.000 C 
ATOM     27  C   UNL     1       0.771   9.905  21.382  0.00  0.00    +0.000 C 
ATOM     28  C   UNL     1       0.007  11.084  20.763  0.00  0.00    +0.000 C 
BRANCH  20  30
ATOM     29  O   UNL     1      -3.831  14.372  23.297  0.00  0.00    +0.000 OA
ATOM     30  N   UNL     1      -4.001  13.390  22.559  0.00  0.00    +0.000 N 
ATOM     31  O   UNL     1      -5.060  13.088  21.993  0.00  0.00    +0.000 OA
ENDBRANCH  20  30
ENDBRANCH  19  27
ENDBRANCH  18  19
ENDBRANCH   1  18
TORSDOF 7
ENDMDL
