MODEL 1
REMARK VINA RESULT:      -7.3      0.000      0.000
REMARK  Name = 
REMARK  5 active torsions:
REMARK  status: ('A' for Active; 'I' for Inactive)
REMARK    1  A    between atoms: C_1  and  C_2
REMARK    2  A    between atoms: C_4  and  S_5
REMARK    3  A    between atoms: S_5  and  C_6
REMARK    4  A    between atoms: C_6  and  C_7
REMARK    5  A    between atoms: C_7  and  O_9
REMARK                            x       y       z     vdW  Elec       q    Type
REMARK                         _______ _______ _______ _____ _____    ______ ____
ROOT
ATOM      1  C   UNL     1       1.950   9.233  17.864  0.00  0.00    +0.000 C 
ATOM      2  C   UNL     1       2.665   7.929  18.069  0.00  0.00    +0.000 A 
ATOM      3  N   UNL     1       3.794   7.714  17.335  0.00  0.00    +0.000 NA
ATOM      4  C   UNL     1       4.427   6.517  17.471  0.00  0.00    +0.000 A 
ATOM      5  C   UNL     1       3.911   5.613  18.378  0.00  0.00    +0.000 A 
ATOM      6  O   UNL     1       4.372   4.374  18.705  0.00  0.00    +0.000 OA
ATOM      7  C   UNL     1       3.536   3.886  19.663  0.00  0.00    +0.000 A 
ATOM      8  C   UNL     1       3.664   2.645  20.279  0.00  0.00    +0.000 A 
ATOM      9  C   UNL     1       2.706   2.326  21.245  0.00  0.00    +0.000 A 
ATOM     10  C   UNL     1       1.676   3.217  21.564  0.00  0.00    +0.000 A 
ATOM     11  C   UNL     1       1.572   4.463  20.925  0.00  0.00    +0.000 A 
ATOM     12  C   UNL     1       2.530   4.803  19.951  0.00  0.00    +0.000 A 
ATOM     13  C   UNL     1       2.778   5.921  19.111  0.00  0.00    +0.000 A 
ATOM     14  N   UNL     1       2.115   7.091  18.968  0.00  0.00    +0.000 NA
ENDROOT
BRANCH   4  15
ATOM     15  S   UNL     1       5.846   6.107  16.505  0.00  0.00    +0.000 S 
BRANCH  15  16
ATOM     16  C   UNL     1       7.204   6.522  17.626  0.00  0.00    +0.000 C 
BRANCH  16  17
ATOM     17  C   UNL     1       7.617   5.348  18.482  0.00  0.00    +0.000 C 
ATOM     18  O   UNL     1       8.151   5.447  19.577  0.00  0.00    +0.000 OA
BRANCH  17  19
ATOM     19  O   UNL     1       7.335   4.144  17.925  0.00  0.00    +0.000 OA
ATOM     20  H   UNL     1       8.152   3.658  17.668  0.00  0.00    +0.000 HD
ENDBRANCH  17  19
ENDBRANCH  16  17
ENDBRANCH  15  16
ENDBRANCH   4  15
TORSDOF 4
ENDMDL
MODEL 2
REMARK VINA RESULT:      -7.1      2.298      3.117
REMARK  Name = 
REMARK  5 active torsions:
REMARK  status: ('A' for Active; 'I' for Inactive)
REMARK    1  A    between atoms: C_1  and  C_2
REMARK    2  A    between atoms: C_4  and  S_5
REMARK    3  A    between atoms: S_5  and  C_6
REMARK    4  A    between atoms: C_6  and  C_7
REMARK    5  A    between atoms: C_7  and  O_9
REMARK                            x       y       z     vdW  Elec       q    Type
REMARK                         _______ _______ _______ _____ _____    ______ ____
ROOT
ATOM      1  C   UNL     1       6.047   3.985  14.022  0.00  0.00    +0.000 C 
ATOM      2  C   UNL     1       5.547   4.596  15.299  0.00  0.00    +0.000 A 
ATOM      3  N   UNL     1       6.184   5.715  15.747  0.00  0.00    +0.000 NA
ATOM      4  C   UNL     1       5.777   6.253  16.929  0.00  0.00    +0.000 A 
ATOM      5  C   UNL     1       4.713   5.657  17.576  0.00  0.00    +0.000 A 
ATOM      6  O   UNL     1       4.116   6.018  18.746  0.00  0.00    +0.000 OA
ATOM      7  C   UNL     1       3.101   5.135  18.955  0.00  0.00    +0.000 A 
ATOM      8  C   UNL     1       2.230   5.160  20.040  0.00  0.00    +0.000 A 
ATOM      9  C   UNL     1       1.247   4.167  20.074  0.00  0.00    +0.000 A 
ATOM     10  C   UNL     1       1.156   3.204  19.064  0.00  0.00    +0.000 A 
ATOM     11  C   UNL     1       2.049   3.204  17.980  0.00  0.00    +0.000 A 
ATOM     12  C   UNL     1       3.045   4.197  17.928  0.00  0.00    +0.000 A 
ATOM     13  C   UNL     1       4.097   4.541  17.038  0.00  0.00    +0.000 A 
ATOM     14  N   UNL     1       4.507   3.971  15.882  0.00  0.00    +0.000 NA
ENDROOT
BRANCH   4  15
ATOM     15  S   UNL     1       6.591   7.650  17.637  0.00  0.00    +0.000 S 
BRANCH  15  16
ATOM     16  C   UNL     1       8.063   6.899  18.374  0.00  0.00    +0.000 C 
BRANCH  16  17
ATOM     17  C   UNL     1       7.760   5.574  19.032  0.00  0.00    +0.000 C 
ATOM     18  O   UNL     1       7.315   5.452  20.164  0.00  0.00    +0.000 OA
BRANCH  17  19
ATOM     19  O   UNL     1       8.023   4.503  18.244  0.00  0.00    +0.000 OA
ATOM     20  H   UNL     1       7.918   3.654  18.731  0.00  0.00    +0.000 HD
ENDBRANCH  17  19
ENDBRANCH  16  17
ENDBRANCH  15  16
ENDBRANCH   4  15
TORSDOF 4
ENDMDL
MODEL 3
REMARK VINA RESULT:      -7.1      2.649      5.138
REMARK  Name = 
REMARK  5 active torsions:
REMARK  status: ('A' for Active; 'I' for Inactive)
REMARK    1  A    between atoms: C_1  and  C_2
REMARK    2  A    between atoms: C_4  and  S_5
REMARK    3  A    between atoms: S_5  and  C_6
REMARK    4  A    between atoms: C_6  and  C_7
REMARK    5  A    between atoms: C_7  and  O_9
REMARK                            x       y       z     vdW  Elec       q    Type
REMARK                         _______ _______ _______ _____ _____    ______ ____
ROOT
ATOM      1  C   UNL     1       5.756   4.797  15.391  0.00  0.00    +0.000 C 
ATOM      2  C   UNL     1       4.976   5.019  16.654  0.00  0.00    +0.000 A 
ATOM      3  N   UNL     1       5.011   4.030  17.591  0.00  0.00    +0.000 NA
ATOM      4  C   UNL     1       4.270   4.192  18.722  0.00  0.00    +0.000 A 
ATOM      5  C   UNL     1       3.566   5.371  18.867  0.00  0.00    +0.000 A 
ATOM      6  O   UNL     1       2.780   5.772  19.903  0.00  0.00    +0.000 OA
ATOM      7  C   UNL     1       2.324   7.017  19.590  0.00  0.00    +0.000 A 
ATOM      8  C   UNL     1       1.494   7.791  20.394  0.00  0.00    +0.000 A 
ATOM      9  C   UNL     1       1.138   9.048  19.896  0.00  0.00    +0.000 A 
ATOM     10  C   UNL     1       1.598   9.490  18.653  0.00  0.00    +0.000 A 
ATOM     11  C   UNL     1       2.436   8.686  17.862  0.00  0.00    +0.000 A 
ATOM     12  C   UNL     1       2.807   7.418  18.347  0.00  0.00    +0.000 A 
ATOM     13  C   UNL     1       3.609   6.343  17.883  0.00  0.00    +0.000 A 
ATOM     14  N   UNL     1       4.313   6.188  16.738  0.00  0.00    +0.000 NA
ENDROOT
BRANCH   4  15
ATOM     15  S   UNL     1       4.179   2.934  19.956  0.00  0.00    +0.000 S 
BRANCH  15  16
ATOM     16  C   UNL     1       2.483   2.335  19.765  0.00  0.00    +0.000 C 
BRANCH  16  17
ATOM     17  C   UNL     1       1.588   2.783  20.897  0.00  0.00    +0.000 C 
ATOM     18  O   UNL     1       1.701   2.407  22.054  0.00  0.00    +0.000 OA
BRANCH  17  19
ATOM     19  O   UNL     1       0.629   3.662  20.516  0.00  0.00    +0.000 OA
ATOM     20  H   UNL     1      -0.172   3.600  21.084  0.00  0.00    +0.000 HD
ENDBRANCH  17  19
ENDBRANCH  16  17
ENDBRANCH  15  16
ENDBRANCH   4  15
TORSDOF 4
ENDMDL
MODEL 4
REMARK VINA RESULT:      -7.0      0.991      1.242
REMARK  Name = 
REMARK  5 active torsions:
REMARK  status: ('A' for Active; 'I' for Inactive)
REMARK    1  A    between atoms: C_1  and  C_2
REMARK    2  A    between atoms: C_4  and  S_5
REMARK    3  A    between atoms: S_5  and  C_6
REMARK    4  A    between atoms: C_6  and  C_7
REMARK    5  A    between atoms: C_7  and  O_9
REMARK                            x       y       z     vdW  Elec       q    Type
REMARK                         _______ _______ _______ _____ _____    ______ ____
ROOT
ATOM      1  C   UNL     1       2.193   9.184  17.833  0.00  0.00    +0.000 C 
ATOM      2  C   UNL     1       2.849   7.846  18.011  0.00  0.00    +0.000 A 
ATOM      3  N   UNL     1       3.901   7.554  17.194  0.00  0.00    +0.000 NA
ATOM      4  C   UNL     1       4.477   6.325  17.308  0.00  0.00    +0.000 A 
ATOM      5  C   UNL     1       3.987   5.470  18.275  0.00  0.00    +0.000 A 
ATOM      6  O   UNL     1       4.404   4.214  18.593  0.00  0.00    +0.000 OA
ATOM      7  C   UNL     1       3.625   3.793  19.627  0.00  0.00    +0.000 A 
ATOM      8  C   UNL     1       3.734   2.559  20.260  0.00  0.00    +0.000 A 
ATOM      9  C   UNL     1       2.841   2.314  21.308  0.00  0.00    +0.000 A 
ATOM     10  C   UNL     1       1.892   3.267  21.687  0.00  0.00    +0.000 A 
ATOM     11  C   UNL     1       1.805   4.505  21.029  0.00  0.00    +0.000 A 
ATOM     12  C   UNL     1       2.697   4.771  19.973  0.00  0.00    +0.000 A 
ATOM     13  C   UNL     1       2.936   5.856  19.088  0.00  0.00    +0.000 A 
ATOM     14  N   UNL     1       2.329   7.058  18.971  0.00  0.00    +0.000 NA
ENDROOT
BRANCH   4  15
ATOM     15  S   UNL     1       5.787   5.817  16.240  0.00  0.00    +0.000 S 
BRANCH  15  16
ATOM     16  C   UNL     1       7.191   5.725  17.377  0.00  0.00    +0.000 C 
BRANCH  16  17
ATOM     17  C   UNL     1       7.688   7.092  17.784  0.00  0.00    +0.000 C 
ATOM     18  O   UNL     1       7.488   8.116  17.146  0.00  0.00    +0.000 OA
BRANCH  17  19
ATOM     19  O   UNL     1       8.387   7.093  18.945  0.00  0.00    +0.000 OA
ATOM     20  H   UNL     1       7.912   6.613  19.660  0.00  0.00    +0.000 HD
ENDBRANCH  17  19
ENDBRANCH  16  17
ENDBRANCH  15  16
ENDBRANCH   4  15
TORSDOF 4
ENDMDL
MODEL 5
REMARK VINA RESULT:      -7.0      1.641      1.932
REMARK  Name = 
REMARK  5 active torsions:
REMARK  status: ('A' for Active; 'I' for Inactive)
REMARK    1  A    between atoms: C_1  and  C_2
REMARK    2  A    between atoms: C_4  and  S_5
REMARK    3  A    between atoms: S_5  and  C_6
REMARK    4  A    between atoms: C_6  and  C_7
REMARK    5  A    between atoms: C_7  and  O_9
REMARK                            x       y       z     vdW  Elec       q    Type
REMARK                         _______ _______ _______ _____ _____    ______ ____
ROOT
ATOM      1  C   UNL     1       1.886   9.138  17.781  0.00  0.00    +0.000 C 
ATOM      2  C   UNL     1       2.641   7.869  18.056  0.00  0.00    +0.000 A 
ATOM      3  N   UNL     1       3.841   7.709  17.431  0.00  0.00    +0.000 NA
ATOM      4  C   UNL     1       4.516   6.543  17.631  0.00  0.00    +0.000 A 
ATOM      5  C   UNL     1       3.961   5.617  18.490  0.00  0.00    +0.000 A 
ATOM      6  O   UNL     1       4.449   4.401  18.864  0.00  0.00    +0.000 OA
ATOM      7  C   UNL     1       3.553   3.874  19.743  0.00  0.00    +0.000 A 
ATOM      8  C   UNL     1       3.682   2.641  20.374  0.00  0.00    +0.000 A 
ATOM      9  C   UNL     1       2.655   2.276  21.249  0.00  0.00    +0.000 A 
ATOM     10  C   UNL     1       1.559   3.117  21.468  0.00  0.00    +0.000 A 
ATOM     11  C   UNL     1       1.455   4.357  20.816  0.00  0.00    +0.000 A 
ATOM     12  C   UNL     1       2.481   4.742  19.933  0.00  0.00    +0.000 A 
ATOM     13  C   UNL     1       2.752   5.869  19.114  0.00  0.00    +0.000 A 
ATOM     14  N   UNL     1       2.050   7.006  18.905  0.00  0.00    +0.000 NA
ENDROOT
BRANCH   4  15
ATOM     15  S   UNL     1       6.036   6.202  16.801  0.00  0.00    +0.000 S 
BRANCH  15  16
ATOM     16  C   UNL     1       5.476   5.305  15.333  0.00  0.00    +0.000 C 
BRANCH  16  17
ATOM     17  C   UNL     1       6.627   4.732  14.540  0.00  0.00    +0.000 C 
ATOM     18  O   UNL     1       7.681   5.317  14.335  0.00  0.00    +0.000 OA
BRANCH  17  19
ATOM     19  O   UNL     1       6.393   3.484  14.067  0.00  0.00    +0.000 OA
ATOM     20  H   UNL     1       7.200   2.922  14.096  0.00  0.00    +0.000 HD
ENDBRANCH  17  19
ENDBRANCH  16  17
ENDBRANCH  15  16
ENDBRANCH   4  15
TORSDOF 4
ENDMDL
MODEL 6
REMARK VINA RESULT:      -6.9      3.773      6.500
REMARK  Name = 
REMARK  5 active torsions:
REMARK  status: ('A' for Active; 'I' for Inactive)
REMARK    1  A    between atoms: C_1  and  C_2
REMARK    2  A    between atoms: C_4  and  S_5
REMARK    3  A    between atoms: S_5  and  C_6
REMARK    4  A    between atoms: C_6  and  C_7
REMARK    5  A    between atoms: C_7  and  O_9
REMARK                            x       y       z     vdW  Elec       q    Type
REMARK                         _______ _______ _______ _____ _____    ______ ____
ROOT
ATOM      1  C   UNL     1       8.090   7.546  18.333  0.00  0.00    +0.000 C 
ATOM      2  C   UNL     1       7.331   6.482  17.595  0.00  0.00    +0.000 A 
ATOM      3  N   UNL     1       6.412   5.766  18.302  0.00  0.00    +0.000 NA
ATOM      4  C   UNL     1       5.750   4.763  17.661  0.00  0.00    +0.000 A 
ATOM      5  C   UNL     1       6.021   4.566  16.322  0.00  0.00    +0.000 A 
ATOM      6  O   UNL     1       5.480   3.654  15.468  0.00  0.00    +0.000 OA
ATOM      7  C   UNL     1       6.051   3.870  14.251  0.00  0.00    +0.000 A 
ATOM      8  C   UNL     1       5.763   3.154  13.094  0.00  0.00    +0.000 A 
ATOM      9  C   UNL     1       6.454   3.530  11.939  0.00  0.00    +0.000 A 
ATOM     10  C   UNL     1       7.386   4.572  11.961  0.00  0.00    +0.000 A 
ATOM     11  C   UNL     1       7.656   5.278  13.145  0.00  0.00    +0.000 A 
ATOM     12  C   UNL     1       6.968   4.915  14.317  0.00  0.00    +0.000 A 
ATOM     13  C   UNL     1       6.945   5.359  15.666  0.00  0.00    +0.000 A 
ATOM     14  N   UNL     1       7.637   6.339  16.291  0.00  0.00    +0.000 NA
ENDROOT
BRANCH   4  15
ATOM     15  S   UNL     1       4.605   3.723  18.509  0.00  0.00    +0.000 S 
BRANCH  15  16
ATOM     16  C   UNL     1       3.073   4.015  17.592  0.00  0.00    +0.000 C 
BRANCH  16  17
ATOM     17  C   UNL     1       2.037   2.949  17.856  0.00  0.00    +0.000 C 
ATOM     18  O   UNL     1       0.878   3.176  18.173  0.00  0.00    +0.000 OA
BRANCH  17  19
ATOM     19  O   UNL     1       2.506   1.686  17.706  0.00  0.00    +0.000 OA
ATOM     20  H   UNL     1       2.196   1.277  16.866  0.00  0.00    +0.000 HD
ENDBRANCH  17  19
ENDBRANCH  16  17
ENDBRANCH  15  16
ENDBRANCH   4  15
TORSDOF 4
ENDMDL
MODEL 7
REMARK VINA RESULT:      -6.9      3.646      6.190
REMARK  Name = 
REMARK  5 active torsions:
REMARK  status: ('A' for Active; 'I' for Inactive)
REMARK    1  A    between atoms: C_1  and  C_2
REMARK    2  A    between atoms: C_4  and  S_5
REMARK    3  A    between atoms: S_5  and  C_6
REMARK    4  A    between atoms: C_6  and  C_7
REMARK    5  A    between atoms: C_7  and  O_9
REMARK                            x       y       z     vdW  Elec       q    Type
REMARK                         _______ _______ _______ _____ _____    ______ ____
ROOT
ATOM      1  C   UNL     1       7.973   7.414  18.266  0.00  0.00    +0.000 C 
ATOM      2  C   UNL     1       7.091   6.507  17.459  0.00  0.00    +0.000 A 
ATOM      3  N   UNL     1       5.945   6.063  18.050  0.00  0.00    +0.000 NA
ATOM      4  C   UNL     1       5.158   5.200  17.351  0.00  0.00    +0.000 A 
ATOM      5  C   UNL     1       5.547   4.866  16.070  0.00  0.00    +0.000 A 
ATOM      6  O   UNL     1       4.924   4.050  15.175  0.00  0.00    +0.000 OA
ATOM      7  C   UNL     1       5.685   4.056  14.046  0.00  0.00    +0.000 A 
ATOM      8  C   UNL     1       5.391   3.354  12.880  0.00  0.00    +0.000 A 
ATOM      9  C   UNL     1       6.296   3.493  11.824  0.00  0.00    +0.000 A 
ATOM     10  C   UNL     1       7.434   4.296  11.947  0.00  0.00    +0.000 A 
ATOM     11  C   UNL     1       7.705   4.992  13.136  0.00  0.00    +0.000 A 
ATOM     12  C   UNL     1       6.804   4.867  14.210  0.00  0.00    +0.000 A 
ATOM     13  C   UNL     1       6.709   5.386  15.528  0.00  0.00    +0.000 A 
ATOM     14  N   UNL     1       7.522   6.220  16.217  0.00  0.00    +0.000 NA
ENDROOT
BRANCH   4  15
ATOM     15  S   UNL     1       3.700   4.501  18.059  0.00  0.00    +0.000 S 
BRANCH  15  16
ATOM     16  C   UNL     1       4.295   3.925  19.667  0.00  0.00    +0.000 C 
BRANCH  16  17
ATOM     17  C   UNL     1       4.350   2.417  19.748  0.00  0.00    +0.000 C 
ATOM     18  O   UNL     1       5.077   1.794  20.509  0.00  0.00    +0.000 OA
BRANCH  17  19
ATOM     19  O   UNL     1       3.504   1.795  18.892  0.00  0.00    +0.000 OA
ATOM     20  H   UNL     1       3.796   0.878  18.688  0.00  0.00    +0.000 HD
ENDBRANCH  17  19
ENDBRANCH  16  17
ENDBRANCH  15  16
ENDBRANCH   4  15
TORSDOF 4
ENDMDL
MODEL 8
REMARK VINA RESULT:      -6.8      2.793      3.827
REMARK  Name = 
REMARK  5 active torsions:
REMARK  status: ('A' for Active; 'I' for Inactive)
REMARK    1  A    between atoms: C_1  and  C_2
REMARK    2  A    between atoms: C_4  and  S_5
REMARK    3  A    between atoms: S_5  and  C_6
REMARK    4  A    between atoms: C_6  and  C_7
REMARK    5  A    between atoms: C_7  and  O_9
REMARK                            x       y       z     vdW  Elec       q    Type
REMARK                         _______ _______ _______ _____ _____    ______ ____
ROOT
ATOM      1  C   UNL     1       6.400   4.108  13.959  0.00  0.00    +0.000 C 
ATOM      2  C   UNL     1       6.036   4.571  15.340  0.00  0.00    +0.000 A 
ATOM      3  N   UNL     1       6.937   5.358  15.992  0.00  0.00    +0.000 NA
ATOM      4  C   UNL     1       6.645   5.746  17.264  0.00  0.00    +0.000 A 
ATOM      5  C   UNL     1       5.432   5.356  17.795  0.00  0.00    +0.000 A 
ATOM      6  O   UNL     1       4.909   5.632  19.021  0.00  0.00    +0.000 OA
ATOM      7  C   UNL     1       3.682   5.044  19.064  0.00  0.00    +0.000 A 
ATOM      8  C   UNL     1       2.807   5.098  20.146  0.00  0.00    +0.000 A 
ATOM      9  C   UNL     1       1.587   4.432  19.995  0.00  0.00    +0.000 A 
ATOM     10  C   UNL     1       1.277   3.750  18.814  0.00  0.00    +0.000 A 
ATOM     11  C   UNL     1       2.180   3.713  17.739  0.00  0.00    +0.000 A 
ATOM     12  C   UNL     1       3.412   4.379  17.872  0.00  0.00    +0.000 A 
ATOM     13  C   UNL     1       4.555   4.583  17.054  0.00  0.00    +0.000 A 
ATOM     14  N   UNL     1       4.839   4.160  15.801  0.00  0.00    +0.000 NA
ENDROOT
BRANCH   4  15
ATOM     15  S   UNL     1       7.783   6.693  18.225  0.00  0.00    +0.000 S 
BRANCH  15  16
ATOM     16  C   UNL     1       7.603   8.345  17.511  0.00  0.00    +0.000 C 
BRANCH  16  17
ATOM     17  C   UNL     1       8.450   9.372  18.225  0.00  0.00    +0.000 C 
ATOM     18  O   UNL     1       8.588  10.529  17.856  0.00  0.00    +0.000 OA
BRANCH  17  19
ATOM     19  O   UNL     1       9.057   8.895  19.339  0.00  0.00    +0.000 OA
ATOM     20  H   UNL     1       8.587   8.113  19.707  0.00  0.00    +0.000 HD
ENDBRANCH  17  19
ENDBRANCH  16  17
ENDBRANCH  15  16
ENDBRANCH   4  15
TORSDOF 4
ENDMDL
MODEL 9
REMARK VINA RESULT:      -6.8      3.113      3.979
REMARK  Name = 
REMARK  5 active torsions:
REMARK  status: ('A' for Active; 'I' for Inactive)
REMARK    1  A    between atoms: C_1  and  C_2
REMARK    2  A    between atoms: C_4  and  S_5
REMARK    3  A    between atoms: S_5  and  C_6
REMARK    4  A    between atoms: C_6  and  C_7
REMARK    5  A    between atoms: C_7  and  O_9
REMARK                            x       y       z     vdW  Elec       q    Type
REMARK                         _______ _______ _______ _____ _____    ______ ____
ROOT
ATOM      1  C   UNL     1       8.035   5.742  19.556  0.00  0.00    +0.000 C 
ATOM      2  C   UNL     1       6.792   5.320  18.828  0.00  0.00    +0.000 A 
ATOM      3  N   UNL     1       6.782   5.467  17.473  0.00  0.00    +0.000 NA
ATOM      4  C   UNL     1       5.645   5.135  16.802  0.00  0.00    +0.000 A 
ATOM      5  C   UNL     1       4.589   4.629  17.533  0.00  0.00    +0.000 A 
ATOM      6  O   UNL     1       3.370   4.212  17.093  0.00  0.00    +0.000 OA
ATOM      7  C   UNL     1       2.687   3.778  18.188  0.00  0.00    +0.000 A 
ATOM      8  C   UNL     1       1.397   3.256  18.172  0.00  0.00    +0.000 A 
ATOM      9  C   UNL     1       0.867   2.862  19.404  0.00  0.00    +0.000 A 
ATOM     10  C   UNL     1       1.606   2.992  20.583  0.00  0.00    +0.000 A 
ATOM     11  C   UNL     1       2.907   3.522  20.570  0.00  0.00    +0.000 A 
ATOM     12  C   UNL     1       3.457   3.923  19.338  0.00  0.00    +0.000 A 
ATOM     13  C   UNL     1       4.690   4.480  18.905  0.00  0.00    +0.000 A 
ATOM     14  N   UNL     1       5.798   4.832  19.595  0.00  0.00    +0.000 NA
ENDROOT
BRANCH   4  15
ATOM     15  S   UNL     1       5.500   5.369  15.058  0.00  0.00    +0.000 S 
BRANCH  15  16
ATOM     16  C   UNL     1       6.257   3.859  14.408  0.00  0.00    +0.000 C 
BRANCH  16  17
ATOM     17  C   UNL     1       6.251   3.823  12.898  0.00  0.00    +0.000 C 
ATOM     18  O   UNL     1       7.203   4.135  12.197  0.00  0.00    +0.000 OA
BRANCH  17  19
ATOM     19  O   UNL     1       5.077   3.401  12.369  0.00  0.00    +0.000 OA
ATOM     20  H   UNL     1       4.846   2.492  12.665  0.00  0.00    +0.000 HD
ENDBRANCH  17  19
ENDBRANCH  16  17
ENDBRANCH  15  16
ENDBRANCH   4  15
TORSDOF 4
ENDMDL
