MODEL 1
REMARK VINA RESULT:      -6.3      0.000      0.000
REMARK  Name = 
REMARK  12 active torsions:
REMARK  status: ('A' for Active; 'I' for Inactive)
REMARK    1  A    between atoms: C_1  and  C_2
REMARK    2  A    between atoms: C_2  and  C_3
REMARK    3  A    between atoms: C_2  and  C_4
REMARK    4  A    between atoms: C_2  and  O_5
REMARK    5  A    between atoms: O_5  and  C_6
REMARK    6  A    between atoms: N_8  and  CA_9
REMARK    7  A    between atoms: CA_9  and  CB_10
REMARK    8  A    between atoms: CA_9  and  C_15
REMARK    9  A    between atoms: CB_10  and  CG_11
REMARK   10  A    between atoms: CG_11  and  CD_12
REMARK   11  A    between atoms: CD_12  and  OE2_14
REMARK   12  A    between atoms: C_15  and  OXT_17
REMARK                            x       y       z     vdW  Elec       q    Type
REMARK                         _______ _______ _______ _____ _____    ______ ____
ROOT
ATOM      1  CA  GLU A   1       5.979   4.660  17.693  0.00  0.00    +0.000 C 
ENDROOT
BRANCH   1   4
ATOM      2  C   UNK A   0       4.091   3.414  18.659  0.00  0.00    +0.000 C 
ATOM      3  O   UNK A   0       4.079   2.610  17.738  0.00  0.00    +0.000 OA
ATOM      4  N   GLU A   1       4.989   4.429  18.743  0.00  0.00    +0.000 N 
ATOM      5  H   GLU A   1       5.000   5.003  19.581  0.00  0.00    +0.000 HD
BRANCH   2   6
ATOM      6  O   UNK A   0       3.213   3.457  19.691  0.00  0.00    +0.000 OA
BRANCH   6   8
ATOM      7  C   UNK A   0       1.762   4.607  18.048  0.00  0.00    +0.000 C 
ATOM      8  C   UNK A   0       1.938   4.132  19.497  0.00  0.00    +0.000 C 
ATOM      9  C   UNK A   0       1.767   5.280  20.505  0.00  0.00    +0.000 C 
ATOM     10  C   UNK A   0       0.852   3.083  19.784  0.00  0.00    +0.000 C 
ENDBRANCH   6   8
ENDBRANCH   2   6
ENDBRANCH   1   4
BRANCH   1  11
ATOM     11  C   GLU A   1       7.384   4.716  18.309  0.00  0.00    +0.000 C 
ATOM     12  O   GLU A   1       7.650   5.332  19.333  0.00  0.00    +0.000 OA
BRANCH  11  13
ATOM     13  OXT GLU A   1       8.327   4.040  17.614  0.00  0.00    +0.000 OA
ATOM     14  HXT GLU A   1       9.114   3.767  18.125  0.00  0.00    +0.000 HD
ENDBRANCH  11  13
ENDBRANCH   1  11
BRANCH   1  15
ATOM     15  CB  GLU A   1       5.677   5.936  16.890  0.00  0.00    +0.000 C 
BRANCH  15  16
ATOM     16  CG  GLU A   1       5.395   5.662  15.410  0.00  0.00    +0.000 C 
BRANCH  16  17
ATOM     17  CD  GLU A   1       6.485   4.831  14.781  0.00  0.00    +0.000 C 
ATOM     18  OE1 GLU A   1       6.332   3.721  14.294  0.00  0.00    +0.000 OA
BRANCH  17  19
ATOM     19  OE2 GLU A   1       7.688   5.445  14.830  0.00  0.00    +0.000 OA
ATOM     20  HE2 GLU A   1       8.157   5.468  13.974  0.00  0.00    +0.000 HD
ENDBRANCH  17  19
ENDBRANCH  16  17
ENDBRANCH  15  16
ENDBRANCH   1  15
TORSDOF 9
ENDMDL
MODEL 2
REMARK VINA RESULT:      -6.2      0.923      1.396
REMARK  Name = 
REMARK  12 active torsions:
REMARK  status: ('A' for Active; 'I' for Inactive)
REMARK    1  A    between atoms: C_1  and  C_2
REMARK    2  A    between atoms: C_2  and  C_3
REMARK    3  A    between atoms: C_2  and  C_4
REMARK    4  A    between atoms: C_2  and  O_5
REMARK    5  A    between atoms: O_5  and  C_6
REMARK    6  A    between atoms: N_8  and  CA_9
REMARK    7  A    between atoms: CA_9  and  CB_10
REMARK    8  A    between atoms: CA_9  and  C_15
REMARK    9  A    between atoms: CB_10  and  CG_11
REMARK   10  A    between atoms: CG_11  and  CD_12
REMARK   11  A    between atoms: CD_12  and  OE2_14
REMARK   12  A    between atoms: C_15  and  OXT_17
REMARK                            x       y       z     vdW  Elec       q    Type
REMARK                         _______ _______ _______ _____ _____    ______ ____
ROOT
ATOM      1  CA  GLU A   1       6.043   5.309  18.268  0.00  0.00    +0.000 C 
ENDROOT
BRANCH   1   4
ATOM      2  C   UNK A   0       4.223   3.785  18.913  0.00  0.00    +0.000 C 
ATOM      3  O   UNK A   0       4.363   3.104  17.907  0.00  0.00    +0.000 OA
ATOM      4  N   GLU A   1       5.004   4.859  19.192  0.00  0.00    +0.000 N 
ATOM      5  H   GLU A   1       4.893   5.323  20.089  0.00  0.00    +0.000 HD
BRANCH   2   6
ATOM      6  O   UNK A   0       3.269   3.619  19.861  0.00  0.00    +0.000 OA
BRANCH   6   8
ATOM      7  C   UNK A   0       0.861   3.050  19.894  0.00  0.00    +0.000 C 
ATOM      8  C   UNK A   0       1.927   4.115  19.599  0.00  0.00    +0.000 C 
ATOM      9  C   UNK A   0       1.814   4.661  18.167  0.00  0.00    +0.000 C 
ATOM     10  C   UNK A   0       1.706   5.284  20.572  0.00  0.00    +0.000 C 
ENDBRANCH   6   8
ENDBRANCH   2   6
ENDBRANCH   1   4
BRANCH   1  11
ATOM     11  C   GLU A   1       7.271   5.782  19.057  0.00  0.00    +0.000 C 
ATOM     12  O   GLU A   1       7.557   5.371  20.174  0.00  0.00    +0.000 OA
BRANCH  11  13
ATOM     13  OXT GLU A   1       8.017   6.717  18.425  0.00  0.00    +0.000 OA
ATOM     14  HXT GLU A   1       8.067   6.632  17.453  0.00  0.00    +0.000 HD
ENDBRANCH  11  13
ENDBRANCH   1  11
BRANCH   1  15
ATOM     15  CB  GLU A   1       5.533   6.412  17.325  0.00  0.00    +0.000 C 
BRANCH  15  16
ATOM     16  CG  GLU A   1       5.326   5.927  15.888  0.00  0.00    +0.000 C 
BRANCH  16  17
ATOM     17  CD  GLU A   1       6.477   5.071  15.419  0.00  0.00    +0.000 C 
ATOM     18  OE1 GLU A   1       6.395   3.896  15.096  0.00  0.00    +0.000 OA
BRANCH  17  19
ATOM     19  OE2 GLU A   1       7.647   5.749  15.412  0.00  0.00    +0.000 OA
ATOM     20  HE2 GLU A   1       8.119   5.733  16.267  0.00  0.00    +0.000 HD
ENDBRANCH  17  19
ENDBRANCH  16  17
ENDBRANCH  15  16
ENDBRANCH   1  15
TORSDOF 9
ENDMDL
MODEL 3
REMARK VINA RESULT:      -6.2      0.725      1.367
REMARK  Name = 
REMARK  12 active torsions:
REMARK  status: ('A' for Active; 'I' for Inactive)
REMARK    1  A    between atoms: C_1  and  C_2
REMARK    2  A    between atoms: C_2  and  C_3
REMARK    3  A    between atoms: C_2  and  C_4
REMARK    4  A    between atoms: C_2  and  O_5
REMARK    5  A    between atoms: O_5  and  C_6
REMARK    6  A    between atoms: N_8  and  CA_9
REMARK    7  A    between atoms: CA_9  and  CB_10
REMARK    8  A    between atoms: CA_9  and  C_15
REMARK    9  A    between atoms: CB_10  and  CG_11
REMARK   10  A    between atoms: CG_11  and  CD_12
REMARK   11  A    between atoms: CD_12  and  OE2_14
REMARK   12  A    between atoms: C_15  and  OXT_17
REMARK                            x       y       z     vdW  Elec       q    Type
REMARK                         _______ _______ _______ _____ _____    ______ ____
ROOT
ATOM      1  CA  GLU A   1       5.804   4.284  17.322  0.00  0.00    +0.000 C 
ENDROOT
BRANCH   1   4
ATOM      2  C   UNK A   0       3.917   3.193  18.463  0.00  0.00    +0.000 C 
ATOM      3  O   UNK A   0       3.951   2.228  17.714  0.00  0.00    +0.000 OA
ATOM      4  N   GLU A   1       4.789   4.230  18.372  0.00  0.00    +0.000 N 
ATOM      5  H   GLU A   1       4.762   4.954  19.084  0.00  0.00    +0.000 HD
BRANCH   2   6
ATOM      6  O   UNK A   0       3.008   3.409  19.445  0.00  0.00    +0.000 OA
BRANCH   6   8
ATOM      7  C   UNK A   0       0.842   2.368  18.854  0.00  0.00    +0.000 C 
ATOM      8  C   UNK A   0       1.625   3.670  19.075  0.00  0.00    +0.000 C 
ATOM      9  C   UNK A   0       1.551   4.600  17.854  0.00  0.00    +0.000 C 
ATOM     10  C   UNK A   0       0.994   4.402  20.270  0.00  0.00    +0.000 C 
ENDBRANCH   6   8
ENDBRANCH   2   6
ENDBRANCH   1   4
BRANCH   1  11
ATOM     11  C   GLU A   1       7.182   4.538  17.946  0.00  0.00    +0.000 C 
ATOM     12  O   GLU A   1       8.238   4.286  17.380  0.00  0.00    +0.000 OA
BRANCH  11  13
ATOM     13  OXT GLU A   1       7.145   5.053  19.196  0.00  0.00    +0.000 OA
ATOM     14  HXT GLU A   1       6.253   5.199  19.568  0.00  0.00    +0.000 HD
ENDBRANCH  11  13
ENDBRANCH   1  11
BRANCH   1  15
ATOM     15  CB  GLU A   1       5.474   5.345  16.259  0.00  0.00    +0.000 C 
BRANCH  15  16
ATOM     16  CG  GLU A   1       5.224   4.747  14.871  0.00  0.00    +0.000 C 
BRANCH  16  17
ATOM     17  CD  GLU A   1       6.510   4.562  14.105  0.00  0.00    +0.000 C 
ATOM     18  OE1 GLU A   1       6.668   3.790  13.172  0.00  0.00    +0.000 OA
BRANCH  17  19
ATOM     19  OE2 GLU A   1       7.505   5.344  14.581  0.00  0.00    +0.000 OA
ATOM     20  HE2 GLU A   1       7.485   5.464  15.550  0.00  0.00    +0.000 HD
ENDBRANCH  17  19
ENDBRANCH  16  17
ENDBRANCH  15  16
ENDBRANCH   1  15
TORSDOF 9
ENDMDL
MODEL 4
REMARK VINA RESULT:      -6.2      1.732      2.376
REMARK  Name = 
REMARK  12 active torsions:
REMARK  status: ('A' for Active; 'I' for Inactive)
REMARK    1  A    between atoms: C_1  and  C_2
REMARK    2  A    between atoms: C_2  and  C_3
REMARK    3  A    between atoms: C_2  and  C_4
REMARK    4  A    between atoms: C_2  and  O_5
REMARK    5  A    between atoms: O_5  and  C_6
REMARK    6  A    between atoms: N_8  and  CA_9
REMARK    7  A    between atoms: CA_9  and  CB_10
REMARK    8  A    between atoms: CA_9  and  C_15
REMARK    9  A    between atoms: CB_10  and  CG_11
REMARK   10  A    between atoms: CG_11  and  CD_12
REMARK   11  A    between atoms: CD_12  and  OE2_14
REMARK   12  A    between atoms: C_15  and  OXT_17
REMARK                            x       y       z     vdW  Elec       q    Type
REMARK                         _______ _______ _______ _____ _____    ______ ____
ROOT
ATOM      1  CA  GLU A   1       5.799   4.261  16.121  0.00  0.00    +0.000 C 
ENDROOT
BRANCH   1   4
ATOM      2  C   UNK A   0       4.729   4.397  18.331  0.00  0.00    +0.000 C 
ATOM      3  O   UNK A   0       5.601   3.720  18.856  0.00  0.00    +0.000 OA
ATOM      4  N   GLU A   1       4.747   4.736  17.016  0.00  0.00    +0.000 N 
ATOM      5  H   GLU A   1       4.040   5.376  16.668  0.00  0.00    +0.000 HD
BRANCH   2   6
ATOM      6  O   UNK A   0       3.611   4.865  18.937  0.00  0.00    +0.000 OA
BRANCH   6   8
ATOM      7  C   UNK A   0       2.775   2.539  19.046  0.00  0.00    +0.000 C 
ATOM      8  C   UNK A   0       2.420   4.030  18.953  0.00  0.00    +0.000 C 
ATOM      9  C   UNK A   0       1.520   4.333  17.745  0.00  0.00    +0.000 C 
ATOM     10  C   UNK A   0       1.648   4.411  20.227  0.00  0.00    +0.000 C 
ENDBRANCH   6   8
ENDBRANCH   2   6
ENDBRANCH   1   4
BRANCH   1  11
ATOM     11  C   GLU A   1       7.128   4.942  16.475  0.00  0.00    +0.000 C 
ATOM     12  O   GLU A   1       7.389   6.105  16.197  0.00  0.00    +0.000 OA
BRANCH  11  13
ATOM     13  OXT GLU A   1       8.014   4.143  17.113  0.00  0.00    +0.000 OA
ATOM     14  HXT GLU A   1       7.636   3.545  17.787  0.00  0.00    +0.000 HD
ENDBRANCH  11  13
ENDBRANCH   1  11
BRANCH   1  15
ATOM     15  CB  GLU A   1       5.440   4.487  14.643  0.00  0.00    +0.000 C 
BRANCH  15  16
ATOM     16  CG  GLU A   1       6.499   3.948  13.677  0.00  0.00    +0.000 C 
BRANCH  16  17
ATOM     17  CD  GLU A   1       5.871   3.296  12.470  0.00  0.00    +0.000 C 
ATOM     18  OE1 GLU A   1       4.735   3.500  12.072  0.00  0.00    +0.000 OA
BRANCH  17  19
ATOM     19  OE2 GLU A   1       6.708   2.422  11.869  0.00  0.00    +0.000 OA
ATOM     20  HE2 GLU A   1       6.273   1.841  11.215  0.00  0.00    +0.000 HD
ENDBRANCH  17  19
ENDBRANCH  16  17
ENDBRANCH  15  16
ENDBRANCH   1  15
TORSDOF 9
ENDMDL
MODEL 5
REMARK VINA RESULT:      -6.1      0.595      1.264
REMARK  Name = 
REMARK  12 active torsions:
REMARK  status: ('A' for Active; 'I' for Inactive)
REMARK    1  A    between atoms: C_1  and  C_2
REMARK    2  A    between atoms: C_2  and  C_3
REMARK    3  A    between atoms: C_2  and  C_4
REMARK    4  A    between atoms: C_2  and  O_5
REMARK    5  A    between atoms: O_5  and  C_6
REMARK    6  A    between atoms: N_8  and  CA_9
REMARK    7  A    between atoms: CA_9  and  CB_10
REMARK    8  A    between atoms: CA_9  and  C_15
REMARK    9  A    between atoms: CB_10  and  CG_11
REMARK   10  A    between atoms: CG_11  and  CD_12
REMARK   11  A    between atoms: CD_12  and  OE2_14
REMARK   12  A    between atoms: C_15  and  OXT_17
REMARK                            x       y       z     vdW  Elec       q    Type
REMARK                         _______ _______ _______ _____ _____    ______ ____
ROOT
ATOM      1  CA  GLU A   1       6.051   4.825  17.747  0.00  0.00    +0.000 C 
ENDROOT
BRANCH   1   4
ATOM      2  C   UNK A   0       4.089   3.465  18.342  0.00  0.00    +0.000 C 
ATOM      3  O   UNK A   0       4.085   2.899  17.258  0.00  0.00    +0.000 OA
ATOM      4  N   GLU A   1       5.016   4.396  18.686  0.00  0.00    +0.000 N 
ATOM      5  H   GLU A   1       5.014   4.758  19.634  0.00  0.00    +0.000 HD
BRANCH   2   6
ATOM      6  O   UNK A   0       3.175   3.302  19.330  0.00  0.00    +0.000 OA
BRANCH   6   8
ATOM      7  C   UNK A   0       0.949   2.400  18.736  0.00  0.00    +0.000 C 
ATOM      8  C   UNK A   0       1.787   3.645  19.063  0.00  0.00    +0.000 C 
ATOM      9  C   UNK A   0       1.687   4.711  17.961  0.00  0.00    +0.000 C 
ATOM     10  C   UNK A   0       1.239   4.254  20.363  0.00  0.00    +0.000 C 
ENDBRANCH   6   8
ENDBRANCH   2   6
ENDBRANCH   1   4
BRANCH   1  11
ATOM     11  C   GLU A   1       7.421   4.795  18.438  0.00  0.00    +0.000 C 
ATOM     12  O   GLU A   1       7.666   5.386  19.482  0.00  0.00    +0.000 OA
BRANCH  11  13
ATOM     13  OXT GLU A   1       8.360   4.072  17.787  0.00  0.00    +0.000 OA
ATOM     14  HXT GLU A   1       8.743   4.492  16.992  0.00  0.00    +0.000 HD
ENDBRANCH  11  13
ENDBRANCH   1  11
BRANCH   1  15
ATOM     15  CB  GLU A   1       5.755   6.217  17.165  0.00  0.00    +0.000 C 
BRANCH  15  16
ATOM     16  CG  GLU A   1       5.345   6.177  15.690  0.00  0.00    +0.000 C 
BRANCH  16  17
ATOM     17  CD  GLU A   1       6.164   5.177  14.912  0.00  0.00    +0.000 C 
ATOM     18  OE1 GLU A   1       7.342   5.310  14.618  0.00  0.00    +0.000 OA
BRANCH  17  19
ATOM     19  OE2 GLU A   1       5.438   4.098  14.545  0.00  0.00    +0.000 OA
ATOM     20  HE2 GLU A   1       5.657   3.285  15.040  0.00  0.00    +0.000 HD
ENDBRANCH  17  19
ENDBRANCH  16  17
ENDBRANCH  15  16
ENDBRANCH   1  15
TORSDOF 9
ENDMDL
MODEL 6
REMARK VINA RESULT:      -6.1      1.126      1.755
REMARK  Name = 
REMARK  12 active torsions:
REMARK  status: ('A' for Active; 'I' for Inactive)
REMARK    1  A    between atoms: C_1  and  C_2
REMARK    2  A    between atoms: C_2  and  C_3
REMARK    3  A    between atoms: C_2  and  C_4
REMARK    4  A    between atoms: C_2  and  O_5
REMARK    5  A    between atoms: O_5  and  C_6
REMARK    6  A    between atoms: N_8  and  CA_9
REMARK    7  A    between atoms: CA_9  and  CB_10
REMARK    8  A    between atoms: CA_9  and  C_15
REMARK    9  A    between atoms: CB_10  and  CG_11
REMARK   10  A    between atoms: CG_11  and  CD_12
REMARK   11  A    between atoms: CD_12  and  OE2_14
REMARK   12  A    between atoms: C_15  and  OXT_17
REMARK                            x       y       z     vdW  Elec       q    Type
REMARK                         _______ _______ _______ _____ _____    ______ ____
ROOT
ATOM      1  CA  GLU A   1       5.870   4.795  17.324  0.00  0.00    +0.000 C 
ENDROOT
BRANCH   1   4
ATOM      2  C   UNK A   0       4.606   4.304  19.376  0.00  0.00    +0.000 C 
ATOM      3  O   UNK A   0       5.073   3.177  19.460  0.00  0.00    +0.000 OA
ATOM      4  N   GLU A   1       4.948   5.175  18.392  0.00  0.00    +0.000 N 
ATOM      5  H   GLU A   1       4.592   6.125  18.436  0.00  0.00    +0.000 HD
BRANCH   2   6
ATOM      6  O   UNK A   0       3.666   4.840  20.192  0.00  0.00    +0.000 OA
BRANCH   6   8
ATOM      7  C   UNK A   0       2.296   3.112  21.315  0.00  0.00    +0.000 C 
ATOM      8  C   UNK A   0       2.352   4.217  20.251  0.00  0.00    +0.000 C 
ATOM      9  C   UNK A   0       1.925   3.705  18.866  0.00  0.00    +0.000 C 
ATOM     10  C   UNK A   0       1.372   5.325  20.670  0.00  0.00    +0.000 C 
ENDBRANCH   6   8
ENDBRANCH   2   6
ENDBRANCH   1   4
BRANCH   1  11
ATOM     11  C   GLU A   1       7.311   5.112  17.745  0.00  0.00    +0.000 C 
ATOM     12  O   GLU A   1       7.671   6.208  18.154  0.00  0.00    +0.000 OA
BRANCH  11  13
ATOM     13  OXT GLU A   1       8.174   4.079  17.612  0.00  0.00    +0.000 OA
ATOM     14  HXT GLU A   1       7.774   3.187  17.635  0.00  0.00    +0.000 HD
ENDBRANCH  11  13
ENDBRANCH   1  11
BRANCH   1  15
ATOM     15  CB  GLU A   1       5.520   5.481  15.993  0.00  0.00    +0.000 C 
BRANCH  15  16
ATOM     16  CG  GLU A   1       5.418   4.502  14.821  0.00  0.00    +0.000 C 
BRANCH  16  17
ATOM     17  CD  GLU A   1       6.691   4.466  14.012  0.00  0.00    +0.000 C 
ATOM     18  OE1 GLU A   1       7.641   5.219  14.163  0.00  0.00    +0.000 OA
BRANCH  17  19
ATOM     19  OE2 GLU A   1       6.667   3.504  13.064  0.00  0.00    +0.000 OA
ATOM     20  HE2 GLU A   1       6.078   2.754  13.275  0.00  0.00    +0.000 HD
ENDBRANCH  17  19
ENDBRANCH  16  17
ENDBRANCH  15  16
ENDBRANCH   1  15
TORSDOF 9
ENDMDL
MODEL 7
REMARK VINA RESULT:      -6.1      1.798      5.934
REMARK  Name = 
REMARK  12 active torsions:
REMARK  status: ('A' for Active; 'I' for Inactive)
REMARK    1  A    between atoms: C_1  and  C_2
REMARK    2  A    between atoms: C_2  and  C_3
REMARK    3  A    between atoms: C_2  and  C_4
REMARK    4  A    between atoms: C_2  and  O_5
REMARK    5  A    between atoms: O_5  and  C_6
REMARK    6  A    between atoms: N_8  and  CA_9
REMARK    7  A    between atoms: CA_9  and  CB_10
REMARK    8  A    between atoms: CA_9  and  C_15
REMARK    9  A    between atoms: CB_10  and  CG_11
REMARK   10  A    between atoms: CG_11  and  CD_12
REMARK   11  A    between atoms: CD_12  and  OE2_14
REMARK   12  A    between atoms: C_15  and  OXT_17
REMARK                            x       y       z     vdW  Elec       q    Type
REMARK                         _______ _______ _______ _____ _____    ______ ____
ROOT
ATOM      1  CA  GLU A   1       3.951   3.091  19.122  0.00  0.00    +0.000 C 
ENDROOT
BRANCH   1   4
ATOM      2  C   UNK A   0       5.968   4.429  18.688  0.00  0.00    +0.000 C 
ATOM      3  O   UNK A   0       5.962   4.905  19.814  0.00  0.00    +0.000 OA
ATOM      4  N   GLU A   1       5.052   3.522  18.263  0.00  0.00    +0.000 N 
ATOM      5  H   GLU A   1       5.172   3.100  17.347  0.00  0.00    +0.000 HD
BRANCH   2   6
ATOM      6  O   UNK A   0       6.830   4.751  17.692  0.00  0.00    +0.000 OA
BRANCH   6   8
ATOM      7  C   UNK A   0       7.501   7.106  17.335  0.00  0.00    +0.000 C 
ATOM      8  C   UNK A   0       6.581   5.953  16.911  0.00  0.00    +0.000 C 
ATOM      9  C   UNK A   0       5.097   6.349  16.971  0.00  0.00    +0.000 C 
ATOM     10  C   UNK A   0       6.917   5.593  15.454  0.00  0.00    +0.000 C 
ENDBRANCH   6   8
ENDBRANCH   2   6
ENDBRANCH   1   4
BRANCH   1  11
ATOM     11  C   GLU A   1       3.348   1.788  18.577  0.00  0.00    +0.000 C 
ATOM     12  O   GLU A   1       2.175   1.671  18.249  0.00  0.00    +0.000 OA
BRANCH  11  13
ATOM     13  OXT GLU A   1       4.219   0.756  18.503  0.00  0.00    +0.000 OA
ATOM     14  HXT GLU A   1       4.758   0.599  19.303  0.00  0.00    +0.000 HD
ENDBRANCH  11  13
ENDBRANCH   1  11
BRANCH   1  15
ATOM     15  CB  GLU A   1       2.875   4.180  19.266  0.00  0.00    +0.000 C 
BRANCH  15  16
ATOM     16  CG  GLU A   1       2.441   4.407  20.716  0.00  0.00    +0.000 C 
BRANCH  16  17
ATOM     17  CD  GLU A   1       1.515   3.317  21.197  0.00  0.00    +0.000 C 
ATOM     18  OE1 GLU A   1       1.671   2.660  22.215  0.00  0.00    +0.000 OA
BRANCH  17  19
ATOM     19  OE2 GLU A   1       0.478   3.119  20.354  0.00  0.00    +0.000 OA
ATOM     20  HE2 GLU A   1       0.053   2.245  20.445  0.00  0.00    +0.000 HD
ENDBRANCH  17  19
ENDBRANCH  16  17
ENDBRANCH  15  16
ENDBRANCH   1  15
TORSDOF 9
ENDMDL
MODEL 8
REMARK VINA RESULT:      -6.1      1.721      2.307
REMARK  Name = 
REMARK  12 active torsions:
REMARK  status: ('A' for Active; 'I' for Inactive)
REMARK    1  A    between atoms: C_1  and  C_2
REMARK    2  A    between atoms: C_2  and  C_3
REMARK    3  A    between atoms: C_2  and  C_4
REMARK    4  A    between atoms: C_2  and  O_5
REMARK    5  A    between atoms: O_5  and  C_6
REMARK    6  A    between atoms: N_8  and  CA_9
REMARK    7  A    between atoms: CA_9  and  CB_10
REMARK    8  A    between atoms: CA_9  and  C_15
REMARK    9  A    between atoms: CB_10  and  CG_11
REMARK   10  A    between atoms: CG_11  and  CD_12
REMARK   11  A    between atoms: CD_12  and  OE2_14
REMARK   12  A    between atoms: C_15  and  OXT_17
REMARK                            x       y       z     vdW  Elec       q    Type
REMARK                         _______ _______ _______ _____ _____    ______ ____
ROOT
ATOM      1  CA  GLU A   1       6.996   5.461  18.145  0.00  0.00    +0.000 C 
ENDROOT
BRANCH   1   4
ATOM      2  C   UNK A   0       4.855   4.667  19.060  0.00  0.00    +0.000 C 
ATOM      3  O   UNK A   0       5.402   3.827  19.761  0.00  0.00    +0.000 OA
ATOM      4  N   GLU A   1       5.541   5.524  18.261  0.00  0.00    +0.000 N 
ATOM      5  H   GLU A   1       5.028   6.256  17.778  0.00  0.00    +0.000 HD
BRANCH   2   6
ATOM      6  O   UNK A   0       3.518   4.847  18.930  0.00  0.00    +0.000 OA
BRANCH   6   8
ATOM      7  C   UNK A   0       2.098   3.018  19.804  0.00  0.00    +0.000 C 
ATOM      8  C   UNK A   0       2.690   3.706  18.566  0.00  0.00    +0.000 C 
ATOM      9  C   UNK A   0       3.469   2.724  17.678  0.00  0.00    +0.000 C 
ATOM     10  C   UNK A   0       1.524   4.271  17.739  0.00  0.00    +0.000 C 
ENDBRANCH   6   8
ENDBRANCH   2   6
ENDBRANCH   1   4
BRANCH   1  11
ATOM     11  C   GLU A   1       7.556   6.862  17.866  0.00  0.00    +0.000 C 
ATOM     12  O   GLU A   1       8.326   7.445  18.618  0.00  0.00    +0.000 OA
BRANCH  11  13
ATOM     13  OXT GLU A   1       7.113   7.424  16.718  0.00  0.00    +0.000 OA
ATOM     14  HXT GLU A   1       7.302   8.377  16.613  0.00  0.00    +0.000 HD
ENDBRANCH  11  13
ENDBRANCH   1  11
BRANCH   1  15
ATOM     15  CB  GLU A   1       7.442   4.462  17.065  0.00  0.00    +0.000 C 
BRANCH  15  16
ATOM     16  CG  GLU A   1       6.371   4.209  16.001  0.00  0.00    +0.000 C 
BRANCH  16  17
ATOM     17  CD  GLU A   1       6.878   4.522  14.615  0.00  0.00    +0.000 C 
ATOM     18  OE1 GLU A   1       7.588   5.473  14.324  0.00  0.00    +0.000 OA
BRANCH  17  19
ATOM     19  OE2 GLU A   1       6.438   3.634  13.697  0.00  0.00    +0.000 OA
ATOM     20  HE2 GLU A   1       5.471   3.650  13.562  0.00  0.00    +0.000 HD
ENDBRANCH  17  19
ENDBRANCH  16  17
ENDBRANCH  15  16
ENDBRANCH   1  15
TORSDOF 9
ENDMDL
MODEL 9
REMARK VINA RESULT:      -6.0      2.046      5.782
REMARK  Name = 
REMARK  12 active torsions:
REMARK  status: ('A' for Active; 'I' for Inactive)
REMARK    1  A    between atoms: C_1  and  C_2
REMARK    2  A    between atoms: C_2  and  C_3
REMARK    3  A    between atoms: C_2  and  C_4
REMARK    4  A    between atoms: C_2  and  O_5
REMARK    5  A    between atoms: O_5  and  C_6
REMARK    6  A    between atoms: N_8  and  CA_9
REMARK    7  A    between atoms: CA_9  and  CB_10
REMARK    8  A    between atoms: CA_9  and  C_15
REMARK    9  A    between atoms: CB_10  and  CG_11
REMARK   10  A    between atoms: CG_11  and  CD_12
REMARK   11  A    between atoms: CD_12  and  OE2_14
REMARK   12  A    between atoms: C_15  and  OXT_17
REMARK                            x       y       z     vdW  Elec       q    Type
REMARK                         _______ _______ _______ _____ _____    ______ ____
ROOT
ATOM      1  CA  GLU A   1       3.466   3.275  19.115  0.00  0.00    +0.000 C 
ENDROOT
BRANCH   1   4
ATOM      2  C   UNK A   0       4.862   5.186  18.444  0.00  0.00    +0.000 C 
ATOM      3  O   UNK A   0       5.005   5.557  19.601  0.00  0.00    +0.000 OA
ATOM      4  N   GLU A   1       4.155   4.077  18.107  0.00  0.00    +0.000 N 
ATOM      5  H   GLU A   1       4.155   3.776  17.137  0.00  0.00    +0.000 HD
BRANCH   2   6
ATOM      6  O   UNK A   0       5.326   5.821  17.340  0.00  0.00    +0.000 OA
BRANCH   6   8
ATOM      7  C   UNK A   0       7.445   4.636  17.817  0.00  0.00    +0.000 C 
ATOM      8  C   UNK A   0       6.750   5.769  17.049  0.00  0.00    +0.000 C 
ATOM      9  C   UNK A   0       7.413   7.132  17.309  0.00  0.00    +0.000 C 
ATOM     10  C   UNK A   0       6.869   5.463  15.547  0.00  0.00    +0.000 C 
ENDBRANCH   6   8
ENDBRANCH   2   6
ENDBRANCH   1   4
BRANCH   1  11
ATOM     11  C   GLU A   1       4.075   1.867  19.163  0.00  0.00    +0.000 C 
ATOM     12  O   GLU A   1       3.710   0.947  18.443  0.00  0.00    +0.000 OA
BRANCH  11  13
ATOM     13  OXT GLU A   1       5.048   1.709  20.089  0.00  0.00    +0.000 OA
ATOM     14  HXT GLU A   1       5.919   1.430  19.744  0.00  0.00    +0.000 HD
ENDBRANCH  11  13
ENDBRANCH   1  11
BRANCH   1  15
ATOM     15  CB  GLU A   1       1.950   3.213  18.862  0.00  0.00    +0.000 C 
BRANCH  15  16
ATOM     16  CG  GLU A   1       1.126   3.822  19.999  0.00  0.00    +0.000 C 
BRANCH  16  17
ATOM     17  CD  GLU A   1       1.971   4.083  21.221  0.00  0.00    +0.000 C 
ATOM     18  OE1 GLU A   1       2.197   3.274  22.107  0.00  0.00    +0.000 OA
BRANCH  17  19
ATOM     19  OE2 GLU A   1       2.451   5.346  21.248  0.00  0.00    +0.000 OA
ATOM     20  HE2 GLU A   1       2.168   5.862  22.028  0.00  0.00    +0.000 HD
ENDBRANCH  17  19
ENDBRANCH  16  17
ENDBRANCH  15  16
ENDBRANCH   1  15
TORSDOF 9
ENDMDL
