MODEL 1
REMARK VINA RESULT:      -7.2      0.000      0.000
REMARK  Name = 
REMARK  9 active torsions:
REMARK  status: ('A' for Active; 'I' for Inactive)
REMARK    1  A    between atoms: C_1  and  C_2
REMARK    2  A    between atoms: C_2  and  O_3
REMARK    3  A    between atoms: O_3  and  C_4
REMARK    4  A    between atoms: C_4  and  C_6
REMARK    5  A    between atoms: C_6  and  C_7
REMARK    6  A    between atoms: C_7  and  C_8
REMARK    7  A    between atoms: C_19  and  C_20
REMARK    8  A    between atoms: C_23  and  C_24
REMARK    9  A    between atoms: N_28  and  C_29
REMARK                            x       y       z     vdW  Elec       q    Type
REMARK                         _______ _______ _______ _____ _____    ______ ____
ROOT
ATOM      1  C   UNL     1      -4.389  15.475  24.003  0.00  0.00    +0.000 C 
ATOM      2  C   UNL     1      -3.925  14.340  23.079  0.00  0.00    +0.000 C 
ATOM      3  C   UNL     1      -3.989  12.974  23.789  0.00  0.00    +0.000 C 
ATOM      4  O   UNL     1      -4.838  12.677  24.627  0.00  0.00    +0.000 OA
ATOM      5  C   UNL     1      -3.015  11.914  23.420  0.00  0.00    +0.000 C 
ATOM      6  C   UNL     1      -1.915  12.178  22.703  0.00  0.00    +0.000 C 
ATOM      7  C   UNL     1      -0.988  11.109  22.335  0.00  0.00    +0.000 C 
ATOM      8  C   UNL     1       0.061  11.386  21.521  0.00  0.00    +0.000 C 
ATOM      9  N   UNL     1       0.340  12.704  21.062  0.00  0.00    +0.000 N 
ATOM     10  C   UNL     1      -0.483  13.731  21.576  0.00  0.00    +0.000 C 
ATOM     11  C   UNL     1      -1.597  13.534  22.305  0.00  0.00    +0.000 C 
ATOM     12  C   UNL     1      -2.492  14.677  22.635  0.00  0.00    +0.000 C 
ATOM     13  O   UNL     1      -2.105  15.834  22.460  0.00  0.00    +0.000 OA
ENDROOT
BRANCH   8  14
ATOM     14  C   UNL     1       0.832  10.200  21.085  0.00  0.00    +0.000 A 
ATOM     15  C   UNL     1       1.059  10.007  19.714  0.00  0.00    +0.000 A 
ATOM     16  C   UNL     1       1.572   8.797  19.235  0.00  0.00    +0.000 A 
ATOM     17  C   UNL     1       1.869   7.761  20.124  0.00  0.00    +0.000 A 
ATOM     18  C   UNL     1       1.677   7.955  21.497  0.00  0.00    +0.000 A 
ATOM     19  C   UNL     1       1.160   9.172  21.977  0.00  0.00    +0.000 A 
BRANCH  17  20
ATOM     20  C   UNL     1       2.325   6.491  19.627  0.00  0.00    +0.000 C 
ATOM     21  N   UNL     1       2.670   5.467  19.216  0.00  0.00    +0.000 NA
ENDBRANCH  17  20
ENDBRANCH   8  14
BRANCH   9  22
ATOM     22  C   UNL     1       1.404  13.001  20.055  0.00  0.00    +0.000 C 
ATOM     23  C   UNL     1       0.977  13.953  18.922  0.00  0.00    +0.000 C 
ATOM     24  C   UNL     1       2.222  14.715  18.499  0.00  0.00    +0.000 C 
ATOM     25  C   UNL     1       3.242  14.558  19.616  0.00  0.00    +0.000 C 
ATOM     26  C   UNL     1       2.624  13.667  20.688  0.00  0.00    +0.000 C 
ENDBRANCH   9  22
BRANCH   2  27
ATOM     27  O   UNL     1      -4.664  14.352  21.830  0.00  0.00    +0.000 OA
BRANCH  27  28
ATOM     28  C   UNL     1      -5.793  13.606  21.712  0.00  0.00    +0.000 C 
ATOM     29  O   UNL     1      -6.885  13.900  22.171  0.00  0.00    +0.000 OA
BRANCH  28  30
ATOM     30  C   UNL     1      -5.587  12.378  20.858  0.00  0.00    +0.000 C 
BRANCH  30  31
ATOM     31  C   UNL     1      -5.331  12.717  19.396  0.00  0.00    +0.000 C 
BRANCH  31  32
ATOM     32  C   UNL     1      -4.257  11.848  18.794  0.00  0.00    +0.000 A 
ATOM     33  C   UNL     1      -2.908  12.091  19.082  0.00  0.00    +0.000 A 
ATOM     34  C   UNL     1      -1.914  11.279  18.536  0.00  0.00    +0.000 A 
ATOM     35  C   UNL     1      -2.259  10.225  17.693  0.00  0.00    +0.000 A 
ATOM     36  C   UNL     1      -3.598   9.986  17.388  0.00  0.00    +0.000 A 
ATOM     37  C   UNL     1      -4.594  10.797  17.933  0.00  0.00    +0.000 A 
ENDBRANCH  31  32
ENDBRANCH  30  31
ENDBRANCH  28  30
ENDBRANCH  27  28
ENDBRANCH   2  27
TORSDOF 8
ENDMDL
MODEL 2
REMARK VINA RESULT:      -6.7      2.545      5.726
REMARK  Name = 
REMARK  9 active torsions:
REMARK  status: ('A' for Active; 'I' for Inactive)
REMARK    1  A    between atoms: C_1  and  C_2
REMARK    2  A    between atoms: C_2  and  O_3
REMARK    3  A    between atoms: O_3  and  C_4
REMARK    4  A    between atoms: C_4  and  C_6
REMARK    5  A    between atoms: C_6  and  C_7
REMARK    6  A    between atoms: C_7  and  C_8
REMARK    7  A    between atoms: C_19  and  C_20
REMARK    8  A    between atoms: C_23  and  C_24
REMARK    9  A    between atoms: N_28  and  C_29
REMARK                            x       y       z     vdW  Elec       q    Type
REMARK                         _______ _______ _______ _____ _____    ______ ____
ROOT
ATOM      1  C   UNL     1       1.045  18.230  18.846  0.00  0.00    +0.000 C 
ATOM      2  C   UNL     1       1.028  16.856  19.532  0.00  0.00    +0.000 C 
ATOM      3  C   UNL     1       2.442  16.253  19.621  0.00  0.00    +0.000 C 
ATOM      4  O   UNL     1       3.463  16.920  19.772  0.00  0.00    +0.000 OA
ATOM      5  C   UNL     1       2.608  14.777  19.580  0.00  0.00    +0.000 C 
ATOM      6  C   UNL     1       1.619  13.960  19.194  0.00  0.00    +0.000 C 
ATOM      7  C   UNL     1       1.805  12.510  19.188  0.00  0.00    +0.000 C 
ATOM      8  C   UNL     1       0.755  11.703  18.894  0.00  0.00    +0.000 C 
ATOM      9  N   UNL     1      -0.517  12.218  18.517  0.00  0.00    +0.000 N 
ATOM     10  C   UNL     1      -0.605  13.621  18.375  0.00  0.00    +0.000 C 
ATOM     11  C   UNL     1       0.352  14.494  18.738  0.00  0.00    +0.000 C 
ATOM     12  C   UNL     1       0.081  15.958  18.720  0.00  0.00    +0.000 C 
ATOM     13  O   UNL     1      -0.921  16.393  18.148  0.00  0.00    +0.000 OA
ENDROOT
BRANCH   8  14
ATOM     14  C   UNL     1       1.019  10.258  19.080  0.00  0.00    +0.000 A 
ATOM     15  C   UNL     1       0.876   9.705  20.362  0.00  0.00    +0.000 A 
ATOM     16  C   UNL     1       1.332   8.412  20.639  0.00  0.00    +0.000 A 
ATOM     17  C   UNL     1       1.938   7.652  19.635  0.00  0.00    +0.000 A 
ATOM     18  C   UNL     1       2.055   8.183  18.345  0.00  0.00    +0.000 A 
ATOM     19  C   UNL     1       1.597   9.483  18.068  0.00  0.00    +0.000 A 
BRANCH  17  20
ATOM     20  C   UNL     1       2.475   6.353  19.937  0.00  0.00    +0.000 C 
ATOM     21  N   UNL     1       2.890   5.305  20.196  0.00  0.00    +0.000 NA
ENDBRANCH  17  20
ENDBRANCH   8  14
BRANCH   9  22
ATOM     22  C   UNL     1      -1.717  11.347  18.329  0.00  0.00    +0.000 C 
ATOM     23  C   UNL     1      -3.064  12.020  18.656  0.00  0.00    +0.000 C 
ATOM     24  C   UNL     1      -4.104  11.378  17.752  0.00  0.00    +0.000 C 
ATOM     25  C   UNL     1      -3.350  10.682  16.629  0.00  0.00    +0.000 C 
ATOM     26  C   UNL     1      -1.858  10.870  16.885  0.00  0.00    +0.000 C 
ENDBRANCH   9  22
BRANCH   2  27
ATOM     27  O   UNL     1       0.373  16.932  20.826  0.00  0.00    +0.000 OA
BRANCH  27  28
ATOM     28  C   UNL     1       1.119  17.138  21.943  0.00  0.00    +0.000 C 
ATOM     29  O   UNL     1       1.688  18.178  22.231  0.00  0.00    +0.000 OA
BRANCH  28  30
ATOM     30  C   UNL     1       1.109  15.947  22.871  0.00  0.00    +0.000 C 
BRANCH  30  31
ATOM     31  C   UNL     1      -0.208  15.799  23.620  0.00  0.00    +0.000 C 
BRANCH  31  32
ATOM     32  C   UNL     1      -0.891  14.492  23.310  0.00  0.00    +0.000 A 
ATOM     33  C   UNL     1      -2.041  14.112  24.013  0.00  0.00    +0.000 A 
ATOM     34  C   UNL     1      -2.682  12.908  23.717  0.00  0.00    +0.000 A 
ATOM     35  C   UNL     1      -2.174  12.073  22.724  0.00  0.00    +0.000 A 
ATOM     36  C   UNL     1      -1.021  12.436  22.030  0.00  0.00    +0.000 A 
ATOM     37  C   UNL     1      -0.378  13.639  22.324  0.00  0.00    +0.000 A 
ENDBRANCH  31  32
ENDBRANCH  30  31
ENDBRANCH  28  30
ENDBRANCH  27  28
ENDBRANCH   2  27
TORSDOF 8
ENDMDL
MODEL 3
REMARK VINA RESULT:      -6.2      4.551      9.264
REMARK  Name = 
REMARK  9 active torsions:
REMARK  status: ('A' for Active; 'I' for Inactive)
REMARK    1  A    between atoms: C_1  and  C_2
REMARK    2  A    between atoms: C_2  and  O_3
REMARK    3  A    between atoms: O_3  and  C_4
REMARK    4  A    between atoms: C_4  and  C_6
REMARK    5  A    between atoms: C_6  and  C_7
REMARK    6  A    between atoms: C_7  and  C_8
REMARK    7  A    between atoms: C_19  and  C_20
REMARK    8  A    between atoms: C_23  and  C_24
REMARK    9  A    between atoms: N_28  and  C_29
REMARK                            x       y       z     vdW  Elec       q    Type
REMARK                         _______ _______ _______ _____ _____    ______ ____
ROOT
ATOM      1  C   UNL     1       5.212  16.087  20.232  0.00  0.00    +0.000 C 
ATOM      2  C   UNL     1       4.128  15.307  19.474  0.00  0.00    +0.000 C 
ATOM      3  C   UNL     1       3.109  16.256  18.815  0.00  0.00    +0.000 C 
ATOM      4  O   UNL     1       3.395  17.363  18.363  0.00  0.00    +0.000 OA
ATOM      5  C   UNL     1       1.700  15.813  18.652  0.00  0.00    +0.000 C 
ATOM      6  C   UNL     1       1.212  14.744  19.295  0.00  0.00    +0.000 C 
ATOM      7  C   UNL     1      -0.173  14.318  19.096  0.00  0.00    +0.000 C 
ATOM      8  C   UNL     1      -0.610  13.173  19.677  0.00  0.00    +0.000 C 
ATOM      9  N   UNL     1       0.213  12.398  20.542  0.00  0.00    +0.000 N 
ATOM     10  C   UNL     1       1.486  12.934  20.839  0.00  0.00    +0.000 C 
ATOM     11  C   UNL     1       2.031  14.005  20.233  0.00  0.00    +0.000 C 
ATOM     12  C   UNL     1       3.452  14.370  20.488  0.00  0.00    +0.000 C 
ATOM     13  O   UNL     1       4.063  13.855  21.427  0.00  0.00    +0.000 OA
ENDROOT
BRANCH   8  14
ATOM     14  C   UNL     1      -1.972  12.758  19.272  0.00  0.00    +0.000 A 
ATOM     15  C   UNL     1      -3.053  13.086  20.104  0.00  0.00    +0.000 A 
ATOM     16  C   UNL     1      -4.316  12.524  19.892  0.00  0.00    +0.000 A 
ATOM     17  C   UNL     1      -4.516  11.625  18.841  0.00  0.00    +0.000 A 
ATOM     18  C   UNL     1      -3.452  11.317  17.986  0.00  0.00    +0.000 A 
ATOM     19  C   UNL     1      -2.182  11.882  18.201  0.00  0.00    +0.000 A 
BRANCH  17  20
ATOM     20  C   UNL     1      -5.794  10.989  18.668  0.00  0.00    +0.000 C 
ATOM     21  N   UNL     1      -6.831  10.497  18.524  0.00  0.00    +0.000 NA
ENDBRANCH  17  20
ENDBRANCH   8  14
BRANCH   9  22
ATOM     22  C   UNL     1      -0.205  11.066  21.075  0.00  0.00    +0.000 C 
ATOM     23  C   UNL     1       0.933  10.037  21.215  0.00  0.00    +0.000 C 
ATOM     24  C   UNL     1       0.565   9.135  22.382  0.00  0.00    +0.000 C 
ATOM     25  C   UNL     1      -0.507   9.857  23.183  0.00  0.00    +0.000 C 
ATOM     26  C   UNL     1      -0.812  11.172  22.472  0.00  0.00    +0.000 C 
ENDBRANCH   9  22
BRANCH   2  27
ATOM     27  O   UNL     1       4.722  14.384  18.524  0.00  0.00    +0.000 OA
BRANCH  27  28
ATOM     28  C   UNL     1       5.856  14.738  17.865  0.00  0.00    +0.000 C 
ATOM     29  O   UNL     1       6.017  15.775  17.242  0.00  0.00    +0.000 OA
BRANCH  28  30
ATOM     30  C   UNL     1       6.969  13.735  18.051  0.00  0.00    +0.000 C 
BRANCH  30  31
ATOM     31  C   UNL     1       8.297  14.390  18.402  0.00  0.00    +0.000 C 
BRANCH  31  32
ATOM     32  C   UNL     1       9.448  13.424  18.304  0.00  0.00    +0.000 A 
ATOM     33  C   UNL     1       9.478  12.277  19.108  0.00  0.00    +0.000 A 
ATOM     34  C   UNL     1      10.537  11.374  19.008  0.00  0.00    +0.000 A 
ATOM     35  C   UNL     1      11.577  11.614  18.112  0.00  0.00    +0.000 A 
ATOM     36  C   UNL     1      11.564  12.761  17.320  0.00  0.00    +0.000 A 
ATOM     37  C   UNL     1      10.506  13.665  17.418  0.00  0.00    +0.000 A 
ENDBRANCH  31  32
ENDBRANCH  30  31
ENDBRANCH  28  30
ENDBRANCH  27  28
ENDBRANCH   2  27
TORSDOF 8
ENDMDL
MODEL 4
REMARK VINA RESULT:      -6.2      4.366      9.097
REMARK  Name = 
REMARK  9 active torsions:
REMARK  status: ('A' for Active; 'I' for Inactive)
REMARK    1  A    between atoms: C_1  and  C_2
REMARK    2  A    between atoms: C_2  and  O_3
REMARK    3  A    between atoms: O_3  and  C_4
REMARK    4  A    between atoms: C_4  and  C_6
REMARK    5  A    between atoms: C_6  and  C_7
REMARK    6  A    between atoms: C_7  and  C_8
REMARK    7  A    between atoms: C_19  and  C_20
REMARK    8  A    between atoms: C_23  and  C_24
REMARK    9  A    between atoms: N_28  and  C_29
REMARK                            x       y       z     vdW  Elec       q    Type
REMARK                         _______ _______ _______ _____ _____    ______ ____
ROOT
ATOM      1  C   UNL     1       5.195  15.971  21.094  0.00  0.00    +0.000 C 
ATOM      2  C   UNL     1       4.159  15.249  20.219  0.00  0.00    +0.000 C 
ATOM      3  C   UNL     1       3.194  16.246  19.549  0.00  0.00    +0.000 C 
ATOM      4  O   UNL     1       3.520  17.374  19.184  0.00  0.00    +0.000 OA
ATOM      5  C   UNL     1       1.797  15.829  19.265  0.00  0.00    +0.000 C 
ATOM      6  C   UNL     1       1.258  14.731  19.810  0.00  0.00    +0.000 C 
ATOM      7  C   UNL     1      -0.113  14.333  19.491  0.00  0.00    +0.000 C 
ATOM      8  C   UNL     1      -0.597  13.161  19.973  0.00  0.00    +0.000 C 
ATOM      9  N   UNL     1       0.158  12.328  20.845  0.00  0.00    +0.000 N 
ATOM     10  C   UNL     1       1.412  12.831  21.259  0.00  0.00    +0.000 C 
ATOM     11  C   UNL     1       2.006  13.929  20.756  0.00  0.00    +0.000 C 
ATOM     12  C   UNL     1       3.409  14.263  21.128  0.00  0.00    +0.000 C 
ATOM     13  O   UNL     1       3.950  13.687  22.074  0.00  0.00    +0.000 OA
ENDROOT
BRANCH   8  14
ATOM     14  C   UNL     1      -1.931  12.786  19.453  0.00  0.00    +0.000 A 
ATOM     15  C   UNL     1      -3.068  13.117  20.206  0.00  0.00    +0.000 A 
ATOM     16  C   UNL     1      -4.321  12.588  19.882  0.00  0.00    +0.000 A 
ATOM     17  C   UNL     1      -4.456  11.720  18.796  0.00  0.00    +0.000 A 
ATOM     18  C   UNL     1      -3.334  11.409  18.019  0.00  0.00    +0.000 A 
ATOM     19  C   UNL     1      -2.074  11.941  18.346  0.00  0.00    +0.000 A 
BRANCH  17  20
ATOM     20  C   UNL     1      -5.729  11.116  18.508  0.00  0.00    +0.000 C 
ATOM     21  N   UNL     1      -6.761  10.639  18.296  0.00  0.00    +0.000 NA
ENDBRANCH  17  20
ENDBRANCH   8  14
BRANCH   9  22
ATOM     22  C   UNL     1      -0.305  10.972  21.269  0.00  0.00    +0.000 C 
ATOM     23  C   UNL     1       0.734   9.847  21.096  0.00  0.00    +0.000 C 
ATOM     24  C   UNL     1       0.457   8.825  22.186  0.00  0.00    +0.000 C 
ATOM     25  C   UNL     1      -0.406   9.512  23.233  0.00  0.00    +0.000 C 
ATOM     26  C   UNL     1      -0.683  10.932  22.749  0.00  0.00    +0.000 C 
ENDBRANCH   9  22
BRANCH   2  27
ATOM     27  O   UNL     1       4.810  14.376  19.259  0.00  0.00    +0.000 OA
BRANCH  27  28
ATOM     28  C   UNL     1       5.732  14.890  18.403  0.00  0.00    +0.000 C 
ATOM     29  O   UNL     1       5.481  15.524  17.391  0.00  0.00    +0.000 OA
BRANCH  28  30
ATOM     30  C   UNL     1       7.147  14.670  18.880  0.00  0.00    +0.000 C 
BRANCH  30  31
ATOM     31  C   UNL     1       7.961  13.807  17.925  0.00  0.00    +0.000 C 
BRANCH  31  32
ATOM     32  C   UNL     1       9.096  13.106  18.624  0.00  0.00    +0.000 A 
ATOM     33  C   UNL     1      10.071  12.428  17.882  0.00  0.00    +0.000 A 
ATOM     34  C   UNL     1      11.131  11.790  18.527  0.00  0.00    +0.000 A 
ATOM     35  C   UNL     1      11.220  11.818  19.917  0.00  0.00    +0.000 A 
ATOM     36  C   UNL     1      10.245  12.476  20.665  0.00  0.00    +0.000 A 
ATOM     37  C   UNL     1       9.184  13.115  20.022  0.00  0.00    +0.000 A 
ENDBRANCH  31  32
ENDBRANCH  30  31
ENDBRANCH  28  30
ENDBRANCH  27  28
ENDBRANCH   2  27
TORSDOF 8
ENDMDL
MODEL 5
REMARK VINA RESULT:      -6.2      5.552      9.726
REMARK  Name = 
REMARK  9 active torsions:
REMARK  status: ('A' for Active; 'I' for Inactive)
REMARK    1  A    between atoms: C_1  and  C_2
REMARK    2  A    between atoms: C_2  and  O_3
REMARK    3  A    between atoms: O_3  and  C_4
REMARK    4  A    between atoms: C_4  and  C_6
REMARK    5  A    between atoms: C_6  and  C_7
REMARK    6  A    between atoms: C_7  and  C_8
REMARK    7  A    between atoms: C_19  and  C_20
REMARK    8  A    between atoms: C_23  and  C_24
REMARK    9  A    between atoms: N_28  and  C_29
REMARK                            x       y       z     vdW  Elec       q    Type
REMARK                         _______ _______ _______ _____ _____    ______ ____
ROOT
ATOM      1  C   UNL     1       4.537   5.094  16.991  0.00  0.00    +0.000 C 
ATOM      2  C   UNL     1       4.185   6.020  18.164  0.00  0.00    +0.000 C 
ATOM      3  C   UNL     1       3.179   5.357  19.124  0.00  0.00    +0.000 C 
ATOM      4  O   UNL     1       3.150   4.151  19.359  0.00  0.00    +0.000 OA
ATOM      5  C   UNL     1       2.211   6.206  19.865  0.00  0.00    +0.000 C 
ATOM      6  C   UNL     1       1.986   7.484  19.533  0.00  0.00    +0.000 C 
ATOM      7  C   UNL     1       1.045   8.301  20.297  0.00  0.00    +0.000 C 
ATOM      8  C   UNL     1       0.915   9.620  20.006  0.00  0.00    +0.000 C 
ATOM      9  N   UNL     1       1.614  10.232  18.928  0.00  0.00    +0.000 N 
ATOM     10  C   UNL     1       2.384   9.371  18.114  0.00  0.00    +0.000 C 
ATOM     11  C   UNL     1       2.643   8.079  18.387  0.00  0.00    +0.000 C 
ATOM     12  C   UNL     1       3.620   7.316  17.562  0.00  0.00    +0.000 C 
ATOM     13  O   UNL     1       4.010   7.776  16.487  0.00  0.00    +0.000 OA
ENDROOT
BRANCH   8  14
ATOM     14  C   UNL     1       0.061  10.377  20.948  0.00  0.00    +0.000 A 
ATOM     15  C   UNL     1       0.033   9.989  22.297  0.00  0.00    +0.000 A 
ATOM     16  C   UNL     1      -0.922  10.513  23.173  0.00  0.00    +0.000 A 
ATOM     17  C   UNL     1      -1.864  11.437  22.713  0.00  0.00    +0.000 A 
ATOM     18  C   UNL     1      -1.824  11.855  21.378  0.00  0.00    +0.000 A 
ATOM     19  C   UNL     1      -0.863  11.326  20.497  0.00  0.00    +0.000 A 
BRANCH  17  20
ATOM     20  C   UNL     1      -2.893  11.919  23.594  0.00  0.00    +0.000 C 
ATOM     21  N   UNL     1      -3.736  12.294  24.291  0.00  0.00    +0.000 NA
ENDBRANCH  17  20
ENDBRANCH   8  14
BRANCH   9  22
ATOM     22  C   UNL     1       1.591  11.706  18.684  0.00  0.00    +0.000 C 
ATOM     23  C   UNL     1       1.862  12.574  19.927  0.00  0.00    +0.000 C 
ATOM     24  C   UNL     1       2.537  13.844  19.434  0.00  0.00    +0.000 C 
ATOM     25  C   UNL     1       3.051  13.561  18.031  0.00  0.00    +0.000 C 
ATOM     26  C   UNL     1       2.647  12.136  17.667  0.00  0.00    +0.000 C 
ENDBRANCH   9  22
BRANCH   2  27
ATOM     27  O   UNL     1       5.385   6.474  18.844  0.00  0.00    +0.000 OA
BRANCH  27  28
ATOM     28  C   UNL     1       6.516   5.724  18.779  0.00  0.00    +0.000 C 
ATOM     29  O   UNL     1       6.561   4.506  18.841  0.00  0.00    +0.000 OA
BRANCH  28  30
ATOM     30  C   UNL     1       7.749   6.559  18.530  0.00  0.00    +0.000 C 
BRANCH  30  31
ATOM     31  C   UNL     1       7.491   7.712  17.569  0.00  0.00    +0.000 C 
BRANCH  31  32
ATOM     32  C   UNL     1       8.130   8.993  18.039  0.00  0.00    +0.000 A 
ATOM     33  C   UNL     1       7.927  10.184  17.330  0.00  0.00    +0.000 A 
ATOM     34  C   UNL     1       8.507  11.374  17.772  0.00  0.00    +0.000 A 
ATOM     35  C   UNL     1       9.299  11.381  18.918  0.00  0.00    +0.000 A 
ATOM     36  C   UNL     1       9.520  10.196  19.620  0.00  0.00    +0.000 A 
ATOM     37  C   UNL     1       8.941   9.006  19.180  0.00  0.00    +0.000 A 
ENDBRANCH  31  32
ENDBRANCH  30  31
ENDBRANCH  28  30
ENDBRANCH  27  28
ENDBRANCH   2  27
TORSDOF 8
ENDMDL
MODEL 6
REMARK VINA RESULT:      -6.1      1.372      2.043
REMARK  Name = 
REMARK  9 active torsions:
REMARK  status: ('A' for Active; 'I' for Inactive)
REMARK    1  A    between atoms: C_1  and  C_2
REMARK    2  A    between atoms: C_2  and  O_3
REMARK    3  A    between atoms: O_3  and  C_4
REMARK    4  A    between atoms: C_4  and  C_6
REMARK    5  A    between atoms: C_6  and  C_7
REMARK    6  A    between atoms: C_7  and  C_8
REMARK    7  A    between atoms: C_19  and  C_20
REMARK    8  A    between atoms: C_23  and  C_24
REMARK    9  A    between atoms: N_28  and  C_29
REMARK                            x       y       z     vdW  Elec       q    Type
REMARK                         _______ _______ _______ _____ _____    ______ ____
ROOT
ATOM      1  C   UNL     1      -2.635  16.064  24.669  0.00  0.00    +0.000 C 
ATOM      2  C   UNL     1      -2.546  15.063  23.508  0.00  0.00    +0.000 C 
ATOM      3  C   UNL     1      -2.989  13.654  23.945  0.00  0.00    +0.000 C 
ATOM      4  O   UNL     1      -3.866  13.439  24.779  0.00  0.00    +0.000 OA
ATOM      5  C   UNL     1      -2.377  12.464  23.297  0.00  0.00    +0.000 C 
ATOM      6  C   UNL     1      -1.267  12.552  22.553  0.00  0.00    +0.000 C 
ATOM      7  C   UNL     1      -0.702  11.367  21.909  0.00  0.00    +0.000 C 
ATOM      8  C   UNL     1       0.360  11.502  21.077  0.00  0.00    +0.000 C 
ATOM      9  N   UNL     1       1.000  12.754  20.858  0.00  0.00    +0.000 N 
ATOM     10  C   UNL     1       0.527  13.840  21.628  0.00  0.00    +0.000 C 
ATOM     11  C   UNL     1      -0.577  13.816  22.398  0.00  0.00    +0.000 C 
ATOM     12  C   UNL     1      -1.090  15.070  23.016  0.00  0.00    +0.000 C 
ATOM     13  O   UNL     1      -0.386  16.082  23.035  0.00  0.00    +0.000 OA
ENDROOT
BRANCH   8  14
ATOM     14  C   UNL     1       0.739  10.265  20.357  0.00  0.00    +0.000 A 
ATOM     15  C   UNL     1       1.091   9.130  21.104  0.00  0.00    +0.000 A 
ATOM     16  C   UNL     1       1.676   8.020  20.486  0.00  0.00    +0.000 A 
ATOM     17  C   UNL     1       1.916   8.028  19.110  0.00  0.00    +0.000 A 
ATOM     18  C   UNL     1       1.538   9.142  18.351  0.00  0.00    +0.000 A 
ATOM     19  C   UNL     1       0.951  10.259  18.974  0.00  0.00    +0.000 A 
BRANCH  17  20
ATOM     20  C   UNL     1       2.586   6.919  18.487  0.00  0.00    +0.000 C 
ATOM     21  N   UNL     1       3.132   6.020  18.007  0.00  0.00    +0.000 NA
ENDBRANCH  17  20
ENDBRANCH   8  14
BRANCH   9  22
ATOM     22  C   UNL     1       2.078  12.944  19.840  0.00  0.00    +0.000 C 
ATOM     23  C   UNL     1       1.601  13.510  18.488  0.00  0.00    +0.000 C 
ATOM     24  C   UNL     1       2.757  14.317  17.921  0.00  0.00    +0.000 C 
ATOM     25  C   UNL     1       3.713  14.596  19.070  0.00  0.00    +0.000 C 
ATOM     26  C   UNL     1       3.152  13.920  20.316  0.00  0.00    +0.000 C 
ENDBRANCH   9  22
BRANCH   2  27
ATOM     27  O   UNL     1      -3.282  15.543  22.352  0.00  0.00    +0.000 OA
BRANCH  27  28
ATOM     28  C   UNL     1      -4.635  15.650  22.416  0.00  0.00    +0.000 C 
ATOM     29  O   UNL     1      -5.248  16.592  22.892  0.00  0.00    +0.000 OA
BRANCH  28  30
ATOM     30  C   UNL     1      -5.337  14.495  21.744  0.00  0.00    +0.000 C 
BRANCH  30  31
ATOM     31  C   UNL     1      -4.493  13.851  20.653  0.00  0.00    +0.000 C 
BRANCH  31  32
ATOM     32  C   UNL     1      -5.252  12.785  19.907  0.00  0.00    +0.000 A 
ATOM     33  C   UNL     1      -4.670  12.143  18.805  0.00  0.00    +0.000 A 
ATOM     34  C   UNL     1      -5.367  11.147  18.121  0.00  0.00    +0.000 A 
ATOM     35  C   UNL     1      -6.651  10.790  18.527  0.00  0.00    +0.000 A 
ATOM     36  C   UNL     1      -7.244  11.434  19.611  0.00  0.00    +0.000 A 
ATOM     37  C   UNL     1      -6.550  12.431  20.297  0.00  0.00    +0.000 A 
ENDBRANCH  31  32
ENDBRANCH  30  31
ENDBRANCH  28  30
ENDBRANCH  27  28
ENDBRANCH   2  27
TORSDOF 8
ENDMDL
MODEL 7
REMARK VINA RESULT:      -6.1      5.365      9.626
REMARK  Name = 
REMARK  9 active torsions:
REMARK  status: ('A' for Active; 'I' for Inactive)
REMARK    1  A    between atoms: C_1  and  C_2
REMARK    2  A    between atoms: C_2  and  O_3
REMARK    3  A    between atoms: O_3  and  C_4
REMARK    4  A    between atoms: C_4  and  C_6
REMARK    5  A    between atoms: C_6  and  C_7
REMARK    6  A    between atoms: C_7  and  C_8
REMARK    7  A    between atoms: C_19  and  C_20
REMARK    8  A    between atoms: C_23  and  C_24
REMARK    9  A    between atoms: N_28  and  C_29
REMARK                            x       y       z     vdW  Elec       q    Type
REMARK                         _______ _______ _______ _____ _____    ______ ____
ROOT
ATOM      1  C   UNL     1       3.487   4.543  17.840  0.00  0.00    +0.000 C 
ATOM      2  C   UNL     1       3.239   5.596  18.930  0.00  0.00    +0.000 C 
ATOM      3  C   UNL     1       2.166   5.129  19.930  0.00  0.00    +0.000 C 
ATOM      4  O   UNL     1       2.003   3.957  20.264  0.00  0.00    +0.000 OA
ATOM      5  C   UNL     1       1.297   6.138  20.590  0.00  0.00    +0.000 C 
ATOM      6  C   UNL     1       1.215   7.401  20.153  0.00  0.00    +0.000 C 
ATOM      7  C   UNL     1       0.369   8.377  20.838  0.00  0.00    +0.000 C 
ATOM      8  C   UNL     1       0.387   9.673  20.439  0.00  0.00    +0.000 C 
ATOM      9  N   UNL     1       1.149  10.114  19.321  0.00  0.00    +0.000 N 
ATOM     10  C   UNL     1       1.819   9.109  18.588  0.00  0.00    +0.000 C 
ATOM     11  C   UNL     1       1.934   7.823  18.969  0.00  0.00    +0.000 C 
ATOM     12  C   UNL     1       2.821   6.892  18.218  0.00  0.00    +0.000 C 
ATOM     13  O   UNL     1       3.261   7.216  17.113  0.00  0.00    +0.000 OA
ENDROOT
BRANCH   8  14
ATOM     14  C   UNL     1      -0.380  10.595  21.307  0.00  0.00    +0.000 A 
ATOM     15  C   UNL     1      -0.439  10.333  22.685  0.00  0.00    +0.000 A 
ATOM     16  C   UNL     1      -1.330  11.029  23.509  0.00  0.00    +0.000 A 
ATOM     17  C   UNL     1      -2.174  12.000  22.965  0.00  0.00    +0.000 A 
ATOM     18  C   UNL     1      -2.099  12.292  21.599  0.00  0.00    +0.000 A 
ATOM     19  C   UNL     1      -1.204  11.591  20.771  0.00  0.00    +0.000 A 
BRANCH  17  20
ATOM     20  C   UNL     1      -3.142  12.662  23.798  0.00  0.00    +0.000 C 
ATOM     21  N   UNL     1      -3.938  13.183  24.455  0.00  0.00    +0.000 NA
ENDBRANCH  17  20
ENDBRANCH   8  14
BRANCH   9  22
ATOM     22  C   UNL     1       1.289  11.556  18.956  0.00  0.00    +0.000 C 
ATOM     23  C   UNL     1       1.735  12.476  20.109  0.00  0.00    +0.000 C 
ATOM     24  C   UNL     1       2.527  13.611  19.480  0.00  0.00    +0.000 C 
ATOM     25  C   UNL     1       2.921  13.159  18.083  0.00  0.00    +0.000 C 
ATOM     26  C   UNL     1       2.328  11.772  17.858  0.00  0.00    +0.000 C 
ENDBRANCH   9  22
BRANCH   2  27
ATOM     27  O   UNL     1       4.482   5.970  19.581  0.00  0.00    +0.000 OA
BRANCH  27  28
ATOM     28  C   UNL     1       5.627   5.307  19.271  0.00  0.00    +0.000 C 
ATOM     29  O   UNL     1       5.968   4.231  19.736  0.00  0.00    +0.000 OA
BRANCH  28  30
ATOM     30  C   UNL     1       6.426   6.006  18.198  0.00  0.00    +0.000 C 
BRANCH  30  31
ATOM     31  C   UNL     1       7.424   5.082  17.514  0.00  0.00    +0.000 C 
BRANCH  31  32
ATOM     32  C   UNL     1       6.977   4.695  16.128  0.00  0.00    +0.000 A 
ATOM     33  C   UNL     1       7.622   5.227  15.004  0.00  0.00    +0.000 A 
ATOM     34  C   UNL     1       7.219   4.860  13.720  0.00  0.00    +0.000 A 
ATOM     35  C   UNL     1       6.163   3.966  13.550  0.00  0.00    +0.000 A 
ATOM     36  C   UNL     1       5.504   3.445  14.662  0.00  0.00    +0.000 A 
ATOM     37  C   UNL     1       5.906   3.811  15.947  0.00  0.00    +0.000 A 
ENDBRANCH  31  32
ENDBRANCH  30  31
ENDBRANCH  28  30
ENDBRANCH  27  28
ENDBRANCH   2  27
TORSDOF 8
ENDMDL
MODEL 8
REMARK VINA RESULT:      -6.0      2.010      3.886
REMARK  Name = 
REMARK  9 active torsions:
REMARK  status: ('A' for Active; 'I' for Inactive)
REMARK    1  A    between atoms: C_1  and  C_2
REMARK    2  A    between atoms: C_2  and  O_3
REMARK    3  A    between atoms: O_3  and  C_4
REMARK    4  A    between atoms: C_4  and  C_6
REMARK    5  A    between atoms: C_6  and  C_7
REMARK    6  A    between atoms: C_7  and  C_8
REMARK    7  A    between atoms: C_19  and  C_20
REMARK    8  A    between atoms: C_23  and  C_24
REMARK    9  A    between atoms: N_28  and  C_29
REMARK                            x       y       z     vdW  Elec       q    Type
REMARK                         _______ _______ _______ _____ _____    ______ ____
ROOT
ATOM      1  C   UNL     1      -2.855  16.272  22.514  0.00  0.00    +0.000 C 
ATOM      2  C   UNL     1      -2.417  14.801  22.456  0.00  0.00    +0.000 C 
ATOM      3  C   UNL     1      -1.015  14.606  23.062  0.00  0.00    +0.000 C 
ATOM      4  O   UNL     1      -0.579  15.263  24.006  0.00  0.00    +0.000 OA
ATOM      5  C   UNL     1      -0.135  13.531  22.535  0.00  0.00    +0.000 C 
ATOM      6  C   UNL     1      -0.392  12.906  21.378  0.00  0.00    +0.000 C 
ATOM      7  C   UNL     1       0.480  11.835  20.897  0.00  0.00    +0.000 C 
ATOM      8  C   UNL     1       0.139  11.149  19.778  0.00  0.00    +0.000 C 
ATOM      9  N   UNL     1      -1.008  11.480  19.003  0.00  0.00    +0.000 N 
ATOM     10  C   UNL     1      -1.728  12.625  19.411  0.00  0.00    +0.000 C 
ATOM     11  C   UNL     1      -1.518  13.300  20.557  0.00  0.00    +0.000 C 
ATOM     12  C   UNL     1      -2.456  14.376  20.979  0.00  0.00    +0.000 C 
ATOM     13  O   UNL     1      -3.281  14.824  20.180  0.00  0.00    +0.000 OA
ENDROOT
BRANCH   8  14
ATOM     14  C   UNL     1       1.005   9.985  19.481  0.00  0.00    +0.000 A 
ATOM     15  C   UNL     1       1.582   9.880  18.206  0.00  0.00    +0.000 A 
ATOM     16  C   UNL     1       2.210   8.699  17.800  0.00  0.00    +0.000 A 
ATOM     17  C   UNL     1       2.272   7.604  18.666  0.00  0.00    +0.000 A 
ATOM     18  C   UNL     1       1.729   7.710  19.951  0.00  0.00    +0.000 A 
ATOM     19  C   UNL     1       1.096   8.899  20.358  0.00  0.00    +0.000 A 
BRANCH  17  20
ATOM     20  C   UNL     1       2.851   6.364  18.222  0.00  0.00    +0.000 C 
ATOM     21  N   UNL     1       3.333   5.380  17.855  0.00  0.00    +0.000 NA
ENDBRANCH  17  20
ENDBRANCH   8  14
BRANCH   9  22
ATOM     22  C   UNL     1      -1.474  10.648  17.852  0.00  0.00    +0.000 C 
ATOM     23  C   UNL     1      -2.659   9.714  18.164  0.00  0.00    +0.000 C 
ATOM     24  C   UNL     1      -3.448   9.565  16.873  0.00  0.00    +0.000 C 
ATOM     25  C   UNL     1      -3.022  10.700  15.956  0.00  0.00    +0.000 C 
ATOM     26  C   UNL     1      -1.947  11.504  16.679  0.00  0.00    +0.000 C 
ENDBRANCH   9  22
BRANCH   2  27
ATOM     27  O   UNL     1      -3.413  13.940  23.067  0.00  0.00    +0.000 OA
BRANCH  27  28
ATOM     28  C   UNL     1      -4.149  14.402  24.112  0.00  0.00    +0.000 C 
ATOM     29  O   UNL     1      -3.708  14.692  25.213  0.00  0.00    +0.000 OA
BRANCH  28  30
ATOM     30  C   UNL     1      -5.598  14.614  23.747  0.00  0.00    +0.000 C 
BRANCH  30  31
ATOM     31  C   UNL     1      -6.354  13.305  23.565  0.00  0.00    +0.000 C 
BRANCH  31  32
ATOM     32  C   UNL     1      -6.704  13.051  22.122  0.00  0.00    +0.000 A 
ATOM     33  C   UNL     1      -6.516  14.054  21.162  0.00  0.00    +0.000 A 
ATOM     34  C   UNL     1      -6.827  13.816  19.823  0.00  0.00    +0.000 A 
ATOM     35  C   UNL     1      -7.335  12.578  19.434  0.00  0.00    +0.000 A 
ATOM     36  C   UNL     1      -7.541  11.579  20.385  0.00  0.00    +0.000 A 
ATOM     37  C   UNL     1      -7.230  11.815  21.725  0.00  0.00    +0.000 A 
ENDBRANCH  31  32
ENDBRANCH  30  31
ENDBRANCH  28  30
ENDBRANCH  27  28
ENDBRANCH   2  27
TORSDOF 8
ENDMDL
MODEL 9
REMARK VINA RESULT:      -5.9      5.534     10.143
REMARK  Name = 
REMARK  9 active torsions:
REMARK  status: ('A' for Active; 'I' for Inactive)
REMARK    1  A    between atoms: C_1  and  C_2
REMARK    2  A    between atoms: C_2  and  O_3
REMARK    3  A    between atoms: O_3  and  C_4
REMARK    4  A    between atoms: C_4  and  C_6
REMARK    5  A    between atoms: C_6  and  C_7
REMARK    6  A    between atoms: C_7  and  C_8
REMARK    7  A    between atoms: C_19  and  C_20
REMARK    8  A    between atoms: C_23  and  C_24
REMARK    9  A    between atoms: N_28  and  C_29
REMARK                            x       y       z     vdW  Elec       q    Type
REMARK                         _______ _______ _______ _____ _____    ______ ____
ROOT
ATOM      1  C   UNL     1       6.426   4.759  17.250  0.00  0.00    +0.000 C 
ATOM      2  C   UNL     1       5.007   5.344  17.186  0.00  0.00    +0.000 C 
ATOM      3  C   UNL     1       4.929   6.528  16.205  0.00  0.00    +0.000 C 
ATOM      4  O   UNL     1       5.594   6.609  15.174  0.00  0.00    +0.000 OA
ATOM      5  C   UNL     1       3.963   7.627  16.464  0.00  0.00    +0.000 C 
ATOM      6  C   UNL     1       3.355   7.775  17.648  0.00  0.00    +0.000 C 
ATOM      7  C   UNL     1       2.391   8.852  17.865  0.00  0.00    +0.000 C 
ATOM      8  C   UNL     1       1.711   8.915  19.037  0.00  0.00    +0.000 C 
ATOM      9  N   UNL     1       1.955   8.007  20.106  0.00  0.00    +0.000 N 
ATOM     10  C   UNL     1       3.010   7.087  19.916  0.00  0.00    +0.000 C 
ATOM     11  C   UNL     1       3.664   6.894  18.755  0.00  0.00    +0.000 C 
ATOM     12  C   UNL     1       4.630   5.769  18.615  0.00  0.00    +0.000 C 
ATOM     13  O   UNL     1       5.021   5.163  19.614  0.00  0.00    +0.000 OA
ENDROOT
BRANCH   8  14
ATOM     14  C   UNL     1       0.648   9.944  19.079  0.00  0.00    +0.000 A 
ATOM     15  C   UNL     1       0.823  11.063  19.908  0.00  0.00    +0.000 A 
ATOM     16  C   UNL     1      -0.238  11.938  20.163  0.00  0.00    +0.000 A 
ATOM     17  C   UNL     1      -1.490  11.708  19.587  0.00  0.00    +0.000 A 
ATOM     18  C   UNL     1      -1.665  10.614  18.732  0.00  0.00    +0.000 A 
ATOM     19  C   UNL     1      -0.598   9.733  18.479  0.00  0.00    +0.000 A 
BRANCH  17  20
ATOM     20  C   UNL     1      -2.600  12.564  19.908  0.00  0.00    +0.000 C 
ATOM     21  N   UNL     1      -3.489  13.249  20.188  0.00  0.00    +0.000 NA
ENDBRANCH  17  20
ENDBRANCH   8  14
BRANCH   9  22
ATOM     22  C   UNL     1       1.120   7.975  21.345  0.00  0.00    +0.000 C 
ATOM     23  C   UNL     1       1.418   9.097  22.358  0.00  0.00    +0.000 C 
ATOM     24  C   UNL     1       0.115   9.390  23.082  0.00  0.00    +0.000 C 
ATOM     25  C   UNL     1      -1.006   8.797  22.242  0.00  0.00    +0.000 C 
ATOM     26  C   UNL     1      -0.370   8.112  21.037  0.00  0.00    +0.000 C 
ENDBRANCH   9  22
BRANCH   2  27
ATOM     27  O   UNL     1       4.033   4.309  16.888  0.00  0.00    +0.000 OA
BRANCH  27  28
ATOM     28  C   UNL     1       4.460   3.076  16.509  0.00  0.00    +0.000 C 
ATOM     29  O   UNL     1       5.243   2.847  15.602  0.00  0.00    +0.000 OA
BRANCH  28  30
ATOM     30  C   UNL     1       3.925   1.982  17.401  0.00  0.00    +0.000 C 
BRANCH  30  31
ATOM     31  C   UNL     1       2.439   2.139  17.695  0.00  0.00    +0.000 C 
BRANCH  31  32
ATOM     32  C   UNL     1       2.192   2.725  19.061  0.00  0.00    +0.000 A 
ATOM     33  C   UNL     1       1.224   3.721  19.238  0.00  0.00    +0.000 A 
ATOM     34  C   UNL     1       0.985   4.255  20.504  0.00  0.00    +0.000 A 
ATOM     35  C   UNL     1       1.717   3.804  21.601  0.00  0.00    +0.000 A 
ATOM     36  C   UNL     1       2.694   2.824  21.432  0.00  0.00    +0.000 A 
ATOM     37  C   UNL     1       2.935   2.289  20.166  0.00  0.00    +0.000 A 
ENDBRANCH  31  32
ENDBRANCH  30  31
ENDBRANCH  28  30
ENDBRANCH  27  28
ENDBRANCH   2  27
TORSDOF 8
ENDMDL
