MODEL 1
REMARK VINA RESULT:      -5.5      0.000      0.000
REMARK  Name = 
REMARK  11 active torsions:
REMARK  status: ('A' for Active; 'I' for Inactive)
REMARK    1  A    between atoms: C_1  and  C_2
REMARK    2  A    between atoms: C_2  and  N_3
REMARK    3  A    between atoms: N_3  and  C_4
REMARK    4  A    between atoms: N_3  and  C_6
REMARK    5  A    between atoms: C_4  and  C_5
REMARK    6  A    between atoms: C_6  and  C_7
REMARK    7  A    between atoms: C_7  and  N_8
REMARK    8  A    between atoms: N_11  and  C_12
REMARK    9  A    between atoms: C_12  and  C_13
REMARK   10  A    between atoms: C_13  and  O_14
REMARK   11  A    between atoms: O_14  and  C_15
REMARK                            x       y       z     vdW  Elec       q    Type
REMARK                         _______ _______ _______ _____ _____    ______ ____
ROOT
ATOM      1  N   UNL     1       6.050   4.228  18.196  0.00  0.00    +0.000 NA
ATOM      2  C   UNL     1       5.284   3.937  16.967  0.00  0.00    +0.000 C 
ATOM      3  C   UNL     1       5.084   5.170  16.059  0.00  0.00    +0.000 C 
ATOM      4  N   UNL     1       6.350   5.786  15.611  0.00  0.00    +0.000 NA
ATOM      5  C   UNL     1       7.185   6.060  16.806  0.00  0.00    +0.000 C 
ATOM      6  C   UNL     1       7.325   4.878  17.805  0.00  0.00    +0.000 C 
ENDROOT
BRANCH   1   7
ATOM      7  C   UNL     1       5.307   5.077  19.157  0.00  0.00    +0.000 C 
BRANCH   7   8
ATOM      8  C   UNL     1       4.047   4.386  19.740  0.00  0.00    +0.000 C 
BRANCH   8   9
ATOM      9  N   UNL     1       2.847   5.239  19.877  0.00  0.00    +0.000 NA
BRANCH   9  11
ATOM     10  C   UNL     1       1.651   4.451  17.794  0.00  0.00    +0.000 C 
ATOM     11  C   UNL     1       2.357   5.584  18.529  0.00  0.00    +0.000 C 
ENDBRANCH   9  11
BRANCH   9  12
ATOM     12  C   UNL     1       1.821   4.680  20.766  0.00  0.00    +0.000 C 
ATOM     13  C   UNL     1       2.211   3.419  21.535  0.00  0.00    +0.000 C 
ENDBRANCH   9  12
ENDBRANCH   8   9
ENDBRANCH   7   8
ENDBRANCH   1   7
BRANCH   4  14
ATOM     14  C   UNL     1       7.084   4.944  14.643  0.00  0.00    +0.000 C 
BRANCH  14  15
ATOM     15  C   UNL     1       6.197   3.928  13.905  0.00  0.00    +0.000 C 
BRANCH  15  16
ATOM     16  O   UNL     1       6.639   3.796  12.552  0.00  0.00    +0.000 OA
ATOM     17  C   UNL     1       5.814   2.880  11.838  0.00  0.00    +0.000 C 
ENDBRANCH  15  16
ENDBRANCH  14  15
ENDBRANCH   4  14
TORSDOF 8
ENDMDL
MODEL 2
REMARK VINA RESULT:      -5.4      1.052      2.277
REMARK  Name = 
REMARK  11 active torsions:
REMARK  status: ('A' for Active; 'I' for Inactive)
REMARK    1  A    between atoms: C_1  and  C_2
REMARK    2  A    between atoms: C_2  and  N_3
REMARK    3  A    between atoms: N_3  and  C_4
REMARK    4  A    between atoms: N_3  and  C_6
REMARK    5  A    between atoms: C_4  and  C_5
REMARK    6  A    between atoms: C_6  and  C_7
REMARK    7  A    between atoms: C_7  and  N_8
REMARK    8  A    between atoms: N_11  and  C_12
REMARK    9  A    between atoms: C_12  and  C_13
REMARK   10  A    between atoms: C_13  and  O_14
REMARK   11  A    between atoms: O_14  and  C_15
REMARK                            x       y       z     vdW  Elec       q    Type
REMARK                         _______ _______ _______ _____ _____    ______ ____
ROOT
ATOM      1  N   UNL     1       5.594   6.077  18.218  0.00  0.00    +0.000 NA
ATOM      2  C   UNL     1       7.031   5.896  17.931  0.00  0.00    +0.000 C 
ATOM      3  C   UNL     1       7.377   4.499  17.372  0.00  0.00    +0.000 C 
ATOM      4  N   UNL     1       6.668   4.172  16.118  0.00  0.00    +0.000 NA
ATOM      5  C   UNL     1       5.216   4.380  16.334  0.00  0.00    +0.000 C 
ATOM      6  C   UNL     1       4.829   5.732  16.995  0.00  0.00    +0.000 C 
ENDROOT
BRANCH   1   7
ATOM      7  C   UNL     1       5.126   5.270  19.371  0.00  0.00    +0.000 C 
BRANCH   7   8
ATOM      8  C   UNL     1       3.583   5.229  19.504  0.00  0.00    +0.000 C 
BRANCH   8   9
ATOM      9  N   UNL     1       2.997   3.911  19.832  0.00  0.00    +0.000 NA
BRANCH   9  11
ATOM     10  C   UNL     1       1.421   2.806  21.471  0.00  0.00    +0.000 C 
ATOM     11  C   UNL     1       2.251   4.029  21.100  0.00  0.00    +0.000 C 
ENDBRANCH   9  11
BRANCH   9  12
ATOM     12  C   UNL     1       2.228   3.315  18.733  0.00  0.00    +0.000 C 
ATOM     13  C   UNL     1       1.583   4.293  17.753  0.00  0.00    +0.000 C 
ENDBRANCH   9  12
ENDBRANCH   8   9
ENDBRANCH   7   8
ENDBRANCH   1   7
BRANCH   4  14
ATOM     14  C   UNL     1       7.145   4.968  14.968  0.00  0.00    +0.000 C 
BRANCH  14  15
ATOM     15  C   UNL     1       6.348   4.731  13.674  0.00  0.00    +0.000 C 
BRANCH  15  16
ATOM     16  O   UNL     1       6.344   3.336  13.360  0.00  0.00    +0.000 OA
ATOM     17  C   UNL     1       5.716   3.104  12.102  0.00  0.00    +0.000 C 
ENDBRANCH  15  16
ENDBRANCH  14  15
ENDBRANCH   4  14
TORSDOF 8
ENDMDL
MODEL 3
REMARK VINA RESULT:      -5.4      2.825      6.135
REMARK  Name = 
REMARK  11 active torsions:
REMARK  status: ('A' for Active; 'I' for Inactive)
REMARK    1  A    between atoms: C_1  and  C_2
REMARK    2  A    between atoms: C_2  and  N_3
REMARK    3  A    between atoms: N_3  and  C_4
REMARK    4  A    between atoms: N_3  and  C_6
REMARK    5  A    between atoms: C_4  and  C_5
REMARK    6  A    between atoms: C_6  and  C_7
REMARK    7  A    between atoms: C_7  and  N_8
REMARK    8  A    between atoms: N_11  and  C_12
REMARK    9  A    between atoms: C_12  and  C_13
REMARK   10  A    between atoms: C_13  and  O_14
REMARK   11  A    between atoms: O_14  and  C_15
REMARK                            x       y       z     vdW  Elec       q    Type
REMARK                         _______ _______ _______ _____ _____    ______ ____
ROOT
ATOM      1  N   UNL     1       3.353   5.344  17.341  0.00  0.00    +0.000 NA
ATOM      2  C   UNL     1       3.736   3.932  17.137  0.00  0.00    +0.000 C 
ATOM      3  C   UNL     1       4.689   3.388  18.224  0.00  0.00    +0.000 C 
ATOM      4  N   UNL     1       4.133   3.465  19.590  0.00  0.00    +0.000 NA
ATOM      5  C   UNL     1       3.688   4.858  19.836  0.00  0.00    +0.000 C 
ATOM      6  C   UNL     1       2.813   5.484  18.716  0.00  0.00    +0.000 C 
ENDROOT
BRANCH   1   7
ATOM      7  C   UNL     1       4.476   6.287  17.124  0.00  0.00    +0.000 C 
BRANCH   7   8
ATOM      8  C   UNL     1       5.194   6.084  15.765  0.00  0.00    +0.000 C 
BRANCH   8   9
ATOM      9  N   UNL     1       6.666   5.961  15.824  0.00  0.00    +0.000 NA
BRANCH   9  11
ATOM     10  C   UNL     1       7.742   4.663  17.708  0.00  0.00    +0.000 C 
ATOM     11  C   UNL     1       7.083   5.955  17.239  0.00  0.00    +0.000 C 
ENDBRANCH   9  11
BRANCH   9  12
ATOM     12  C   UNL     1       7.200   4.844  15.034  0.00  0.00    +0.000 C 
ATOM     13  C   UNL     1       6.169   3.881  14.448  0.00  0.00    +0.000 C 
ENDBRANCH   9  12
ENDBRANCH   8   9
ENDBRANCH   7   8
ENDBRANCH   1   7
BRANCH   4  14
ATOM     14  C   UNL     1       3.022   2.515  19.809  0.00  0.00    +0.000 C 
BRANCH  14  15
ATOM     15  C   UNL     1       2.198   2.801  21.075  0.00  0.00    +0.000 C 
BRANCH  15  16
ATOM     16  O   UNL     1       0.834   3.036  20.719  0.00  0.00    +0.000 OA
ATOM     17  C   UNL     1       0.599   2.684  19.359  0.00  0.00    +0.000 C 
ENDBRANCH  15  16
ENDBRANCH  14  15
ENDBRANCH   4  14
TORSDOF 8
ENDMDL
MODEL 4
REMARK VINA RESULT:      -5.4      1.426      2.048
REMARK  Name = 
REMARK  11 active torsions:
REMARK  status: ('A' for Active; 'I' for Inactive)
REMARK    1  A    between atoms: C_1  and  C_2
REMARK    2  A    between atoms: C_2  and  N_3
REMARK    3  A    between atoms: N_3  and  C_4
REMARK    4  A    between atoms: N_3  and  C_6
REMARK    5  A    between atoms: C_4  and  C_5
REMARK    6  A    between atoms: C_6  and  C_7
REMARK    7  A    between atoms: C_7  and  N_8
REMARK    8  A    between atoms: N_11  and  C_12
REMARK    9  A    between atoms: C_12  and  C_13
REMARK   10  A    between atoms: C_13  and  O_14
REMARK   11  A    between atoms: O_14  and  C_15
REMARK                            x       y       z     vdW  Elec       q    Type
REMARK                         _______ _______ _______ _____ _____    ______ ____
ROOT
ATOM      1  N   UNL     1       4.876   5.988  18.294  0.00  0.00    +0.000 NA
ATOM      2  C   UNL     1       6.349   5.926  18.217  0.00  0.00    +0.000 C 
ATOM      3  C   UNL     1       6.887   4.539  17.805  0.00  0.00    +0.000 C 
ATOM      4  N   UNL     1       6.393   4.080  16.491  0.00  0.00    +0.000 NA
ATOM      5  C   UNL     1       4.912   4.163  16.494  0.00  0.00    +0.000 C 
ATOM      6  C   UNL     1       4.323   5.507  17.004  0.00  0.00    +0.000 C 
ENDROOT
BRANCH   1   7
ATOM      7  C   UNL     1       4.319   5.205  19.423  0.00  0.00    +0.000 C 
BRANCH   7   8
ATOM      8  C   UNL     1       2.770   5.164  19.437  0.00  0.00    +0.000 C 
BRANCH   8   9
ATOM      9  N   UNL     1       2.159   3.818  19.484  0.00  0.00    +0.000 NA
BRANCH   9  11
ATOM     10  C   UNL     1       3.149   1.720  18.478  0.00  0.00    +0.000 C 
ATOM     11  C   UNL     1       3.238   2.813  19.537  0.00  0.00    +0.000 C 
ENDBRANCH   9  11
BRANCH   9  12
ATOM     12  C   UNL     1       1.141   3.665  20.530  0.00  0.00    +0.000 C 
ATOM     13  C   UNL     1       1.464   2.672  21.644  0.00  0.00    +0.000 C 
ENDBRANCH   9  12
ENDBRANCH   8   9
ENDBRANCH   7   8
ENDBRANCH   1   7
BRANCH   4  14
ATOM     14  C   UNL     1       6.958   4.853  15.366  0.00  0.00    +0.000 C 
BRANCH  14  15
ATOM     15  C   UNL     1       6.153   4.734  14.061  0.00  0.00    +0.000 C 
BRANCH  15  16
ATOM     16  O   UNL     1       6.450   3.489  13.424  0.00  0.00    +0.000 OA
ATOM     17  C   UNL     1       5.698   3.345  12.223  0.00  0.00    +0.000 C 
ENDBRANCH  15  16
ENDBRANCH  14  15
ENDBRANCH   4  14
TORSDOF 8
ENDMDL
MODEL 5
REMARK VINA RESULT:      -5.3      3.061      6.110
REMARK  Name = 
REMARK  11 active torsions:
REMARK  status: ('A' for Active; 'I' for Inactive)
REMARK    1  A    between atoms: C_1  and  C_2
REMARK    2  A    between atoms: C_2  and  N_3
REMARK    3  A    between atoms: N_3  and  C_4
REMARK    4  A    between atoms: N_3  and  C_6
REMARK    5  A    between atoms: C_4  and  C_5
REMARK    6  A    between atoms: C_6  and  C_7
REMARK    7  A    between atoms: C_7  and  N_8
REMARK    8  A    between atoms: N_11  and  C_12
REMARK    9  A    between atoms: C_12  and  C_13
REMARK   10  A    between atoms: C_13  and  O_14
REMARK   11  A    between atoms: O_14  and  C_15
REMARK                            x       y       z     vdW  Elec       q    Type
REMARK                         _______ _______ _______ _____ _____    ______ ____
ROOT
ATOM      1  N   UNL     1       4.071   4.092  17.546  0.00  0.00    +0.000 NA
ATOM      2  C   UNL     1       2.756   3.484  17.257  0.00  0.00    +0.000 C 
ATOM      3  C   UNL     1       2.637   2.019  17.732  0.00  0.00    +0.000 C 
ATOM      4  N   UNL     1       2.853   1.849  19.184  0.00  0.00    +0.000 NA
ATOM      5  C   UNL     1       4.145   2.484  19.541  0.00  0.00    +0.000 C 
ATOM      6  C   UNL     1       4.354   3.922  18.992  0.00  0.00    +0.000 C 
ENDROOT
BRANCH   1   7
ATOM      7  C   UNL     1       5.168   3.518  16.730  0.00  0.00    +0.000 C 
BRANCH   7   8
ATOM      8  C   UNL     1       5.884   4.566  15.840  0.00  0.00    +0.000 C 
BRANCH   8   9
ATOM      9  N   UNL     1       6.889   5.412  16.518  0.00  0.00    +0.000 NA
BRANCH   9  11
ATOM     10  C   UNL     1       4.980   7.019  16.114  0.00  0.00    +0.000 C 
ATOM     11  C   UNL     1       6.259   6.697  16.877  0.00  0.00    +0.000 C 
ENDBRANCH   9  11
BRANCH   9  12
ATOM     12  C   UNL     1       7.572   4.743  17.633  0.00  0.00    +0.000 C 
ATOM     13  C   UNL     1       7.758   5.571  18.902  0.00  0.00    +0.000 C 
ENDBRANCH   9  12
ENDBRANCH   8   9
ENDBRANCH   7   8
ENDBRANCH   1   7
BRANCH   4  14
ATOM     14  C   UNL     1       1.752   2.410  19.995  0.00  0.00    +0.000 C 
BRANCH  14  15
ATOM     15  C   UNL     1       2.140   2.700  21.454  0.00  0.00    +0.000 C 
BRANCH  15  16
ATOM     16  O   UNL     1       2.109   4.110  21.689  0.00  0.00    +0.000 OA
ATOM     17  C   UNL     1       1.355   4.774  20.679  0.00  0.00    +0.000 C 
ENDBRANCH  15  16
ENDBRANCH  14  15
ENDBRANCH   4  14
TORSDOF 8
ENDMDL
MODEL 6
REMARK VINA RESULT:      -5.3      1.251      2.103
REMARK  Name = 
REMARK  11 active torsions:
REMARK  status: ('A' for Active; 'I' for Inactive)
REMARK    1  A    between atoms: C_1  and  C_2
REMARK    2  A    between atoms: C_2  and  N_3
REMARK    3  A    between atoms: N_3  and  C_4
REMARK    4  A    between atoms: N_3  and  C_6
REMARK    5  A    between atoms: C_4  and  C_5
REMARK    6  A    between atoms: C_6  and  C_7
REMARK    7  A    between atoms: C_7  and  N_8
REMARK    8  A    between atoms: N_11  and  C_12
REMARK    9  A    between atoms: C_12  and  C_13
REMARK   10  A    between atoms: C_13  and  O_14
REMARK   11  A    between atoms: O_14  and  C_15
REMARK                            x       y       z     vdW  Elec       q    Type
REMARK                         _______ _______ _______ _____ _____    ______ ____
ROOT
ATOM      1  N   UNL     1       5.392   6.155  17.698  0.00  0.00    +0.000 NA
ATOM      2  C   UNL     1       6.798   6.112  17.249  0.00  0.00    +0.000 C 
ATOM      3  C   UNL     1       7.320   4.682  16.992  0.00  0.00    +0.000 C 
ATOM      4  N   UNL     1       6.546   3.945  15.972  0.00  0.00    +0.000 NA
ATOM      5  C   UNL     1       5.112   3.993  16.348  0.00  0.00    +0.000 C 
ATOM      6  C   UNL     1       4.569   5.401  16.720  0.00  0.00    +0.000 C 
ENDROOT
BRANCH   1   7
ATOM      7  C   UNL     1       5.202   5.615  19.065  0.00  0.00    +0.000 C 
BRANCH   7   8
ATOM      8  C   UNL     1       3.719   5.595  19.517  0.00  0.00    +0.000 C 
BRANCH   8   9
ATOM      9  N   UNL     1       3.280   4.383  20.241  0.00  0.00    +0.000 NA
BRANCH   9  11
ATOM     10  C   UNL     1       1.027   3.371  20.782  0.00  0.00    +0.000 C 
ATOM     11  C   UNL     1       1.914   4.610  20.753  0.00  0.00    +0.000 C 
ENDBRANCH   9  11
BRANCH   9  12
ATOM     12  C   UNL     1       3.437   3.143  19.472  0.00  0.00    +0.000 C 
ATOM     13  C   UNL     1       4.474   2.151  19.998  0.00  0.00    +0.000 C 
ENDBRANCH   9  12
ENDBRANCH   8   9
ENDBRANCH   7   8
ENDBRANCH   1   7
BRANCH   4  14
ATOM     14  C   UNL     1       6.747   4.477  14.608  0.00  0.00    +0.000 C 
BRANCH  14  15
ATOM     15  C   UNL     1       5.795   3.877  13.560  0.00  0.00    +0.000 C 
BRANCH  15  16
ATOM     16  O   UNL     1       6.527   3.547  12.377  0.00  0.00    +0.000 OA
ATOM     17  C   UNL     1       5.911   2.464  11.686  0.00  0.00    +0.000 C 
ENDBRANCH  15  16
ENDBRANCH  14  15
ENDBRANCH   4  14
TORSDOF 8
ENDMDL
MODEL 7
REMARK VINA RESULT:      -5.2      1.328      2.301
REMARK  Name = 
REMARK  11 active torsions:
REMARK  status: ('A' for Active; 'I' for Inactive)
REMARK    1  A    between atoms: C_1  and  C_2
REMARK    2  A    between atoms: C_2  and  N_3
REMARK    3  A    between atoms: N_3  and  C_4
REMARK    4  A    between atoms: N_3  and  C_6
REMARK    5  A    between atoms: C_4  and  C_5
REMARK    6  A    between atoms: C_6  and  C_7
REMARK    7  A    between atoms: C_7  and  N_8
REMARK    8  A    between atoms: N_11  and  C_12
REMARK    9  A    between atoms: C_12  and  C_13
REMARK   10  A    between atoms: C_13  and  O_14
REMARK   11  A    between atoms: O_14  and  C_15
REMARK                            x       y       z     vdW  Elec       q    Type
REMARK                         _______ _______ _______ _____ _____    ______ ____
ROOT
ATOM      1  N   UNL     1       5.175   5.884  18.097  0.00  0.00    +0.000 NA
ATOM      2  C   UNL     1       6.597   6.094  17.760  0.00  0.00    +0.000 C 
ATOM      3  C   UNL     1       7.331   4.799  17.351  0.00  0.00    +0.000 C 
ATOM      4  N   UNL     1       6.732   4.125  16.180  0.00  0.00    +0.000 NA
ATOM      5  C   UNL     1       5.286   3.928  16.443  0.00  0.00    +0.000 C 
ATOM      6  C   UNL     1       4.528   5.181  16.961  0.00  0.00    +0.000 C 
ENDROOT
BRANCH   1   7
ATOM      7  C   UNL     1       4.981   5.127  19.357  0.00  0.00    +0.000 C 
BRANCH   7   8
ATOM      8  C   UNL     1       3.526   4.632  19.557  0.00  0.00    +0.000 C 
BRANCH   8   9
ATOM      9  N   UNL     1       3.378   3.278  20.133  0.00  0.00    +0.000 NA
BRANCH   9  11
ATOM     10  C   UNL     1       1.136   4.358  20.577  0.00  0.00    +0.000 C 
ATOM     11  C   UNL     1       2.101   3.216  20.869  0.00  0.00    +0.000 C 
ENDBRANCH   9  11
BRANCH   9  12
ATOM     12  C   UNL     1       3.564   2.196  19.158  0.00  0.00    +0.000 C 
ATOM     13  C   UNL     1       2.519   2.102  18.048  0.00  0.00    +0.000 C 
ENDBRANCH   9  12
ENDBRANCH   8   9
ENDBRANCH   7   8
ENDBRANCH   1   7
BRANCH   4  14
ATOM     14  C   UNL     1       6.938   4.875  14.923  0.00  0.00    +0.000 C 
BRANCH  14  15
ATOM     15  C   UNL     1       5.936   4.515  13.813  0.00  0.00    +0.000 C 
BRANCH  15  16
ATOM     16  O   UNL     1       6.356   3.318  13.155  0.00  0.00    +0.000 OA
ATOM     17  C   UNL     1       6.861   3.606  11.855  0.00  0.00    +0.000 C 
ENDBRANCH  15  16
ENDBRANCH  14  15
ENDBRANCH   4  14
TORSDOF 8
ENDMDL
MODEL 8
REMARK VINA RESULT:      -5.2      2.992      6.353
REMARK  Name = 
REMARK  11 active torsions:
REMARK  status: ('A' for Active; 'I' for Inactive)
REMARK    1  A    between atoms: C_1  and  C_2
REMARK    2  A    between atoms: C_2  and  N_3
REMARK    3  A    between atoms: N_3  and  C_4
REMARK    4  A    between atoms: N_3  and  C_6
REMARK    5  A    between atoms: C_4  and  C_5
REMARK    6  A    between atoms: C_6  and  C_7
REMARK    7  A    between atoms: C_7  and  N_8
REMARK    8  A    between atoms: N_11  and  C_12
REMARK    9  A    between atoms: C_12  and  C_13
REMARK   10  A    between atoms: C_13  and  O_14
REMARK   11  A    between atoms: O_14  and  C_15
REMARK                            x       y       z     vdW  Elec       q    Type
REMARK                         _______ _______ _______ _____ _____    ______ ____
ROOT
ATOM      1  N   UNL     1       4.195   4.302  17.777  0.00  0.00    +0.000 NA
ATOM      2  C   UNL     1       2.805   3.887  17.499  0.00  0.00    +0.000 C 
ATOM      3  C   UNL     1       2.562   2.375  17.696  0.00  0.00    +0.000 C 
ATOM      4  N   UNL     1       2.860   1.902  19.064  0.00  0.00    +0.000 NA
ATOM      5  C   UNL     1       4.235   2.331  19.417  0.00  0.00    +0.000 C 
ATOM      6  C   UNL     1       4.559   3.824  19.134  0.00  0.00    +0.000 C 
ENDROOT
BRANCH   1   7
ATOM      7  C   UNL     1       5.162   3.802  16.772  0.00  0.00    +0.000 C 
BRANCH   7   8
ATOM      8  C   UNL     1       6.583   4.399  16.937  0.00  0.00    +0.000 C 
BRANCH   8   9
ATOM      9  N   UNL     1       6.842   5.662  16.212  0.00  0.00    +0.000 NA
BRANCH   9  11
ATOM     10  C   UNL     1       6.978   4.771  13.850  0.00  0.00    +0.000 C 
ATOM     11  C   UNL     1       6.205   5.582  14.883  0.00  0.00    +0.000 C 
ENDBRANCH   9  11
BRANCH   9  12
ATOM     12  C   UNL     1       6.494   6.866  16.976  0.00  0.00    +0.000 C 
ATOM     13  C   UNL     1       7.663   7.653  17.564  0.00  0.00    +0.000 C 
ENDBRANCH   9  12
ENDBRANCH   8   9
ENDBRANCH   7   8
ENDBRANCH   1   7
BRANCH   4  14
ATOM     14  C   UNL     1       1.887   2.391  20.063  0.00  0.00    +0.000 C 
BRANCH  14  15
ATOM     15  C   UNL     1       2.439   2.442  21.497  0.00  0.00    +0.000 C 
BRANCH  15  16
ATOM     16  O   UNL     1       2.114   3.700  22.094  0.00  0.00    +0.000 OA
ATOM     17  C   UNL     1       1.957   4.706  21.098  0.00  0.00    +0.000 C 
ENDBRANCH  15  16
ENDBRANCH  14  15
ENDBRANCH   4  14
TORSDOF 8
ENDMDL
MODEL 9
REMARK VINA RESULT:      -5.2      1.100      1.875
REMARK  Name = 
REMARK  11 active torsions:
REMARK  status: ('A' for Active; 'I' for Inactive)
REMARK    1  A    between atoms: C_1  and  C_2
REMARK    2  A    between atoms: C_2  and  N_3
REMARK    3  A    between atoms: N_3  and  C_4
REMARK    4  A    between atoms: N_3  and  C_6
REMARK    5  A    between atoms: C_4  and  C_5
REMARK    6  A    between atoms: C_6  and  C_7
REMARK    7  A    between atoms: C_7  and  N_8
REMARK    8  A    between atoms: N_11  and  C_12
REMARK    9  A    between atoms: C_12  and  C_13
REMARK   10  A    between atoms: C_13  and  O_14
REMARK   11  A    between atoms: O_14  and  C_15
REMARK                            x       y       z     vdW  Elec       q    Type
REMARK                         _______ _______ _______ _____ _____    ______ ____
ROOT
ATOM      1  N   UNL     1       5.236   4.525  18.403  0.00  0.00    +0.000 NA
ATOM      2  C   UNL     1       4.801   4.333  17.005  0.00  0.00    +0.000 C 
ATOM      3  C   UNL     1       5.076   5.554  16.101  0.00  0.00    +0.000 C 
ATOM      4  N   UNL     1       6.502   5.932  16.033  0.00  0.00    +0.000 NA
ATOM      5  C   UNL     1       7.008   6.095  17.418  0.00  0.00    +0.000 C 
ATOM      6  C   UNL     1       6.662   4.936  18.393  0.00  0.00    +0.000 C 
ENDROOT
BRANCH   1   7
ATOM      7  C   UNL     1       4.413   5.517  19.136  0.00  0.00    +0.000 C 
BRANCH   7   8
ATOM      8  C   UNL     1       3.175   4.894  19.830  0.00  0.00    +0.000 C 
BRANCH   8   9
ATOM      9  N   UNL     1       2.805   3.532  19.391  0.00  0.00    +0.000 NA
BRANCH   9  11
ATOM     10  C   UNL     1       2.070   3.331  21.802  0.00  0.00    +0.000 C 
ATOM     11  C   UNL     1       2.696   2.667  20.582  0.00  0.00    +0.000 C 
ENDBRANCH   9  11
BRANCH   9  12
ATOM     12  C   UNL     1       1.633   3.491  18.508  0.00  0.00    +0.000 C 
ATOM     13  C   UNL     1       0.657   2.338  18.736  0.00  0.00    +0.000 C 
ENDBRANCH   9  12
ENDBRANCH   8   9
ENDBRANCH   7   8
ENDBRANCH   1   7
BRANCH   4  14
ATOM     14  C   UNL     1       7.319   4.948  15.291  0.00  0.00    +0.000 C 
BRANCH  14  15
ATOM     15  C   UNL     1       6.900   4.774  13.822  0.00  0.00    +0.000 C 
BRANCH  15  16
ATOM     16  O   UNL     1       6.330   3.477  13.634  0.00  0.00    +0.000 OA
ATOM     17  C   UNL     1       5.773   3.354  12.328  0.00  0.00    +0.000 C 
ENDBRANCH  15  16
ENDBRANCH  14  15
ENDBRANCH   4  14
TORSDOF 8
ENDMDL
