MODEL 1
REMARK VINA RESULT:      -8.4      0.000      0.000
REMARK  Name = 
REMARK  7 active torsions:
REMARK  status: ('A' for Active; 'I' for Inactive)
REMARK    1  A    between atoms: C_2  and  C_3
REMARK    2  A    between atoms: C_3  and  O_4
REMARK    3  A    between atoms: O_4  and  C_5
REMARK    4  A    between atoms: C_13  and  C_14
REMARK    5  A    between atoms: N_16  and  C_17
REMARK    6  A    between atoms: C_17  and  C_18
REMARK    7  A    between atoms: N_25  and  O_26
REMARK                            x       y       z     vdW  Elec       q    Type
REMARK                         _______ _______ _______ _____ _____    ______ ____
ROOT
ATOM      1  C   UNL     1       5.137   5.309  18.007  0.00  0.00    +0.000 A 
ATOM      2  C   UNL     1       5.074   6.418  17.147  0.00  0.00    +0.000 A 
ATOM      3  C   UNL     1       4.025   7.343  17.247  0.00  0.00    +0.000 A 
ATOM      4  C   UNL     1       3.028   7.156  18.211  0.00  0.00    +0.000 A 
ATOM      5  C   UNL     1       3.094   6.069  19.085  0.00  0.00    +0.000 A 
ATOM      6  C   UNL     1       4.143   5.151  18.996  0.00  0.00    +0.000 A 
ATOM      7  C   UNL     1       2.008   5.965  20.122  0.00  0.00    +0.000 C 
ATOM      8  N   UNL     1       1.814   7.262  20.803  0.00  0.00    +0.000 NA
ATOM      9  C   UNL     1       1.823   8.463  19.914  0.00  0.00    +0.000 C 
ATOM     10  C   UNL     1       1.876   8.101  18.407  0.00  0.00    +0.000 C 
ATOM     11  H   UNL     1       2.536   7.382  21.553  0.00  0.00    +0.000 HD
ENDROOT
BRANCH   9  12
ATOM     12  C   UNL     1       0.601   9.294  20.218  0.00  0.00    +0.000 C 
ATOM     13  O   UNL     1       0.173   9.315  21.362  0.00  0.00    +0.000 OA
ATOM     14  N   UNL     1      -0.008  10.027  19.239  0.00  0.00    +0.000 N 
ATOM     15  H   UNL     1       0.373  10.001  18.279  0.00  0.00    +0.000 HD
BRANCH  14  16
ATOM     16  C   UNL     1      -1.160  10.876  19.488  0.00  0.00    +0.000 C 
BRANCH  16  17
ATOM     17  C   UNL     1      -2.123  10.817  18.332  0.00  0.00    +0.000 A 
ATOM     18  C   UNL     1      -3.317  11.558  18.366  0.00  0.00    +0.000 A 
ATOM     19  C   UNL     1      -4.204  11.513  17.286  0.00  0.00    +0.000 A 
ATOM     20  C   UNL     1      -3.907  10.733  16.166  0.00  0.00    +0.000 A 
ATOM     21  C   UNL     1      -2.722   9.993  16.123  0.00  0.00    +0.000 A 
ATOM     22  C   UNL     1      -1.832  10.034  17.201  0.00  0.00    +0.000 A 
ENDBRANCH  16  17
ENDBRANCH  14  16
ENDBRANCH   9  12
BRANCH   1  23
ATOM     23  O   UNL     1       6.158   4.424  17.848  0.00  0.00    +0.000 OA
BRANCH  23  24
ATOM     24  C   UNL     1       7.342   4.650  17.164  0.00  0.00    +0.000 C 
BRANCH  24  26
ATOM     25  O   UNL     1       7.610   5.361  14.935  0.00  0.00    +0.000 OA
ATOM     26  C   UNL     1       7.143   4.512  15.681  0.00  0.00    +0.000 C 
ATOM     27  N   UNL     1       6.435   3.476  15.167  0.00  0.00    +0.000 N 
ATOM     28  H   UNL     1       6.036   2.759  15.789  0.00  0.00    +0.000 HD
BRANCH  27  29
ATOM     29  O   UNL     1       6.237   3.375  13.846  0.00  0.00    +0.000 OA
ATOM     30  H   UNL     1       7.147   3.284  13.456  0.00  0.00    +0.000 HD
ENDBRANCH  27  29
ENDBRANCH  24  26
ENDBRANCH  23  24
ENDBRANCH   1  23
TORSDOF 7
ENDMDL
MODEL 2
REMARK VINA RESULT:      -8.0      0.774      1.320
REMARK  Name = 
REMARK  7 active torsions:
REMARK  status: ('A' for Active; 'I' for Inactive)
REMARK    1  A    between atoms: C_2  and  C_3
REMARK    2  A    between atoms: C_3  and  O_4
REMARK    3  A    between atoms: O_4  and  C_5
REMARK    4  A    between atoms: C_13  and  C_14
REMARK    5  A    between atoms: N_16  and  C_17
REMARK    6  A    between atoms: C_17  and  C_18
REMARK    7  A    between atoms: N_25  and  O_26
REMARK                            x       y       z     vdW  Elec       q    Type
REMARK                         _______ _______ _______ _____ _____    ______ ____
ROOT
ATOM      1  C   UNL     1       4.868   5.335  18.447  0.00  0.00    +0.000 A 
ATOM      2  C   UNL     1       4.873   6.344  17.469  0.00  0.00    +0.000 A 
ATOM      3  C   UNL     1       3.873   7.326  17.449  0.00  0.00    +0.000 A 
ATOM      4  C   UNL     1       2.856   7.297  18.410  0.00  0.00    +0.000 A 
ATOM      5  C   UNL     1       2.855   6.311  19.400  0.00  0.00    +0.000 A 
ATOM      6  C   UNL     1       3.856   5.337  19.430  0.00  0.00    +0.000 A 
ATOM      7  C   UNL     1       1.753   6.378  20.422  0.00  0.00    +0.000 C 
ATOM      8  N   UNL     1       1.619   7.750  20.954  0.00  0.00    +0.000 NA
ATOM      9  C   UNL     1       1.701   8.843  19.939  0.00  0.00    +0.000 C 
ATOM     10  C   UNL     1       1.752   8.315  18.481  0.00  0.00    +0.000 C 
ATOM     11  H   UNL     1       2.337   7.915  21.699  0.00  0.00    +0.000 HD
ENDROOT
BRANCH   9  12
ATOM     12  C   UNL     1       0.520   9.763  20.128  0.00  0.00    +0.000 C 
ATOM     13  O   UNL     1       0.444  10.418  21.157  0.00  0.00    +0.000 OA
ATOM     14  N   UNL     1      -0.438   9.880  19.162  0.00  0.00    +0.000 N 
ATOM     15  H   UNL     1      -0.352   9.322  18.296  0.00  0.00    +0.000 HD
BRANCH  14  16
ATOM     16  C   UNL     1      -1.571  10.783  19.277  0.00  0.00    +0.000 C 
BRANCH  16  17
ATOM     17  C   UNL     1      -2.389  10.771  18.013  0.00  0.00    +0.000 A 
ATOM     18  C   UNL     1      -1.992   9.982  16.919  0.00  0.00    +0.000 A 
ATOM     19  C   UNL     1      -2.760   9.961  15.750  0.00  0.00    +0.000 A 
ATOM     20  C   UNL     1      -3.928  10.723  15.665  0.00  0.00    +0.000 A 
ATOM     21  C   UNL     1      -4.330  11.510  16.748  0.00  0.00    +0.000 A 
ATOM     22  C   UNL     1      -3.565  11.536  17.918  0.00  0.00    +0.000 A 
ENDBRANCH  16  17
ENDBRANCH  14  16
ENDBRANCH   9  12
BRANCH   1  23
ATOM     23  O   UNL     1       5.844   4.388  18.403  0.00  0.00    +0.000 OA
BRANCH  23  24
ATOM     24  C   UNL     1       7.055   4.485  17.736  0.00  0.00    +0.000 C 
BRANCH  24  26
ATOM     25  O   UNL     1       6.130   3.585  15.767  0.00  0.00    +0.000 OA
ATOM     26  C   UNL     1       6.857   4.442  16.248  0.00  0.00    +0.000 C 
ATOM     27  N   UNL     1       7.492   5.323  15.437  0.00  0.00    +0.000 N 
ATOM     28  H   UNL     1       8.108   6.047  15.834  0.00  0.00    +0.000 HD
BRANCH  27  29
ATOM     29  O   UNL     1       7.334   5.261  14.107  0.00  0.00    +0.000 OA
ATOM     30  H   UNL     1       8.006   4.596  13.799  0.00  0.00    +0.000 HD
ENDBRANCH  27  29
ENDBRANCH  24  26
ENDBRANCH  23  24
ENDBRANCH   1  23
TORSDOF 7
ENDMDL
MODEL 3
REMARK VINA RESULT:      -8.0      3.717     10.207
REMARK  Name = 
REMARK  7 active torsions:
REMARK  status: ('A' for Active; 'I' for Inactive)
REMARK    1  A    between atoms: C_2  and  C_3
REMARK    2  A    between atoms: C_3  and  O_4
REMARK    3  A    between atoms: O_4  and  C_5
REMARK    4  A    between atoms: C_13  and  C_14
REMARK    5  A    between atoms: N_16  and  C_17
REMARK    6  A    between atoms: C_17  and  C_18
REMARK    7  A    between atoms: N_25  and  O_26
REMARK                            x       y       z     vdW  Elec       q    Type
REMARK                         _______ _______ _______ _____ _____    ______ ____
ROOT
ATOM      1  C   UNL     1      -1.990  12.964  21.825  0.00  0.00    +0.000 A 
ATOM      2  C   UNL     1      -1.203  12.249  22.744  0.00  0.00    +0.000 A 
ATOM      3  C   UNL     1      -0.448  11.142  22.331  0.00  0.00    +0.000 A 
ATOM      4  C   UNL     1      -0.483  10.742  20.990  0.00  0.00    +0.000 A 
ATOM      5  C   UNL     1      -1.245  11.460  20.065  0.00  0.00    +0.000 A 
ATOM      6  C   UNL     1      -1.991  12.570  20.470  0.00  0.00    +0.000 A 
ATOM      7  C   UNL     1      -1.193  10.994  18.636  0.00  0.00    +0.000 C 
ATOM      8  N   UNL     1       0.206  10.777  18.210  0.00  0.00    +0.000 NA
ATOM      9  C   UNL     1       1.081  10.088  19.205  0.00  0.00    +0.000 C 
ATOM     10  C   UNL     1       0.304   9.582  20.449  0.00  0.00    +0.000 C 
ATOM     11  H   UNL     1       0.641  11.692  17.940  0.00  0.00    +0.000 HD
ENDROOT
BRANCH   9  12
ATOM     12  C   UNL     1       1.783   8.944  18.517  0.00  0.00    +0.000 C 
ATOM     13  O   UNL     1       2.079   9.060  17.337  0.00  0.00    +0.000 OA
ATOM     14  N   UNL     1       2.098   7.804  19.199  0.00  0.00    +0.000 N 
ATOM     15  H   UNL     1       1.844   7.727  20.198  0.00  0.00    +0.000 HD
BRANCH  14  16
ATOM     16  C   UNL     1       2.811   6.691  18.595  0.00  0.00    +0.000 C 
BRANCH  16  17
ATOM     17  C   UNL     1       2.162   5.383  18.961  0.00  0.00    +0.000 A 
ATOM     18  C   UNL     1       1.952   4.397  17.981  0.00  0.00    +0.000 A 
ATOM     19  C   UNL     1       1.362   3.177  18.325  0.00  0.00    +0.000 A 
ATOM     20  C   UNL     1       0.979   2.930  19.646  0.00  0.00    +0.000 A 
ATOM     21  C   UNL     1       1.184   3.904  20.626  0.00  0.00    +0.000 A 
ATOM     22  C   UNL     1       1.772   5.127  20.287  0.00  0.00    +0.000 A 
ENDBRANCH  16  17
ENDBRANCH  14  16
ENDBRANCH   9  12
BRANCH   1  23
ATOM     23  O   UNL     1      -2.728  14.010  22.284  0.00  0.00    +0.000 OA
BRANCH  23  24
ATOM     24  C   UNL     1      -4.066  14.252  22.016  0.00  0.00    +0.000 C 
BRANCH  24  26
ATOM     25  O   UNL     1      -5.385  12.313  22.233  0.00  0.00    +0.000 OA
ATOM     26  C   UNL     1      -4.950  13.313  22.787  0.00  0.00    +0.000 C 
ATOM     27  N   UNL     1      -5.287  13.574  24.074  0.00  0.00    +0.000 N 
ATOM     28  H   UNL     1      -4.927  14.415  24.546  0.00  0.00    +0.000 HD
BRANCH  27  29
ATOM     29  O   UNL     1      -6.099  12.747  24.747  0.00  0.00    +0.000 OA
ATOM     30  H   UNL     1      -5.709  12.689  25.660  0.00  0.00    +0.000 HD
ENDBRANCH  27  29
ENDBRANCH  24  26
ENDBRANCH  23  24
ENDBRANCH   1  23
TORSDOF 7
ENDMDL
MODEL 4
REMARK VINA RESULT:      -8.0      2.865      3.991
REMARK  Name = 
REMARK  7 active torsions:
REMARK  status: ('A' for Active; 'I' for Inactive)
REMARK    1  A    between atoms: C_2  and  C_3
REMARK    2  A    between atoms: C_3  and  O_4
REMARK    3  A    between atoms: O_4  and  C_5
REMARK    4  A    between atoms: C_13  and  C_14
REMARK    5  A    between atoms: N_16  and  C_17
REMARK    6  A    between atoms: C_17  and  C_18
REMARK    7  A    between atoms: N_25  and  O_26
REMARK                            x       y       z     vdW  Elec       q    Type
REMARK                         _______ _______ _______ _____ _____    ______ ____
ROOT
ATOM      1  C   UNL     1       5.875   4.541  15.267  0.00  0.00    +0.000 A 
ATOM      2  C   UNL     1       5.975   5.910  15.567  0.00  0.00    +0.000 A 
ATOM      3  C   UNL     1       5.121   6.501  16.508  0.00  0.00    +0.000 A 
ATOM      4  C   UNL     1       4.154   5.720  17.152  0.00  0.00    +0.000 A 
ATOM      5  C   UNL     1       4.062   4.354  16.878  0.00  0.00    +0.000 A 
ATOM      6  C   UNL     1       4.918   3.759  15.948  0.00  0.00    +0.000 A 
ATOM      7  C   UNL     1       3.028   3.576  17.645  0.00  0.00    +0.000 C 
ATOM      8  N   UNL     1       3.110   3.886  19.088  0.00  0.00    +0.000 NA
ATOM      9  C   UNL     1       3.296   5.329  19.426  0.00  0.00    +0.000 C 
ATOM     10  C   UNL     1       3.207   6.258  18.187  0.00  0.00    +0.000 C 
ATOM     11  H   UNL     1       3.877   3.325  19.529  0.00  0.00    +0.000 HD
ENDROOT
BRANCH   9  12
ATOM     12  C   UNL     1       2.264   5.718  20.456  0.00  0.00    +0.000 C 
ATOM     13  O   UNL     1       1.822   4.856  21.200  0.00  0.00    +0.000 OA
ATOM     14  N   UNL     1       1.843   7.012  20.570  0.00  0.00    +0.000 N 
ATOM     15  H   UNL     1       2.234   7.728  19.936  0.00  0.00    +0.000 HD
BRANCH  14  16
ATOM     16  C   UNL     1       0.885   7.446  21.573  0.00  0.00    +0.000 C 
BRANCH  16  17
ATOM     17  C   UNL     1       0.476   8.875  21.332  0.00  0.00    +0.000 A 
ATOM     18  C   UNL     1      -0.155   9.612  22.349  0.00  0.00    +0.000 A 
ATOM     19  C   UNL     1      -0.523  10.944  22.129  0.00  0.00    +0.000 A 
ATOM     20  C   UNL     1      -0.262  11.549  20.897  0.00  0.00    +0.000 A 
ATOM     21  C   UNL     1       0.365  10.824  19.881  0.00  0.00    +0.000 A 
ATOM     22  C   UNL     1       0.734   9.491  20.095  0.00  0.00    +0.000 A 
ENDBRANCH  16  17
ENDBRANCH  14  16
ENDBRANCH   9  12
BRANCH   1  23
ATOM     23  O   UNL     1       6.706   4.023  14.323  0.00  0.00    +0.000 OA
BRANCH  23  24
ATOM     24  C   UNL     1       6.696   4.316  12.969  0.00  0.00    +0.000 C 
BRANCH  24  26
ATOM     25  O   UNL     1       4.889   3.268  11.881  0.00  0.00    +0.000 OA
ATOM     26  C   UNL     1       6.073   3.200  12.180  0.00  0.00    +0.000 C 
ATOM     27  N   UNL     1       6.800   2.113  11.820  0.00  0.00    +0.000 N 
ATOM     28  H   UNL     1       7.796   2.047  12.070  0.00  0.00    +0.000 HD
BRANCH  27  29
ATOM     29  O   UNL     1       6.231   1.107  11.141  0.00  0.00    +0.000 OA
ATOM     30  H   UNL     1       5.315   1.429  10.923  0.00  0.00    +0.000 HD
ENDBRANCH  27  29
ENDBRANCH  24  26
ENDBRANCH  23  24
ENDBRANCH   1  23
TORSDOF 7
ENDMDL
MODEL 5
REMARK VINA RESULT:      -8.0      1.550      2.147
REMARK  Name = 
REMARK  7 active torsions:
REMARK  status: ('A' for Active; 'I' for Inactive)
REMARK    1  A    between atoms: C_2  and  C_3
REMARK    2  A    between atoms: C_3  and  O_4
REMARK    3  A    between atoms: O_4  and  C_5
REMARK    4  A    between atoms: C_13  and  C_14
REMARK    5  A    between atoms: N_16  and  C_17
REMARK    6  A    between atoms: C_17  and  C_18
REMARK    7  A    between atoms: N_25  and  O_26
REMARK                            x       y       z     vdW  Elec       q    Type
REMARK                         _______ _______ _______ _____ _____    ______ ____
ROOT
ATOM      1  C   UNL     1       5.087   5.204  18.068  0.00  0.00    +0.000 A 
ATOM      2  C   UNL     1       4.972   6.218  17.102  0.00  0.00    +0.000 A 
ATOM      3  C   UNL     1       3.915   7.137  17.150  0.00  0.00    +0.000 A 
ATOM      4  C   UNL     1       2.960   7.040  18.169  0.00  0.00    +0.000 A 
ATOM      5  C   UNL     1       3.077   6.050  19.147  0.00  0.00    +0.000 A 
ATOM      6  C   UNL     1       4.136   5.138  19.108  0.00  0.00    +0.000 A 
ATOM      7  C   UNL     1       2.037   6.042  20.232  0.00  0.00    +0.000 C 
ATOM      8  N   UNL     1       1.851   7.400  20.785  0.00  0.00    +0.000 NA
ATOM      9  C   UNL     1       1.806   8.503  19.778  0.00  0.00    +0.000 C 
ATOM     10  C   UNL     1       1.803   7.988  18.315  0.00  0.00    +0.000 C 
ATOM     11  H   UNL     1       2.601   7.603  21.488  0.00  0.00    +0.000 HD
ENDROOT
BRANCH   9  12
ATOM     12  C   UNL     1       0.585   9.348  20.046  0.00  0.00    +0.000 C 
ATOM     13  O   UNL     1      -0.120   9.075  21.006  0.00  0.00    +0.000 OA
ATOM     14  N   UNL     1       0.279  10.409  19.243  0.00  0.00    +0.000 N 
ATOM     15  H   UNL     1       0.890  10.626  18.439  0.00  0.00    +0.000 HD
BRANCH  14  16
ATOM     16  C   UNL     1      -0.860  11.279  19.482  0.00  0.00    +0.000 C 
BRANCH  16  17
ATOM     17  C   UNL     1      -1.936  11.040  18.456  0.00  0.00    +0.000 A 
ATOM     18  C   UNL     1      -3.171  11.703  18.557  0.00  0.00    +0.000 A 
ATOM     19  C   UNL     1      -4.165  11.491  17.596  0.00  0.00    +0.000 A 
ATOM     20  C   UNL     1      -3.933  10.621  16.528  0.00  0.00    +0.000 A 
ATOM     21  C   UNL     1      -2.707   9.958  16.419  0.00  0.00    +0.000 A 
ATOM     22  C   UNL     1      -1.711  10.166  17.378  0.00  0.00    +0.000 A 
ENDBRANCH  16  17
ENDBRANCH  14  16
ENDBRANCH   9  12
BRANCH   1  23
ATOM     23  O   UNL     1       6.113   4.319  17.957  0.00  0.00    +0.000 OA
BRANCH  23  24
ATOM     24  C   UNL     1       7.457   4.631  17.827  0.00  0.00    +0.000 C 
BRANCH  24  26
ATOM     25  O   UNL     1       7.805   5.471  19.999  0.00  0.00    +0.000 OA
ATOM     26  C   UNL     1       7.860   5.702  18.799  0.00  0.00    +0.000 C 
ATOM     27  N   UNL     1       8.258   6.923  18.364  0.00  0.00    +0.000 N 
ATOM     28  H   UNL     1       8.305   7.127  17.356  0.00  0.00    +0.000 HD
BRANCH  27  29
ATOM     29  O   UNL     1       8.588   7.884  19.238  0.00  0.00    +0.000 OA
ATOM     30  H   UNL     1       8.660   8.713  18.693  0.00  0.00    +0.000 HD
ENDBRANCH  27  29
ENDBRANCH  24  26
ENDBRANCH  23  24
ENDBRANCH   1  23
TORSDOF 7
ENDMDL
MODEL 6
REMARK VINA RESULT:      -7.9      0.828      1.442
REMARK  Name = 
REMARK  7 active torsions:
REMARK  status: ('A' for Active; 'I' for Inactive)
REMARK    1  A    between atoms: C_2  and  C_3
REMARK    2  A    between atoms: C_3  and  O_4
REMARK    3  A    between atoms: O_4  and  C_5
REMARK    4  A    between atoms: C_13  and  C_14
REMARK    5  A    between atoms: N_16  and  C_17
REMARK    6  A    between atoms: C_17  and  C_18
REMARK    7  A    between atoms: N_25  and  O_26
REMARK                            x       y       z     vdW  Elec       q    Type
REMARK                         _______ _______ _______ _____ _____    ______ ____
ROOT
ATOM      1  C   UNL     1       5.053   5.568  17.476  0.00  0.00    +0.000 A 
ATOM      2  C   UNL     1       4.913   6.737  16.709  0.00  0.00    +0.000 A 
ATOM      3  C   UNL     1       3.866   7.635  16.957  0.00  0.00    +0.000 A 
ATOM      4  C   UNL     1       2.946   7.361  17.976  0.00  0.00    +0.000 A 
ATOM      5  C   UNL     1       3.089   6.213  18.758  0.00  0.00    +0.000 A 
ATOM      6  C   UNL     1       4.137   5.321  18.521  0.00  0.00    +0.000 A 
ATOM      7  C   UNL     1       2.086   6.015  19.861  0.00  0.00    +0.000 C 
ATOM      8  N   UNL     1       1.930   7.254  20.651  0.00  0.00    +0.000 NA
ATOM      9  C   UNL     1       1.859   8.518  19.858  0.00  0.00    +0.000 C 
ATOM     10  C   UNL     1       1.802   8.270  18.327  0.00  0.00    +0.000 C 
ATOM     11  H   UNL     1       2.705   7.328  21.353  0.00  0.00    +0.000 HD
ENDROOT
BRANCH   9  12
ATOM     12  C   UNL     1       0.655   9.304  20.313  0.00  0.00    +0.000 C 
ATOM     13  O   UNL     1       0.104   8.985  21.356  0.00  0.00    +0.000 OA
ATOM     14  N   UNL     1       0.196  10.365  19.586  0.00  0.00    +0.000 N 
ATOM     15  H   UNL     1       0.679  10.623  18.710  0.00  0.00    +0.000 HD
BRANCH  14  16
ATOM     16  C   UNL     1      -0.931  11.181  20.003  0.00  0.00    +0.000 C 
BRANCH  16  17
ATOM     17  C   UNL     1      -2.052  11.088  19.002  0.00  0.00    +0.000 A 
ATOM     18  C   UNL     1      -1.982  10.167  17.943  0.00  0.00    +0.000 A 
ATOM     19  C   UNL     1      -3.030  10.072  17.021  0.00  0.00    +0.000 A 
ATOM     20  C   UNL     1      -4.154  10.891  17.151  0.00  0.00    +0.000 A 
ATOM     21  C   UNL     1      -4.233  11.810  18.201  0.00  0.00    +0.000 A 
ATOM     22  C   UNL     1      -3.187  11.910  19.125  0.00  0.00    +0.000 A 
ENDBRANCH  16  17
ENDBRANCH  14  16
ENDBRANCH   9  12
BRANCH   1  23
ATOM     23  O   UNL     1       6.068   4.715  17.175  0.00  0.00    +0.000 OA
BRANCH  23  24
ATOM     24  C   UNL     1       6.061   3.748  16.182  0.00  0.00    +0.000 C 
BRANCH  24  26
ATOM     25  O   UNL     1       6.289   3.815  13.839  0.00  0.00    +0.000 OA
ATOM     26  C   UNL     1       6.660   4.276  14.909  0.00  0.00    +0.000 C 
ATOM     27  N   UNL     1       7.619   5.234  14.937  0.00  0.00    +0.000 N 
ATOM     28  H   UNL     1       7.938   5.626  15.834  0.00  0.00    +0.000 HD
BRANCH  27  29
ATOM     29  O   UNL     1       8.169   5.681  13.799  0.00  0.00    +0.000 OA
ATOM     30  H   UNL     1       7.660   5.230  13.073  0.00  0.00    +0.000 HD
ENDBRANCH  27  29
ENDBRANCH  24  26
ENDBRANCH  23  24
ENDBRANCH   1  23
TORSDOF 7
ENDMDL
MODEL 7
REMARK VINA RESULT:      -7.7      0.940      1.029
REMARK  Name = 
REMARK  7 active torsions:
REMARK  status: ('A' for Active; 'I' for Inactive)
REMARK    1  A    between atoms: C_2  and  C_3
REMARK    2  A    between atoms: C_3  and  O_4
REMARK    3  A    between atoms: O_4  and  C_5
REMARK    4  A    between atoms: C_13  and  C_14
REMARK    5  A    between atoms: N_16  and  C_17
REMARK    6  A    between atoms: C_17  and  C_18
REMARK    7  A    between atoms: N_25  and  O_26
REMARK                            x       y       z     vdW  Elec       q    Type
REMARK                         _______ _______ _______ _____ _____    ______ ____
ROOT
ATOM      1  C   UNL     1       4.540   5.357  17.850  0.00  0.00    +0.000 A 
ATOM      2  C   UNL     1       4.534   6.441  16.956  0.00  0.00    +0.000 A 
ATOM      3  C   UNL     1       3.613   7.487  17.107  0.00  0.00    +0.000 A 
ATOM      4  C   UNL     1       2.687   7.449  18.156  0.00  0.00    +0.000 A 
ATOM      5  C   UNL     1       2.700   6.387  19.063  0.00  0.00    +0.000 A 
ATOM      6  C   UNL     1       3.623   5.347  18.922  0.00  0.00    +0.000 A 
ATOM      7  C   UNL     1       1.703   6.444  20.187  0.00  0.00    +0.000 C 
ATOM      8  N   UNL     1       1.722   7.773  20.833  0.00  0.00    +0.000 NA
ATOM      9  C   UNL     1       1.796   8.939  19.901  0.00  0.00    +0.000 C 
ATOM     10  C   UNL     1       1.675   8.530  18.409  0.00  0.00    +0.000 C 
ATOM     11  H   UNL     1       2.515   7.826  21.516  0.00  0.00    +0.000 HD
ENDROOT
BRANCH   9  12
ATOM     12  C   UNL     1       0.710   9.919  20.272  0.00  0.00    +0.000 C 
ATOM     13  O   UNL     1       0.738  10.436  21.378  0.00  0.00    +0.000 OA
ATOM     14  N   UNL     1      -0.277  10.238  19.384  0.00  0.00    +0.000 N 
ATOM     15  H   UNL     1      -0.280   9.795  18.450  0.00  0.00    +0.000 HD
BRANCH  14  16
ATOM     16  C   UNL     1      -1.319  11.208  19.675  0.00  0.00    +0.000 C 
BRANCH  16  17
ATOM     17  C   UNL     1      -2.398  11.159  18.626  0.00  0.00    +0.000 A 
ATOM     18  C   UNL     1      -3.596  11.871  18.808  0.00  0.00    +0.000 A 
ATOM     19  C   UNL     1      -4.592  11.836  17.827  0.00  0.00    +0.000 A 
ATOM     20  C   UNL     1      -4.400  11.095  16.658  0.00  0.00    +0.000 A 
ATOM     21  C   UNL     1      -3.211  10.385  16.469  0.00  0.00    +0.000 A 
ATOM     22  C   UNL     1      -2.213  10.415  17.448  0.00  0.00    +0.000 A 
ENDBRANCH  16  17
ENDBRANCH  14  16
ENDBRANCH   9  12
BRANCH   1  23
ATOM     23  O   UNL     1       5.433   4.352  17.642  0.00  0.00    +0.000 OA
BRANCH  23  24
ATOM     24  C   UNL     1       5.790   3.810  16.417  0.00  0.00    +0.000 C 
BRANCH  24  26
ATOM     25  O   UNL     1       8.034   4.507  16.565  0.00  0.00    +0.000 OA
ATOM     26  C   UNL     1       7.026   4.469  15.874  0.00  0.00    +0.000 C 
ATOM     27  N   UNL     1       7.026   5.042  14.645  0.00  0.00    +0.000 N 
ATOM     28  H   UNL     1       6.180   5.017  14.059  0.00  0.00    +0.000 HD
BRANCH  27  29
ATOM     29  O   UNL     1       8.124   5.654  14.179  0.00  0.00    +0.000 OA
ATOM     30  H   UNL     1       8.017   6.607  14.441  0.00  0.00    +0.000 HD
ENDBRANCH  27  29
ENDBRANCH  24  26
ENDBRANCH  23  24
ENDBRANCH   1  23
TORSDOF 7
ENDMDL
MODEL 8
REMARK VINA RESULT:      -7.7      3.441     10.078
REMARK  Name = 
REMARK  7 active torsions:
REMARK  status: ('A' for Active; 'I' for Inactive)
REMARK    1  A    between atoms: C_2  and  C_3
REMARK    2  A    between atoms: C_3  and  O_4
REMARK    3  A    between atoms: O_4  and  C_5
REMARK    4  A    between atoms: C_13  and  C_14
REMARK    5  A    between atoms: N_16  and  C_17
REMARK    6  A    between atoms: C_17  and  C_18
REMARK    7  A    between atoms: N_25  and  O_26
REMARK                            x       y       z     vdW  Elec       q    Type
REMARK                         _______ _______ _______ _____ _____    ______ ____
ROOT
ATOM      1  C   UNL     1      -1.787  12.517  21.470  0.00  0.00    +0.000 A 
ATOM      2  C   UNL     1      -0.929  11.912  22.405  0.00  0.00    +0.000 A 
ATOM      3  C   UNL     1      -0.127  10.823  22.040  0.00  0.00    +0.000 A 
ATOM      4  C   UNL     1      -0.185  10.328  20.731  0.00  0.00    +0.000 A 
ATOM      5  C   UNL     1      -1.017  10.937  19.789  0.00  0.00    +0.000 A 
ATOM      6  C   UNL     1      -1.811  12.030  20.146  0.00  0.00    +0.000 A 
ATOM      7  C   UNL     1      -0.987  10.375  18.394  0.00  0.00    +0.000 C 
ATOM      8  N   UNL     1       0.406  10.206  17.932  0.00  0.00    +0.000 NA
ATOM      9  C   UNL     1       1.353   9.638  18.937  0.00  0.00    +0.000 C 
ATOM     10  C   UNL     1       0.649   9.178  20.241  0.00  0.00    +0.000 C 
ATOM     11  H   UNL     1       0.779  11.122  17.584  0.00  0.00    +0.000 HD
ENDROOT
BRANCH   9  12
ATOM     12  C   UNL     1       2.095   8.488  18.302  0.00  0.00    +0.000 C 
ATOM     13  O   UNL     1       2.663   8.671  17.236  0.00  0.00    +0.000 OA
ATOM     14  N   UNL     1       2.150   7.268  18.913  0.00  0.00    +0.000 N 
ATOM     15  H   UNL     1       1.668   7.134  19.817  0.00  0.00    +0.000 HD
BRANCH  14  16
ATOM     16  C   UNL     1       2.886   6.141  18.365  0.00  0.00    +0.000 C 
BRANCH  16  17
ATOM     17  C   UNL     1       2.858   4.975  19.317  0.00  0.00    +0.000 A 
ATOM     18  C   UNL     1       1.943   4.952  20.383  0.00  0.00    +0.000 A 
ATOM     19  C   UNL     1       1.909   3.862  21.259  0.00  0.00    +0.000 A 
ATOM     20  C   UNL     1       2.783   2.788  21.076  0.00  0.00    +0.000 A 
ATOM     21  C   UNL     1       3.696   2.802  20.019  0.00  0.00    +0.000 A 
ATOM     22  C   UNL     1       3.736   3.891  19.141  0.00  0.00    +0.000 A 
ENDBRANCH  16  17
ENDBRANCH  14  16
ENDBRANCH   9  12
BRANCH   1  23
ATOM     23  O   UNL     1      -2.568  13.551  21.884  0.00  0.00    +0.000 OA
BRANCH  23  24
ATOM     24  C   UNL     1      -3.929  13.691  21.667  0.00  0.00    +0.000 C 
BRANCH  24  26
ATOM     25  O   UNL     1      -5.827  12.433  22.272  0.00  0.00    +0.000 OA
ATOM     26  C   UNL     1      -4.718  12.827  22.608  0.00  0.00    +0.000 C 
ATOM     27  N   UNL     1      -4.229  12.502  23.830  0.00  0.00    +0.000 N 
ATOM     28  H   UNL     1      -3.298  12.831  24.122  0.00  0.00    +0.000 HD
BRANCH  27  29
ATOM     29  O   UNL     1      -4.950  11.755  24.677  0.00  0.00    +0.000 OA
ATOM     30  H   UNL     1      -4.549  10.846  24.625  0.00  0.00    +0.000 HD
ENDBRANCH  27  29
ENDBRANCH  24  26
ENDBRANCH  23  24
ENDBRANCH   1  23
TORSDOF 7
ENDMDL
MODEL 9
REMARK VINA RESULT:      -7.6      2.372      3.301
REMARK  Name = 
REMARK  7 active torsions:
REMARK  status: ('A' for Active; 'I' for Inactive)
REMARK    1  A    between atoms: C_2  and  C_3
REMARK    2  A    between atoms: C_3  and  O_4
REMARK    3  A    between atoms: O_4  and  C_5
REMARK    4  A    between atoms: C_13  and  C_14
REMARK    5  A    between atoms: N_16  and  C_17
REMARK    6  A    between atoms: C_17  and  C_18
REMARK    7  A    between atoms: N_25  and  O_26
REMARK                            x       y       z     vdW  Elec       q    Type
REMARK                         _______ _______ _______ _____ _____    ______ ____
ROOT
ATOM      1  C   UNL     1       3.291   6.722  18.504  0.00  0.00    +0.000 A 
ATOM      2  C   UNL     1       3.085   7.807  17.636  0.00  0.00    +0.000 A 
ATOM      3  C   UNL     1       2.202   8.840  17.978  0.00  0.00    +0.000 A 
ATOM      4  C   UNL     1       1.514   8.787  19.196  0.00  0.00    +0.000 A 
ATOM      5  C   UNL     1       1.728   7.724  20.075  0.00  0.00    +0.000 A 
ATOM      6  C   UNL     1       2.616   6.698  19.743  0.00  0.00    +0.000 A 
ATOM      7  C   UNL     1       0.985   7.765  21.382  0.00  0.00    +0.000 C 
ATOM      8  N   UNL     1       1.118   9.094  22.016  0.00  0.00    +0.000 NA
ATOM      9  C   UNL     1       0.982  10.261  21.094  0.00  0.00    +0.000 C 
ATOM     10  C   UNL     1       0.561   9.854  19.657  0.00  0.00    +0.000 C 
ATOM     11  H   UNL     1       2.035   9.156  22.521  0.00  0.00    +0.000 HD
ENDROOT
BRANCH   9  12
ATOM     12  C   UNL     1      -0.017  11.226  21.685  0.00  0.00    +0.000 C 
ATOM     13  O   UNL     1      -0.276  11.147  22.877  0.00  0.00    +0.000 OA
ATOM     14  N   UNL     1      -0.609  12.182  20.911  0.00  0.00    +0.000 N 
ATOM     15  H   UNL     1      -0.372  12.237  19.907  0.00  0.00    +0.000 HD
BRANCH  14  16
ATOM     16  C   UNL     1      -1.543  13.161  21.440  0.00  0.00    +0.000 C 
BRANCH  16  17
ATOM     17  C   UNL     1      -2.949  12.844  21.004  0.00  0.00    +0.000 A 
ATOM     18  C   UNL     1      -3.203  12.421  19.688  0.00  0.00    +0.000 A 
ATOM     19  C   UNL     1      -4.508  12.114  19.287  0.00  0.00    +0.000 A 
ATOM     20  C   UNL     1      -5.564  12.222  20.195  0.00  0.00    +0.000 A 
ATOM     21  C   UNL     1      -5.320  12.641  21.505  0.00  0.00    +0.000 A 
ATOM     22  C   UNL     1      -4.017  12.952  21.911  0.00  0.00    +0.000 A 
ENDBRANCH  16  17
ENDBRANCH  14  16
ENDBRANCH   9  12
BRANCH   1  23
ATOM     23  O   UNL     1       4.135   5.730  18.111  0.00  0.00    +0.000 OA
BRANCH  23  24
ATOM     24  C   UNL     1       4.661   4.731  18.916  0.00  0.00    +0.000 C 
BRANCH  24  26
ATOM     25  O   UNL     1       6.795   5.307  19.729  0.00  0.00    +0.000 OA
ATOM     26  C   UNL     1       6.162   4.726  18.858  0.00  0.00    +0.000 C 
ATOM     27  N   UNL     1       6.817   4.111  17.843  0.00  0.00    +0.000 N 
ATOM     28  H   UNL     1       6.291   3.622  17.105  0.00  0.00    +0.000 HD
BRANCH  27  29
ATOM     29  O   UNL     1       8.156   4.135  17.782  0.00  0.00    +0.000 OA
ATOM     30  H   UNL     1       8.367   4.226  16.814  0.00  0.00    +0.000 HD
ENDBRANCH  27  29
ENDBRANCH  24  26
ENDBRANCH  23  24
ENDBRANCH   1  23
TORSDOF 7
ENDMDL
