MODEL 1
REMARK VINA RESULT:      -7.3      0.000      0.000
REMARK  Name = 
REMARK  3 active torsions:
REMARK  status: ('A' for Active; 'I' for Inactive)
REMARK    1  A    between atoms: C_1  and  C_2
REMARK    2  A    between atoms: C_2  and  C_3
REMARK    3  A    between atoms: C_8  and  C_9
REMARK                            x       y       z     vdW  Elec       q    Type
REMARK                         _______ _______ _______ _____ _____    ______ ____
ROOT
ATOM      1  C   UNL     1       2.822   6.501  19.004  0.00  0.00    +0.000 A 
ATOM      2  N   UNL     1       2.876   7.235  17.881  0.00  0.00    +0.000 NA
ATOM      3  C   UNL     1       2.286   8.445  17.912  0.00  0.00    +0.000 A 
ATOM      4  C   UNL     1       1.638   8.946  19.015  0.00  0.00    +0.000 A 
ATOM      5  C   UNL     1       1.641   8.122  20.128  0.00  0.00    +0.000 A 
ATOM      6  N   UNL     1       2.218   6.901  20.138  0.00  0.00    +0.000 NA
ATOM      7  C   UNL     1       0.935   8.556  21.382  0.00  0.00    +0.000 C 
ATOM      8  C   UNL     1       0.744  10.073  21.419  0.00  0.00    +0.000 C 
ATOM      9  N   UNL     1       0.146  10.553  20.170  0.00  0.00    +0.000 NA
ATOM     10  C   UNL     1       1.051  10.322  19.039  0.00  0.00    +0.000 C 
ATOM     11  H   UNL     1      -0.046  11.551  20.243  0.00  0.00    +0.000 HD
ENDROOT
BRANCH   1  17
ATOM     12  C   UNL     1       6.774   4.441  16.455  0.00  0.00    +0.000 C 
ATOM     13  O   UNL     1       7.905   4.477  16.942  0.00  0.00    +0.000 OA
ATOM     14  N   UNL     1       5.666   4.947  17.122  0.00  0.00    +0.000 N 
ATOM     15  C   UNL     1       5.873   5.689  18.363  0.00  0.00    +0.000 C 
ATOM     16  C   UNL     1       4.940   5.193  19.461  0.00  0.00    +0.000 C 
ATOM     17  C   UNL     1       3.471   5.134  19.017  0.00  0.00    +0.000 C 
ATOM     18  C   UNL     1       3.327   4.418  17.667  0.00  0.00    +0.000 C 
ATOM     19  C   UNL     1       4.295   4.943  16.609  0.00  0.00    +0.000 C 
BRANCH  12  21
ATOM     20  C   UNL     1       6.943   4.775  13.963  0.00  0.00    +0.000 C 
ATOM     21  C   UNL     1       6.531   3.835  15.083  0.00  0.00    +0.000 C 
ENDBRANCH  12  21
ENDBRANCH   1  17
TORSDOF 2
ENDMDL
MODEL 2
REMARK VINA RESULT:      -7.2      3.927      4.800
REMARK  Name = 
REMARK  3 active torsions:
REMARK  status: ('A' for Active; 'I' for Inactive)
REMARK    1  A    between atoms: C_1  and  C_2
REMARK    2  A    between atoms: C_2  and  C_3
REMARK    3  A    between atoms: C_8  and  C_9
REMARK                            x       y       z     vdW  Elec       q    Type
REMARK                         _______ _______ _______ _____ _____    ______ ____
ROOT
ATOM      1  C   UNL     1       4.352   4.177  17.724  0.00  0.00    +0.000 A 
ATOM      2  N   UNL     1       3.218   4.478  17.071  0.00  0.00    +0.000 NA
ATOM      3  C   UNL     1       2.059   4.233  17.713  0.00  0.00    +0.000 A 
ATOM      4  C   UNL     1       1.990   3.693  18.975  0.00  0.00    +0.000 A 
ATOM      5  C   UNL     1       3.210   3.425  19.571  0.00  0.00    +0.000 A 
ATOM      6  N   UNL     1       4.394   3.651  18.962  0.00  0.00    +0.000 NA
ATOM      7  C   UNL     1       3.253   2.803  20.940  0.00  0.00    +0.000 C 
ATOM      8  C   UNL     1       1.941   3.025  21.695  0.00  0.00    +0.000 C 
ATOM      9  N   UNL     1       0.794   2.636  20.871  0.00  0.00    +0.000 NA
ATOM     10  C   UNL     1       0.689   3.497  19.687  0.00  0.00    +0.000 C 
ATOM     11  H   UNL     1      -0.064   2.716  21.416  0.00  0.00    +0.000 HD
ENDROOT
BRANCH   1  17
ATOM     12  C   UNL     1       7.966   7.783  18.271  0.00  0.00    +0.000 C 
ATOM     13  O   UNL     1       8.916   7.590  19.032  0.00  0.00    +0.000 OA
ATOM     14  N   UNL     1       6.985   6.824  18.057  0.00  0.00    +0.000 N 
ATOM     15  C   UNL     1       6.991   5.617  18.881  0.00  0.00    +0.000 C 
ATOM     16  C   UNL     1       6.858   4.365  18.022  0.00  0.00    +0.000 C 
ATOM     17  C   UNL     1       5.679   4.435  17.042  0.00  0.00    +0.000 C 
ATOM     18  C   UNL     1       5.677   5.760  16.267  0.00  0.00    +0.000 C 
ATOM     19  C   UNL     1       5.828   6.979  17.173  0.00  0.00    +0.000 C 
BRANCH  12  21
ATOM     20  C   UNL     1       8.665  10.200  18.129  0.00  0.00    +0.000 C 
ATOM     21  C   UNL     1       7.818   9.096  17.522  0.00  0.00    +0.000 C 
ENDBRANCH  12  21
ENDBRANCH   1  17
TORSDOF 2
ENDMDL
MODEL 3
REMARK VINA RESULT:      -7.2      0.886      1.826
REMARK  Name = 
REMARK  3 active torsions:
REMARK  status: ('A' for Active; 'I' for Inactive)
REMARK    1  A    between atoms: C_1  and  C_2
REMARK    2  A    between atoms: C_2  and  C_3
REMARK    3  A    between atoms: C_8  and  C_9
REMARK                            x       y       z     vdW  Elec       q    Type
REMARK                         _______ _______ _______ _____ _____    ______ ____
ROOT
ATOM      1  C   UNL     1       2.916   5.478  19.350  0.00  0.00    +0.000 A 
ATOM      2  N   UNL     1       2.309   5.541  20.546  0.00  0.00    +0.000 NA
ATOM      3  C   UNL     1       1.687   6.695  20.855  0.00  0.00    +0.000 A 
ATOM      4  C   UNL     1       1.656   7.788  20.023  0.00  0.00    +0.000 A 
ATOM      5  C   UNL     1       2.302   7.625  18.809  0.00  0.00    +0.000 A 
ATOM      6  N   UNL     1       2.940   6.488  18.461  0.00  0.00    +0.000 NA
ATOM      7  C   UNL     1       2.357   8.768  17.833  0.00  0.00    +0.000 C 
ATOM      8  C   UNL     1       1.251   9.789  18.104  0.00  0.00    +0.000 C 
ATOM      9  N   UNL     1       1.238  10.178  19.517  0.00  0.00    +0.000 NA
ATOM     10  C   UNL     1       0.899   9.032  20.368  0.00  0.00    +0.000 C 
ATOM     11  H   UNL     1       0.549  10.915  19.664  0.00  0.00    +0.000 HD
ENDROOT
BRANCH   1  17
ATOM     12  C   UNL     1       6.798   4.432  16.157  0.00  0.00    +0.000 C 
ATOM     13  O   UNL     1       7.954   4.403  16.583  0.00  0.00    +0.000 OA
ATOM     14  N   UNL     1       5.711   4.670  16.987  0.00  0.00    +0.000 N 
ATOM     15  C   UNL     1       5.957   5.058  18.373  0.00  0.00    +0.000 C 
ATOM     16  C   UNL     1       5.116   4.226  19.334  0.00  0.00    +0.000 C 
ATOM     17  C   UNL     1       3.628   4.201  18.958  0.00  0.00    +0.000 C 
ATOM     18  C   UNL     1       3.436   3.871  17.471  0.00  0.00    +0.000 C 
ATOM     19  C   UNL     1       4.313   4.721  16.555  0.00  0.00    +0.000 C 
BRANCH  12  21
ATOM     20  C   UNL     1       7.404   5.038  13.787  0.00  0.00    +0.000 C 
ATOM     21  C   UNL     1       6.502   4.208  14.684  0.00  0.00    +0.000 C 
ENDBRANCH  12  21
ENDBRANCH   1  17
TORSDOF 2
ENDMDL
MODEL 4
REMARK VINA RESULT:      -7.1      0.866      1.797
REMARK  Name = 
REMARK  3 active torsions:
REMARK  status: ('A' for Active; 'I' for Inactive)
REMARK    1  A    between atoms: C_1  and  C_2
REMARK    2  A    between atoms: C_2  and  C_3
REMARK    3  A    between atoms: C_8  and  C_9
REMARK                            x       y       z     vdW  Elec       q    Type
REMARK                         _______ _______ _______ _____ _____    ______ ____
ROOT
ATOM      1  C   UNL     1       2.381   6.149  19.370  0.00  0.00    +0.000 A 
ATOM      2  N   UNL     1       1.920   6.222  20.628  0.00  0.00    +0.000 NA
ATOM      3  C   UNL     1       1.424   7.408  21.030  0.00  0.00    +0.000 A 
ATOM      4  C   UNL     1       1.381   8.524  20.228  0.00  0.00    +0.000 A 
ATOM      5  C   UNL     1       1.871   8.349  18.945  0.00  0.00    +0.000 A 
ATOM      6  N   UNL     1       2.379   7.179  18.504  0.00  0.00    +0.000 NA
ATOM      7  C   UNL     1       1.901   9.512  17.992  0.00  0.00    +0.000 C 
ATOM      8  C   UNL     1       0.912  10.601  18.408  0.00  0.00    +0.000 C 
ATOM      9  N   UNL     1       1.087  10.951  19.821  0.00  0.00    +0.000 NA
ATOM     10  C   UNL     1       0.762   9.808  20.682  0.00  0.00    +0.000 C 
ATOM     11  H   UNL     1       0.476  11.730  20.060  0.00  0.00    +0.000 HD
ENDROOT
BRANCH   1  17
ATOM     12  C   UNL     1       6.862   4.805  17.251  0.00  0.00    +0.000 C 
ATOM     13  O   UNL     1       7.783   4.406  17.965  0.00  0.00    +0.000 OA
ATOM     14  N   UNL     1       5.618   5.142  17.770  0.00  0.00    +0.000 N 
ATOM     15  C   UNL     1       5.450   5.179  19.221  0.00  0.00    +0.000 C 
ATOM     16  C   UNL     1       4.203   4.414  19.649  0.00  0.00    +0.000 C 
ATOM     17  C   UNL     1       2.948   4.835  18.873  0.00  0.00    +0.000 C 
ATOM     18  C   UNL     1       3.210   4.859  17.361  0.00  0.00    +0.000 C 
ATOM     19  C   UNL     1       4.478   5.625  16.990  0.00  0.00    +0.000 C 
BRANCH  12  21
ATOM     20  C   UNL     1       6.379   3.823  14.981  0.00  0.00    +0.000 C 
ATOM     21  C   UNL     1       7.041   4.953  15.750  0.00  0.00    +0.000 C 
ENDBRANCH  12  21
ENDBRANCH   1  17
TORSDOF 2
ENDMDL
MODEL 5
REMARK VINA RESULT:      -7.0      1.372      2.327
REMARK  Name = 
REMARK  3 active torsions:
REMARK  status: ('A' for Active; 'I' for Inactive)
REMARK    1  A    between atoms: C_1  and  C_2
REMARK    2  A    between atoms: C_2  and  C_3
REMARK    3  A    between atoms: C_8  and  C_9
REMARK                            x       y       z     vdW  Elec       q    Type
REMARK                         _______ _______ _______ _____ _____    ______ ____
ROOT
ATOM      1  C   UNL     1       3.972   5.326  18.993  0.00  0.00    +0.000 A 
ATOM      2  N   UNL     1       3.303   5.101  20.134  0.00  0.00    +0.000 NA
ATOM      3  C   UNL     1       2.395   6.025  20.503  0.00  0.00    +0.000 A 
ATOM      4  C   UNL     1       2.138   7.166  19.783  0.00  0.00    +0.000 A 
ATOM      5  C   UNL     1       2.871   7.308  18.617  0.00  0.00    +0.000 A 
ATOM      6  N   UNL     1       3.792   6.408  18.212  0.00  0.00    +0.000 NA
ATOM      7  C   UNL     1       2.693   8.535  17.766  0.00  0.00    +0.000 C 
ATOM      8  C   UNL     1       1.352   9.218  18.044  0.00  0.00    +0.000 C 
ATOM      9  N   UNL     1       1.163   9.425  19.483  0.00  0.00    +0.000 NA
ATOM     10  C   UNL     1       1.075   8.140  20.185  0.00  0.00    +0.000 C 
ATOM     11  H   UNL     1       0.304   9.950  19.644  0.00  0.00    +0.000 HD
ENDROOT
BRANCH   1  17
ATOM     12  C   UNL     1       6.611   4.686  14.635  0.00  0.00    +0.000 C 
ATOM     13  O   UNL     1       7.726   5.193  14.512  0.00  0.00    +0.000 OA
ATOM     14  N   UNL     1       5.874   4.795  15.807  0.00  0.00    +0.000 N 
ATOM     15  C   UNL     1       6.367   5.674  16.866  0.00  0.00    +0.000 C 
ATOM     16  C   UNL     1       6.354   4.967  18.216  0.00  0.00    +0.000 C 
ATOM     17  C   UNL     1       5.002   4.315  18.537  0.00  0.00    +0.000 C 
ATOM     18  C   UNL     1       4.497   3.474  17.357  0.00  0.00    +0.000 C 
ATOM     19  C   UNL     1       4.545   4.224  16.028  0.00  0.00    +0.000 C 
BRANCH  12  21
ATOM     20  C   UNL     1       6.863   3.869  12.264  0.00  0.00    +0.000 C 
ATOM     21  C   UNL     1       5.975   3.907  13.496  0.00  0.00    +0.000 C 
ENDBRANCH  12  21
ENDBRANCH   1  17
TORSDOF 2
ENDMDL
MODEL 6
REMARK VINA RESULT:      -6.8      2.629      7.235
REMARK  Name = 
REMARK  3 active torsions:
REMARK  status: ('A' for Active; 'I' for Inactive)
REMARK    1  A    between atoms: C_1  and  C_2
REMARK    2  A    between atoms: C_2  and  C_3
REMARK    3  A    between atoms: C_8  and  C_9
REMARK                            x       y       z     vdW  Elec       q    Type
REMARK                         _______ _______ _______ _____ _____    ______ ____
ROOT
ATOM      1  C   UNL     1       3.525   5.431  18.450  0.00  0.00    +0.000 A 
ATOM      2  N   UNL     1       4.341   5.413  19.517  0.00  0.00    +0.000 NA
ATOM      3  C   UNL     1       5.641   5.149  19.287  0.00  0.00    +0.000 A 
ATOM      4  C   UNL     1       6.156   4.894  18.038  0.00  0.00    +0.000 A 
ATOM      5  C   UNL     1       5.241   4.943  17.001  0.00  0.00    +0.000 A 
ATOM      6  N   UNL     1       3.928   5.201  17.187  0.00  0.00    +0.000 NA
ATOM      7  C   UNL     1       5.687   4.650  15.595  0.00  0.00    +0.000 C 
ATOM      8  C   UNL     1       7.197   4.839  15.438  0.00  0.00    +0.000 C 
ATOM      9  N   UNL     1       7.923   4.115  16.485  0.00  0.00    +0.000 NA
ATOM     10  C   UNL     1       7.617   4.672  17.808  0.00  0.00    +0.000 C 
ATOM     11  H   UNL     1       8.927   4.187  16.320  0.00  0.00    +0.000 HD
ENDROOT
BRANCH   1  17
ATOM     12  C   UNL     1       0.973   9.184  20.851  0.00  0.00    +0.000 C 
ATOM     13  O   UNL     1       0.612  10.181  20.222  0.00  0.00    +0.000 OA
ATOM     14  N   UNL     1       1.630   8.124  20.240  0.00  0.00    +0.000 N 
ATOM     15  C   UNL     1       2.048   8.267  18.847  0.00  0.00    +0.000 C 
ATOM     16  C   UNL     1       1.631   7.055  18.022  0.00  0.00    +0.000 C 
ATOM     17  C   UNL     1       2.055   5.723  18.659  0.00  0.00    +0.000 C 
ATOM     18  C   UNL     1       1.664   5.668  20.142  0.00  0.00    +0.000 C 
ATOM     19  C   UNL     1       2.091   6.912  20.917  0.00  0.00    +0.000 C 
BRANCH  12  21
ATOM     20  C   UNL     1      -0.411   9.971  22.804  0.00  0.00    +0.000 C 
ATOM     21  C   UNL     1       0.718   9.065  22.343  0.00  0.00    +0.000 C 
ENDBRANCH  12  21
ENDBRANCH   1  17
TORSDOF 2
ENDMDL
MODEL 7
REMARK VINA RESULT:      -6.7      3.419      4.686
REMARK  Name = 
REMARK  3 active torsions:
REMARK  status: ('A' for Active; 'I' for Inactive)
REMARK    1  A    between atoms: C_1  and  C_2
REMARK    2  A    between atoms: C_2  and  C_3
REMARK    3  A    between atoms: C_8  and  C_9
REMARK                            x       y       z     vdW  Elec       q    Type
REMARK                         _______ _______ _______ _____ _____    ______ ____
ROOT
ATOM      1  C   UNL     1       4.565   3.984  17.375  0.00  0.00    +0.000 A 
ATOM      2  N   UNL     1       3.868   2.964  16.850  0.00  0.00    +0.000 NA
ATOM      3  C   UNL     1       2.722   2.624  17.472  0.00  0.00    +0.000 A 
ATOM      4  C   UNL     1       2.253   3.255  18.599  0.00  0.00    +0.000 A 
ATOM      5  C   UNL     1       3.035   4.299  19.061  0.00  0.00    +0.000 A 
ATOM      6  N   UNL     1       4.191   4.671  18.471  0.00  0.00    +0.000 NA
ATOM      7  C   UNL     1       2.634   5.040  20.306  0.00  0.00    +0.000 C 
ATOM      8  C   UNL     1       1.143   4.868  20.602  0.00  0.00    +0.000 C 
ATOM      9  N   UNL     1       0.766   3.452  20.572  0.00  0.00    +0.000 NA
ATOM     10  C   UNL     1       0.942   2.896  19.226  0.00  0.00    +0.000 C 
ATOM     11  H   UNL     1      -0.210   3.350  20.848  0.00  0.00    +0.000 HD
ENDROOT
BRANCH   1  17
ATOM     12  C   UNL     1       7.905   7.791  18.226  0.00  0.00    +0.000 C 
ATOM     13  O   UNL     1       8.877   7.603  18.959  0.00  0.00    +0.000 OA
ATOM     14  N   UNL     1       6.996   6.783  17.931  0.00  0.00    +0.000 N 
ATOM     15  C   UNL     1       7.104   5.511  18.641  0.00  0.00    +0.000 C 
ATOM     16  C   UNL     1       7.054   4.335  17.672  0.00  0.00    +0.000 C 
ATOM     17  C   UNL     1       5.859   4.404  16.711  0.00  0.00    +0.000 C 
ATOM     18  C   UNL     1       5.747   5.789  16.061  0.00  0.00    +0.000 C 
ATOM     19  C   UNL     1       5.819   6.929  17.074  0.00  0.00    +0.000 C 
BRANCH  12  21
ATOM     20  C   UNL     1       8.624  10.203  18.098  0.00  0.00    +0.000 C 
ATOM     21  C   UNL     1       7.647   9.151  17.601  0.00  0.00    +0.000 C 
ENDBRANCH  12  21
ENDBRANCH   1  17
TORSDOF 2
ENDMDL
MODEL 8
REMARK VINA RESULT:      -6.7      3.646      7.095
REMARK  Name = 
REMARK  3 active torsions:
REMARK  status: ('A' for Active; 'I' for Inactive)
REMARK    1  A    between atoms: C_1  and  C_2
REMARK    2  A    between atoms: C_2  and  C_3
REMARK    3  A    between atoms: C_8  and  C_9
REMARK                            x       y       z     vdW  Elec       q    Type
REMARK                         _______ _______ _______ _____ _____    ______ ____
ROOT
ATOM      1  C   UNL     1       5.896   5.530  16.319  0.00  0.00    +0.000 A 
ATOM      2  N   UNL     1       7.168   5.837  16.018  0.00  0.00    +0.000 NA
ATOM      3  C   UNL     1       7.650   5.370  14.850  0.00  0.00    +0.000 A 
ATOM      4  C   UNL     1       6.915   4.604  13.977  0.00  0.00    +0.000 A 
ATOM      5  C   UNL     1       5.612   4.347  14.369  0.00  0.00    +0.000 A 
ATOM      6  N   UNL     1       5.091   4.793  15.532  0.00  0.00    +0.000 NA
ATOM      7  C   UNL     1       4.727   3.493  13.505  0.00  0.00    +0.000 C 
ATOM      8  C   UNL     1       5.230   3.448  12.061  0.00  0.00    +0.000 C 
ATOM      9  N   UNL     1       6.655   3.109  12.018  0.00  0.00    +0.000 NA
ATOM     10  C   UNL     1       7.458   4.159  12.656  0.00  0.00    +0.000 C 
ATOM     11  H   UNL     1       6.955   3.006  11.049  0.00  0.00    +0.000 HD
ENDROOT
BRANCH   1  17
ATOM     12  C   UNL     1       2.760   3.460  19.817  0.00  0.00    +0.000 C 
ATOM     13  O   UNL     1       3.230   2.866  20.789  0.00  0.00    +0.000 OA
ATOM     14  N   UNL     1       3.565   4.072  18.865  0.00  0.00    +0.000 N 
ATOM     15  C   UNL     1       5.010   3.866  18.931  0.00  0.00    +0.000 C 
ATOM     16  C   UNL     1       5.758   5.189  18.823  0.00  0.00    +0.000 C 
ATOM     17  C   UNL     1       5.311   6.033  17.621  0.00  0.00    +0.000 C 
ATOM     18  C   UNL     1       3.781   6.143  17.557  0.00  0.00    +0.000 C 
ATOM     19  C   UNL     1       3.082   4.792  17.686  0.00  0.00    +0.000 C 
BRANCH  12  21
ATOM     20  C   UNL     1       0.706   2.335  18.884  0.00  0.00    +0.000 C 
ATOM     21  C   UNL     1       1.258   3.552  19.608  0.00  0.00    +0.000 C 
ENDBRANCH  12  21
ENDBRANCH   1  17
TORSDOF 2
ENDMDL
MODEL 9
REMARK VINA RESULT:      -6.6      4.042      5.192
REMARK  Name = 
REMARK  3 active torsions:
REMARK  status: ('A' for Active; 'I' for Inactive)
REMARK    1  A    between atoms: C_1  and  C_2
REMARK    2  A    between atoms: C_2  and  C_3
REMARK    3  A    between atoms: C_8  and  C_9
REMARK                            x       y       z     vdW  Elec       q    Type
REMARK                         _______ _______ _______ _____ _____    ______ ____
ROOT
ATOM      1  C   UNL     1       5.107   4.022  18.094  0.00  0.00    +0.000 A 
ATOM      2  N   UNL     1       5.409   3.464  19.277  0.00  0.00    +0.000 NA
ATOM      3  C   UNL     1       4.379   3.029  20.028  0.00  0.00    +0.000 A 
ATOM      4  C   UNL     1       3.063   3.138  19.649  0.00  0.00    +0.000 A 
ATOM      5  C   UNL     1       2.851   3.719  18.410  0.00  0.00    +0.000 A 
ATOM      6  N   UNL     1       3.853   4.171  17.627  0.00  0.00    +0.000 NA
ATOM      7  C   UNL     1       1.447   3.917  17.908  0.00  0.00    +0.000 C 
ATOM      8  C   UNL     1       0.464   2.983  18.615  0.00  0.00    +0.000 C 
ATOM      9  N   UNL     1       0.621   3.065  20.069  0.00  0.00    +0.000 NA
ATOM     10  C   UNL     1       1.946   2.583  20.476  0.00  0.00    +0.000 C 
ATOM     11  H   UNL     1      -0.092   2.498  20.525  0.00  0.00    +0.000 HD
ENDROOT
BRANCH   1  17
ATOM     12  C   UNL     1       8.047   8.231  18.176  0.00  0.00    +0.000 C 
ATOM     13  O   UNL     1       9.130   8.212  18.764  0.00  0.00    +0.000 OA
ATOM     14  N   UNL     1       7.234   7.108  18.090  0.00  0.00    +0.000 N 
ATOM     15  C   UNL     1       7.598   5.918  18.856  0.00  0.00    +0.000 C 
ATOM     16  C   UNL     1       7.552   4.669  17.984  0.00  0.00    +0.000 C 
ATOM     17  C   UNL     1       6.231   4.526  17.214  0.00  0.00    +0.000 C 
ATOM     18  C   UNL     1       5.859   5.833  16.500  0.00  0.00    +0.000 C 
ATOM     19  C   UNL     1       5.937   7.053  17.415  0.00  0.00    +0.000 C 
BRANCH  12  21
ATOM     20  C   UNL     1       8.379  10.711  17.875  0.00  0.00    +0.000 C 
ATOM     21  C   UNL     1       7.540   9.498  17.511  0.00  0.00    +0.000 C 
ENDBRANCH  12  21
ENDBRANCH   1  17
TORSDOF 2
ENDMDL
