MODEL 1
REMARK VINA RESULT:      -9.4      0.000      0.000
REMARK  Name = 
REMARK  4 active torsions:
REMARK  status: ('A' for Active; 'I' for Inactive)
REMARK    1  A    between atoms: N_3  and  C_4
REMARK    2  A    between atoms: C_6  and  O_7
REMARK    3  A    between atoms: O_7  and  C_8
REMARK    4  A    between atoms: C_13  and  C_14
REMARK                            x       y       z     vdW  Elec       q    Type
REMARK                         _______ _______ _______ _____ _____    ______ ____
ROOT
ATOM      1  C   UNL     1       2.043   7.065  19.347  0.00  0.00    +0.000 A 
ATOM      2  C   UNL     1       1.904   6.067  20.327  0.00  0.00    +0.000 A 
ATOM      3  C   UNL     1       2.661   4.882  20.335  0.00  0.00    +0.000 A 
ATOM      4  C   UNL     1       3.640   4.725  19.361  0.00  0.00    +0.000 A 
ATOM      5  C   UNL     1       3.826   5.684  18.348  0.00  0.00    +0.000 A 
ATOM      6  C   UNL     1       2.996   6.834  18.338  0.00  0.00    +0.000 A 
ENDROOT
BRANCH   1   9
ATOM      7  O   UNL     1       1.781   8.952  21.462  0.00  0.00    +0.000 OA
ATOM      8  C   UNL     1       1.179   9.146  20.400  0.00  0.00    +0.000 C 
ATOM      9  N   UNL     1       1.279   8.289  19.334  0.00  0.00    +0.000 N 
ATOM     10  N   UNL     1       0.341  10.241  20.351  0.00  0.00    +0.000 N 
ATOM     11  C   UNL     1      -0.004  10.799  21.693  0.00  0.00    +0.000 C 
ATOM     12  C   UNL     1      -0.614  12.145  21.417  0.00  0.00    +0.000 C 
ATOM     13  C   UNL     1      -1.359  11.731  20.195  0.00  0.00    +0.000 A 
ATOM     14  C   UNL     1      -2.646  12.065  19.842  0.00  0.00    +0.000 A 
ATOM     15  C   UNL     1      -3.049  11.721  18.565  0.00  0.00    +0.000 A 
ATOM     16  C   UNL     1      -2.107  11.175  17.672  0.00  0.00    +0.000 A 
ATOM     17 CL   UNL     1      -2.515  11.145  15.997  0.00  0.00    +0.000 Cl
ATOM     18  C   UNL     1      -0.863  10.684  18.107  0.00  0.00    +0.000 A 
ATOM     19  C   UNL     1      -0.575  10.833  19.447  0.00  0.00    +0.000 A 
ATOM     20  H   UNL     1       0.821   8.550  18.480  0.00  0.00    +0.000 HD
ENDBRANCH   1   9
BRANCH   5  21
ATOM     21  C   UNL     1       4.915   5.479  17.360  0.00  0.00    +0.000 A 
ATOM     22  C   UNL     1       4.895   4.437  16.423  0.00  0.00    +0.000 A 
ATOM     23  C   UNL     1       5.955   4.286  15.526  0.00  0.00    +0.000 A 
ATOM     24  C   UNL     1       7.007   5.173  15.583  0.00  0.00    +0.000 A 
ATOM     25  N   UNL     1       7.085   6.186  16.468  0.00  0.00    +0.000 NA
ATOM     26  C   UNL     1       6.037   6.314  17.325  0.00  0.00    +0.000 A 
ENDBRANCH   5  21
BRANCH   3  27
ATOM     27  O   UNL     1       2.383   4.042  21.362  0.00  0.00    +0.000 OA
BRANCH  27  28
ATOM     28  C   UNL     1       1.506   2.938  21.188  0.00  0.00    +0.000 C 
ATOM     29  F   UNL     1       1.064   2.410  22.348  0.00  0.00    +0.000 F 
ATOM     30  F   UNL     1       0.443   3.307  20.440  0.00  0.00    +0.000 F 
ATOM     31  F   UNL     1       2.168   1.963  20.522  0.00  0.00    +0.000 F 
ENDBRANCH  27  28
ENDBRANCH   3  27
TORSDOF 4
ENDMDL
MODEL 2
REMARK VINA RESULT:      -9.4      3.567      8.325
REMARK  Name = 
REMARK  4 active torsions:
REMARK  status: ('A' for Active; 'I' for Inactive)
REMARK    1  A    between atoms: N_3  and  C_4
REMARK    2  A    between atoms: C_6  and  O_7
REMARK    3  A    between atoms: O_7  and  C_8
REMARK    4  A    between atoms: C_13  and  C_14
REMARK                            x       y       z     vdW  Elec       q    Type
REMARK                         _______ _______ _______ _____ _____    ______ ____
ROOT
ATOM      1  C   UNL     1       1.491   8.913  18.917  0.00  0.00    +0.000 A 
ATOM      2  C   UNL     1       1.393   9.323  20.258  0.00  0.00    +0.000 A 
ATOM      3  C   UNL     1       0.329  10.097  20.753  0.00  0.00    +0.000 A 
ATOM      4  C   UNL     1      -0.708  10.414  19.884  0.00  0.00    +0.000 A 
ATOM      5  C   UNL     1      -0.668  10.040  18.528  0.00  0.00    +0.000 A 
ATOM      6  C   UNL     1       0.455   9.316  18.054  0.00  0.00    +0.000 A 
ENDROOT
BRANCH   1   9
ATOM      7  O   UNL     1       1.380   6.181  18.126  0.00  0.00    +0.000 OA
ATOM      8  C   UNL     1       2.454   6.788  18.056  0.00  0.00    +0.000 C 
ATOM      9  N   UNL     1       2.572   8.110  18.400  0.00  0.00    +0.000 N 
ATOM     10  N   UNL     1       3.559   6.054  17.673  0.00  0.00    +0.000 N 
ATOM     11  C   UNL     1       3.367   4.577  17.772  0.00  0.00    +0.000 C 
ATOM     12  C   UNL     1       4.513   3.977  17.006  0.00  0.00    +0.000 C 
ATOM     13  C   UNL     1       5.534   4.967  17.452  0.00  0.00    +0.000 A 
ATOM     14  C   UNL     1       6.829   4.719  17.845  0.00  0.00    +0.000 A 
ATOM     15  C   UNL     1       7.644   5.821  18.026  0.00  0.00    +0.000 A 
ATOM     16  C   UNL     1       7.158   7.098  17.687  0.00  0.00    +0.000 A 
ATOM     17 CL   UNL     1       8.304   8.376  17.527  0.00  0.00    +0.000 Cl
ATOM     18  C   UNL     1       5.790   7.340  17.462  0.00  0.00    +0.000 A 
ATOM     19  C   UNL     1       4.953   6.247  17.514  0.00  0.00    +0.000 A 
ATOM     20  H   UNL     1       3.458   8.555  18.247  0.00  0.00    +0.000 HD
ENDBRANCH   1   9
BRANCH   5  21
ATOM     21  C   UNL     1      -1.824  10.374  17.660  0.00  0.00    +0.000 A 
ATOM     22  C   UNL     1      -2.009   9.796  16.395  0.00  0.00    +0.000 A 
ATOM     23  C   UNL     1      -3.110  10.159  15.617  0.00  0.00    +0.000 A 
ATOM     24  C   UNL     1      -3.999  11.087  16.112  0.00  0.00    +0.000 A 
ATOM     25  N   UNL     1      -3.867  11.682  17.314  0.00  0.00    +0.000 NA
ATOM     26  C   UNL     1      -2.790  11.306  18.054  0.00  0.00    +0.000 A 
ENDBRANCH   5  21
BRANCH   3  27
ATOM     27  O   UNL     1       0.412  10.391  22.075  0.00  0.00    +0.000 OA
BRANCH  27  28
ATOM     28  C   UNL     1      -0.382   9.700  23.029  0.00  0.00    +0.000 C 
ATOM     29  F   UNL     1       0.302   9.317  24.127  0.00  0.00    +0.000 F 
ATOM     30  F   UNL     1      -1.424  10.473  23.408  0.00  0.00    +0.000 F 
ATOM     31  F   UNL     1      -0.880   8.584  22.449  0.00  0.00    +0.000 F 
ENDBRANCH  27  28
ENDBRANCH   3  27
TORSDOF 4
ENDMDL
MODEL 3
REMARK VINA RESULT:      -9.2      3.577      8.351
REMARK  Name = 
REMARK  4 active torsions:
REMARK  status: ('A' for Active; 'I' for Inactive)
REMARK    1  A    between atoms: N_3  and  C_4
REMARK    2  A    between atoms: C_6  and  O_7
REMARK    3  A    between atoms: O_7  and  C_8
REMARK    4  A    between atoms: C_13  and  C_14
REMARK                            x       y       z     vdW  Elec       q    Type
REMARK                         _______ _______ _______ _____ _____    ______ ____
ROOT
ATOM      1  C   UNL     1       1.493   8.896  18.919  0.00  0.00    +0.000 A 
ATOM      2  C   UNL     1       1.398   9.291  20.265  0.00  0.00    +0.000 A 
ATOM      3  C   UNL     1       0.338  10.064  20.770  0.00  0.00    +0.000 A 
ATOM      4  C   UNL     1      -0.699  10.396  19.907  0.00  0.00    +0.000 A 
ATOM      5  C   UNL     1      -0.663  10.037  18.546  0.00  0.00    +0.000 A 
ATOM      6  C   UNL     1       0.457   9.314  18.062  0.00  0.00    +0.000 A 
ENDROOT
BRANCH   1   9
ATOM      7  O   UNL     1       1.370   6.173  18.102  0.00  0.00    +0.000 OA
ATOM      8  C   UNL     1       2.446   6.777  18.035  0.00  0.00    +0.000 C 
ATOM      9  N   UNL     1       2.570   8.095  18.391  0.00  0.00    +0.000 N 
ATOM     10  N   UNL     1       3.547   6.043  17.642  0.00  0.00    +0.000 N 
ATOM     11  C   UNL     1       3.351   4.565  17.727  0.00  0.00    +0.000 C 
ATOM     12  C   UNL     1       4.493   3.969  16.952  0.00  0.00    +0.000 C 
ATOM     13  C   UNL     1       5.518   4.951  17.405  0.00  0.00    +0.000 A 
ATOM     14  C   UNL     1       6.814   4.696  17.791  0.00  0.00    +0.000 A 
ATOM     15  C   UNL     1       7.632   5.793  17.981  0.00  0.00    +0.000 A 
ATOM     16  C   UNL     1       7.150   7.075  17.655  0.00  0.00    +0.000 A 
ATOM     17 CL   UNL     1       8.300   8.350  17.504  0.00  0.00    +0.000 Cl
ATOM     18  C   UNL     1       5.783   7.324  17.436  0.00  0.00    +0.000 A 
ATOM     19  C   UNL     1       4.941   6.232  17.480  0.00  0.00    +0.000 A 
ATOM     20  H   UNL     1       3.457   8.539  18.240  0.00  0.00    +0.000 HD
ENDBRANCH   1   9
BRANCH   5  21
ATOM     21  C   UNL     1      -1.818  10.386  17.683  0.00  0.00    +0.000 A 
ATOM     22  C   UNL     1      -2.810  11.294  18.082  0.00  0.00    +0.000 A 
ATOM     23  C   UNL     1      -3.882  11.573  17.232  0.00  0.00    +0.000 A 
ATOM     24  C   UNL     1      -3.943  10.943  16.008  0.00  0.00    +0.000 A 
ATOM     25  N   UNL     1      -3.026  10.056  15.576  0.00  0.00    +0.000 NA
ATOM     26  C   UNL     1      -1.989   9.808  16.421  0.00  0.00    +0.000 A 
ENDBRANCH   5  21
BRANCH   3  27
ATOM     27  O   UNL     1       0.424  10.342  22.095  0.00  0.00    +0.000 OA
BRANCH  27  28
ATOM     28  C   UNL     1      -0.417   9.690  23.035  0.00  0.00    +0.000 C 
ATOM     29  F   UNL     1      -1.446  10.452  23.462  0.00  0.00    +0.000 F 
ATOM     30  F   UNL     1      -0.907   8.549  22.503  0.00  0.00    +0.000 F 
ATOM     31  F   UNL     1       0.323   9.361  24.120  0.00  0.00    +0.000 F 
ENDBRANCH  27  28
ENDBRANCH   3  27
TORSDOF 4
ENDMDL
MODEL 4
REMARK VINA RESULT:      -9.1      2.042      2.549
REMARK  Name = 
REMARK  4 active torsions:
REMARK  status: ('A' for Active; 'I' for Inactive)
REMARK    1  A    between atoms: N_3  and  C_4
REMARK    2  A    between atoms: C_6  and  O_7
REMARK    3  A    between atoms: O_7  and  C_8
REMARK    4  A    between atoms: C_13  and  C_14
REMARK                            x       y       z     vdW  Elec       q    Type
REMARK                         _______ _______ _______ _____ _____    ______ ____
ROOT
ATOM      1  C   UNL     1       2.377   6.983  19.248  0.00  0.00    +0.000 A 
ATOM      2  C   UNL     1       2.173   5.909  20.133  0.00  0.00    +0.000 A 
ATOM      3  C   UNL     1       2.803   4.660  19.988  0.00  0.00    +0.000 A 
ATOM      4  C   UNL     1       3.721   4.506  18.957  0.00  0.00    +0.000 A 
ATOM      5  C   UNL     1       3.966   5.540  18.033  0.00  0.00    +0.000 A 
ATOM      6  C   UNL     1       3.260   6.762  18.176  0.00  0.00    +0.000 A 
ENDROOT
BRANCH   1   9
ATOM      7  O   UNL     1       2.698   9.255  17.564  0.00  0.00    +0.000 OA
ATOM      8  C   UNL     1       1.960   9.334  18.552  0.00  0.00    +0.000 C 
ATOM      9  N   UNL     1       1.744   8.272  19.392  0.00  0.00    +0.000 N 
ATOM     10  N   UNL     1       1.406  10.570  18.817  0.00  0.00    +0.000 N 
ATOM     11  C   UNL     1       2.075  11.698  18.104  0.00  0.00    +0.000 C 
ATOM     12  C   UNL     1       1.138  12.866  18.243  0.00  0.00    +0.000 C 
ATOM     13  C   UNL     1       0.723  12.567  19.642  0.00  0.00    +0.000 A 
ATOM     14  C   UNL     1       0.563  13.456  20.680  0.00  0.00    +0.000 A 
ATOM     15  C   UNL     1      -0.020  12.965  21.833  0.00  0.00    +0.000 A 
ATOM     16  C   UNL     1      -0.523  11.650  21.844  0.00  0.00    +0.000 A 
ATOM     17 CL   UNL     1      -1.594  11.211  23.120  0.00  0.00    +0.000 Cl
ATOM     18  C   UNL     1      -0.190  10.717  20.845  0.00  0.00    +0.000 A 
ATOM     19  C   UNL     1       0.594  11.175  19.807  0.00  0.00    +0.000 A 
ATOM     20  H   UNL     1       1.076   8.389  20.131  0.00  0.00    +0.000 HD
ENDBRANCH   1   9
BRANCH   5  21
ATOM     21  C   UNL     1       4.987   5.329  16.977  0.00  0.00    +0.000 A 
ATOM     22  C   UNL     1       4.873   4.322  16.009  0.00  0.00    +0.000 A 
ATOM     23  C   UNL     1       5.873   4.163  15.047  0.00  0.00    +0.000 A 
ATOM     24  C   UNL     1       6.961   5.007  15.071  0.00  0.00    +0.000 A 
ATOM     25  N   UNL     1       7.129   5.985  15.983  0.00  0.00    +0.000 NA
ATOM     26  C   UNL     1       6.137   6.122  16.904  0.00  0.00    +0.000 A 
ENDBRANCH   5  21
BRANCH   3  27
ATOM     27  O   UNL     1       2.480   3.752  20.942  0.00  0.00    +0.000 OA
BRANCH  27  28
ATOM     28  C   UNL     1       1.366   2.887  20.781  0.00  0.00    +0.000 C 
ATOM     29  F   UNL     1       1.619   1.817  19.998  0.00  0.00    +0.000 F 
ATOM     30  F   UNL     1       0.938   2.455  21.988  0.00  0.00    +0.000 F 
ATOM     31  F   UNL     1       0.358   3.583  20.205  0.00  0.00    +0.000 F 
ENDBRANCH  27  28
ENDBRANCH   3  27
TORSDOF 4
ENDMDL
MODEL 5
REMARK VINA RESULT:      -9.1      0.508      1.119
REMARK  Name = 
REMARK  4 active torsions:
REMARK  status: ('A' for Active; 'I' for Inactive)
REMARK    1  A    between atoms: N_3  and  C_4
REMARK    2  A    between atoms: C_6  and  O_7
REMARK    3  A    between atoms: O_7  and  C_8
REMARK    4  A    between atoms: C_13  and  C_14
REMARK                            x       y       z     vdW  Elec       q    Type
REMARK                         _______ _______ _______ _____ _____    ______ ____
ROOT
ATOM      1  C   UNL     1       2.031   7.110  19.439  0.00  0.00    +0.000 A 
ATOM      2  C   UNL     1       1.846   6.103  20.402  0.00  0.00    +0.000 A 
ATOM      3  C   UNL     1       2.601   4.918  20.435  0.00  0.00    +0.000 A 
ATOM      4  C   UNL     1       3.624   4.768  19.506  0.00  0.00    +0.000 A 
ATOM      5  C   UNL     1       3.858   5.736  18.511  0.00  0.00    +0.000 A 
ATOM      6  C   UNL     1       3.030   6.887  18.474  0.00  0.00    +0.000 A 
ENDROOT
BRANCH   1   9
ATOM      7  O   UNL     1       1.775   9.040  21.515  0.00  0.00    +0.000 OA
ATOM      8  C   UNL     1       1.173   9.214  20.450  0.00  0.00    +0.000 C 
ATOM      9  N   UNL     1       1.271   8.335  19.401  0.00  0.00    +0.000 N 
ATOM     10  N   UNL     1       0.337  10.310  20.380  0.00  0.00    +0.000 N 
ATOM     11  C   UNL     1      -0.006  10.895  21.710  0.00  0.00    +0.000 C 
ATOM     12  C   UNL     1      -0.613  12.237  21.408  0.00  0.00    +0.000 C 
ATOM     13  C   UNL     1      -1.360  11.800  20.194  0.00  0.00    +0.000 A 
ATOM     14  C   UNL     1      -2.646  12.129  19.836  0.00  0.00    +0.000 A 
ATOM     15  C   UNL     1      -3.050  11.760  18.566  0.00  0.00    +0.000 A 
ATOM     16  C   UNL     1      -2.111  11.195  17.683  0.00  0.00    +0.000 A 
ATOM     17 CL   UNL     1      -2.520  11.131  16.010  0.00  0.00    +0.000 Cl
ATOM     18  C   UNL     1      -0.868  10.709  18.128  0.00  0.00    +0.000 A 
ATOM     19  C   UNL     1      -0.578  10.885  19.465  0.00  0.00    +0.000 A 
ATOM     20  H   UNL     1       0.813   8.580  18.543  0.00  0.00    +0.000 HD
ENDBRANCH   1   9
BRANCH   5  21
ATOM     21  C   UNL     1       4.990   5.538  17.573  0.00  0.00    +0.000 A 
ATOM     22  C   UNL     1       6.144   6.335  17.606  0.00  0.00    +0.000 A 
ATOM     23  C   UNL     1       7.172   6.110  16.688  0.00  0.00    +0.000 A 
ATOM     24  C   UNL     1       7.029   5.101  15.761  0.00  0.00    +0.000 A 
ATOM     25  N   UNL     1       5.941   4.312  15.676  0.00  0.00    +0.000 NA
ATOM     26  C   UNL     1       4.957   4.548  16.586  0.00  0.00    +0.000 A 
ENDBRANCH   5  21
BRANCH   3  27
ATOM     27  O   UNL     1       2.275   4.069  21.441  0.00  0.00    +0.000 OA
BRANCH  27  28
ATOM     28  C   UNL     1       1.501   2.904  21.193  0.00  0.00    +0.000 C 
ATOM     29  F   UNL     1       2.173   1.937  20.536  0.00  0.00    +0.000 F 
ATOM     30  F   UNL     1       1.037   2.401  22.359  0.00  0.00    +0.000 F 
ATOM     31  F   UNL     1       0.435   3.248  20.433  0.00  0.00    +0.000 F 
ENDBRANCH  27  28
ENDBRANCH   3  27
TORSDOF 4
ENDMDL
MODEL 6
REMARK VINA RESULT:      -8.9      1.751      1.869
REMARK  Name = 
REMARK  4 active torsions:
REMARK  status: ('A' for Active; 'I' for Inactive)
REMARK    1  A    between atoms: N_3  and  C_4
REMARK    2  A    between atoms: C_6  and  O_7
REMARK    3  A    between atoms: O_7  and  C_8
REMARK    4  A    between atoms: C_13  and  C_14
REMARK                            x       y       z     vdW  Elec       q    Type
REMARK                         _______ _______ _______ _____ _____    ______ ____
ROOT
ATOM      1  C   UNL     1       2.443   6.848  19.208  0.00  0.00    +0.000 A 
ATOM      2  C   UNL     1       1.948   5.672  19.800  0.00  0.00    +0.000 A 
ATOM      3  C   UNL     1       2.364   4.384  19.421  0.00  0.00    +0.000 A 
ATOM      4  C   UNL     1       3.360   4.275  18.459  0.00  0.00    +0.000 A 
ATOM      5  C   UNL     1       3.893   5.412  17.823  0.00  0.00    +0.000 A 
ATOM      6  C   UNL     1       3.399   6.690  18.189  0.00  0.00    +0.000 A 
ENDROOT
BRANCH   1   9
ATOM      7  O   UNL     1       0.812   7.565  21.428  0.00  0.00    +0.000 OA
ATOM      8  C   UNL     1       1.225   8.449  20.670  0.00  0.00    +0.000 C 
ATOM      9  N   UNL     1       2.032   8.176  19.596  0.00  0.00    +0.000 N 
ATOM     10  N   UNL     1       0.783   9.734  20.914  0.00  0.00    +0.000 N 
ATOM     11  C   UNL     1      -0.412   9.803  21.807  0.00  0.00    +0.000 C 
ATOM     12  C   UNL     1      -0.516  11.245  22.218  0.00  0.00    +0.000 C 
ATOM     13  C   UNL     1      -0.119  11.812  20.899  0.00  0.00    +0.000 A 
ATOM     14  C   UNL     1      -0.680  12.882  20.241  0.00  0.00    +0.000 A 
ATOM     15  C   UNL     1      -0.011  13.343  19.122  0.00  0.00    +0.000 A 
ATOM     16  C   UNL     1       1.241  12.790  18.795  0.00  0.00    +0.000 A 
ATOM     17 CL   UNL     1       2.226  13.647  17.668  0.00  0.00    +0.000 Cl
ATOM     18  C   UNL     1       1.701  11.591  19.370  0.00  0.00    +0.000 A 
ATOM     19  C   UNL     1       0.897  11.020  20.333  0.00  0.00    +0.000 A 
ATOM     20  H   UNL     1       2.388   8.952  19.069  0.00  0.00    +0.000 HD
ENDBRANCH   1   9
BRANCH   5  21
ATOM     21  C   UNL     1       4.984   5.233  16.833  0.00  0.00    +0.000 A 
ATOM     22  C   UNL     1       4.980   4.199  15.886  0.00  0.00    +0.000 A 
ATOM     23  C   UNL     1       6.042   4.073  14.987  0.00  0.00    +0.000 A 
ATOM     24  C   UNL     1       7.080   4.976  15.052  0.00  0.00    +0.000 A 
ATOM     25  N   UNL     1       7.142   5.982  15.946  0.00  0.00    +0.000 NA
ATOM     26  C   UNL     1       6.093   6.086  16.805  0.00  0.00    +0.000 A 
ENDBRANCH   5  21
BRANCH   3  27
ATOM     27  O   UNL     1       1.773   3.375  20.108  0.00  0.00    +0.000 OA
BRANCH  27  28
ATOM     28  C   UNL     1       2.244   2.990  21.391  0.00  0.00    +0.000 C 
ATOM     29  F   UNL     1       2.445   4.029  22.229  0.00  0.00    +0.000 F 
ATOM     30  F   UNL     1       1.375   2.128  21.963  0.00  0.00    +0.000 F 
ATOM     31  F   UNL     1       3.428   2.352  21.242  0.00  0.00    +0.000 F 
ENDBRANCH  27  28
ENDBRANCH   3  27
TORSDOF 4
ENDMDL
MODEL 7
REMARK VINA RESULT:      -8.9      1.797      2.061
REMARK  Name = 
REMARK  4 active torsions:
REMARK  status: ('A' for Active; 'I' for Inactive)
REMARK    1  A    between atoms: N_3  and  C_4
REMARK    2  A    between atoms: C_6  and  O_7
REMARK    3  A    between atoms: O_7  and  C_8
REMARK    4  A    between atoms: C_13  and  C_14
REMARK                            x       y       z     vdW  Elec       q    Type
REMARK                         _______ _______ _______ _____ _____    ______ ____
ROOT
ATOM      1  C   UNL     1       2.192   7.523  19.641  0.00  0.00    +0.000 A 
ATOM      2  C   UNL     1       1.925   6.463  20.526  0.00  0.00    +0.000 A 
ATOM      3  C   UNL     1       2.351   5.143  20.300  0.00  0.00    +0.000 A 
ATOM      4  C   UNL     1       3.131   4.890  19.178  0.00  0.00    +0.000 A 
ATOM      5  C   UNL     1       3.430   5.904  18.250  0.00  0.00    +0.000 A 
ATOM      6  C   UNL     1       2.925   7.209  18.482  0.00  0.00    +0.000 A 
ENDROOT
BRANCH   1   9
ATOM      7  O   UNL     1       0.134   8.416  21.392  0.00  0.00    +0.000 OA
ATOM      8  C   UNL     1       0.753   9.243  20.713  0.00  0.00    +0.000 C 
ATOM      9  N   UNL     1       1.770   8.883  19.867  0.00  0.00    +0.000 N 
ATOM     10  N   UNL     1       0.330  10.555  20.794  0.00  0.00    +0.000 N 
ATOM     11  C   UNL     1      -1.033  10.716  21.383  0.00  0.00    +0.000 C 
ATOM     12  C   UNL     1      -1.158  12.181  21.697  0.00  0.00    +0.000 C 
ATOM     13  C   UNL     1      -0.441  12.663  20.483  0.00  0.00    +0.000 A 
ATOM     14  C   UNL     1      -0.783  13.718  19.669  0.00  0.00    +0.000 A 
ATOM     15  C   UNL     1       0.147  14.093  18.717  0.00  0.00    +0.000 A 
ATOM     16  C   UNL     1       1.412  13.477  18.711  0.00  0.00    +0.000 A 
ATOM     17 CL   UNL     1       2.670  14.235  17.808  0.00  0.00    +0.000 Cl
ATOM     18  C   UNL     1       1.668  12.293  19.427  0.00  0.00    +0.000 A 
ATOM     19  C   UNL     1       0.638  11.804  20.201  0.00  0.00    +0.000 A 
ATOM     20  H   UNL     1       2.275   9.617  19.404  0.00  0.00    +0.000 HD
ENDBRANCH   1   9
BRANCH   5  21
ATOM     21  C   UNL     1       4.301   5.581  17.093  0.00  0.00    +0.000 A 
ATOM     22  C   UNL     1       4.587   4.263  16.709  0.00  0.00    +0.000 A 
ATOM     23  C   UNL     1       5.424   4.021  15.619  0.00  0.00    +0.000 A 
ATOM     24  C   UNL     1       5.958   5.092  14.937  0.00  0.00    +0.000 A 
ATOM     25  N   UNL     1       5.727   6.378  15.266  0.00  0.00    +0.000 NA
ATOM     26  C   UNL     1       4.902   6.586  16.327  0.00  0.00    +0.000 A 
ENDBRANCH   5  21
BRANCH   3  27
ATOM     27  O   UNL     1       1.996   4.262  21.269  0.00  0.00    +0.000 OA
BRANCH  27  28
ATOM     28  C   UNL     1       1.377   3.026  20.943  0.00  0.00    +0.000 C 
ATOM     29  F   UNL     1       0.372   3.143  20.050  0.00  0.00    +0.000 F 
ATOM     30  F   UNL     1       2.296   2.163  20.457  0.00  0.00    +0.000 F 
ATOM     31  F   UNL     1       0.857   2.492  22.072  0.00  0.00    +0.000 F 
ENDBRANCH  27  28
ENDBRANCH   3  27
TORSDOF 4
ENDMDL
MODEL 8
REMARK VINA RESULT:      -8.7      0.968      1.046
REMARK  Name = 
REMARK  4 active torsions:
REMARK  status: ('A' for Active; 'I' for Inactive)
REMARK    1  A    between atoms: N_3  and  C_4
REMARK    2  A    between atoms: C_6  and  O_7
REMARK    3  A    between atoms: O_7  and  C_8
REMARK    4  A    between atoms: C_13  and  C_14
REMARK                            x       y       z     vdW  Elec       q    Type
REMARK                         _______ _______ _______ _____ _____    ______ ____
ROOT
ATOM      1  C   UNL     1       2.061   6.508  18.603  0.00  0.00    +0.000 A 
ATOM      2  C   UNL     1       1.718   5.353  19.329  0.00  0.00    +0.000 A 
ATOM      3  C   UNL     1       2.382   4.123  19.179  0.00  0.00    +0.000 A 
ATOM      4  C   UNL     1       3.471   4.067  18.318  0.00  0.00    +0.000 A 
ATOM      5  C   UNL     1       3.861   5.186  17.557  0.00  0.00    +0.000 A 
ATOM      6  C   UNL     1       3.124   6.390  17.690  0.00  0.00    +0.000 A 
ENDROOT
BRANCH   1   9
ATOM      7  O   UNL     1       2.151   8.237  20.862  0.00  0.00    +0.000 OA
ATOM      8  C   UNL     1       1.465   8.554  19.884  0.00  0.00    +0.000 C 
ATOM      9  N   UNL     1       1.394   7.778  18.756  0.00  0.00    +0.000 N 
ATOM     10  N   UNL     1       0.711   9.705  20.000  0.00  0.00    +0.000 N 
ATOM     11  C   UNL     1       0.543  10.178  21.406  0.00  0.00    +0.000 C 
ATOM     12  C   UNL     1       0.013  11.580  21.291  0.00  0.00    +0.000 C 
ATOM     13  C   UNL     1      -0.878  11.315  20.126  0.00  0.00    +0.000 A 
ATOM     14  C   UNL     1      -2.165  11.762  19.933  0.00  0.00    +0.000 A 
ATOM     15  C   UNL     1      -2.715  11.547  18.684  0.00  0.00    +0.000 A 
ATOM     16  C   UNL     1      -1.910  11.010  17.661  0.00  0.00    +0.000 A 
ATOM     17 CL   UNL     1      -2.481  11.138  16.040  0.00  0.00    +0.000 Cl
ATOM     18  C   UNL     1      -0.670  10.402  17.930  0.00  0.00    +0.000 A 
ATOM     19  C   UNL     1      -0.241  10.426  19.240  0.00  0.00    +0.000 A 
ATOM     20  H   UNL     1       0.876   8.136  17.974  0.00  0.00    +0.000 HD
ENDBRANCH   1   9
BRANCH   5  21
ATOM     21  C   UNL     1       5.057   5.076  16.685  0.00  0.00    +0.000 A 
ATOM     22  C   UNL     1       5.171   4.104  15.681  0.00  0.00    +0.000 A 
ATOM     23  C   UNL     1       6.327   4.041  14.900  0.00  0.00    +0.000 A 
ATOM     24  C   UNL     1       7.341   4.943  15.136  0.00  0.00    +0.000 A 
ATOM     25  N   UNL     1       7.291   5.891  16.093  0.00  0.00    +0.000 NA
ATOM     26  C   UNL     1       6.151   5.934  16.834  0.00  0.00    +0.000 A 
ENDBRANCH   5  21
BRANCH   3  27
ATOM     27  O   UNL     1       1.907   3.126  19.967  0.00  0.00    +0.000 OA
BRANCH  27  28
ATOM     28  C   UNL     1       2.370   2.965  21.300  0.00  0.00    +0.000 C 
ATOM     29  F   UNL     1       2.487   4.126  21.977  0.00  0.00    +0.000 F 
ATOM     30  F   UNL     1       1.540   2.143  21.980  0.00  0.00    +0.000 F 
ATOM     31  F   UNL     1       3.593   2.388  21.266  0.00  0.00    +0.000 F 
ENDBRANCH  27  28
ENDBRANCH   3  27
TORSDOF 4
ENDMDL
MODEL 9
REMARK VINA RESULT:      -8.7      3.196      4.523
REMARK  Name = 
REMARK  4 active torsions:
REMARK  status: ('A' for Active; 'I' for Inactive)
REMARK    1  A    between atoms: N_3  and  C_4
REMARK    2  A    between atoms: C_6  and  O_7
REMARK    3  A    between atoms: O_7  and  C_8
REMARK    4  A    between atoms: C_13  and  C_14
REMARK                            x       y       z     vdW  Elec       q    Type
REMARK                         _______ _______ _______ _____ _____    ______ ____
ROOT
ATOM      1  C   UNL     1       2.188   7.873  18.203  0.00  0.00    +0.000 A 
ATOM      2  C   UNL     1       3.387   7.969  17.473  0.00  0.00    +0.000 A 
ATOM      3  C   UNL     1       4.430   7.032  17.575  0.00  0.00    +0.000 A 
ATOM      4  C   UNL     1       4.235   5.922  18.389  0.00  0.00    +0.000 A 
ATOM      5  C   UNL     1       3.062   5.769  19.151  0.00  0.00    +0.000 A 
ATOM      6  C   UNL     1       2.061   6.771  19.069  0.00  0.00    +0.000 A 
ENDROOT
BRANCH   1   9
ATOM      7  O   UNL     1       1.507   9.914  20.065  0.00  0.00    +0.000 OA
ATOM      8  C   UNL     1       0.822   9.771  19.047  0.00  0.00    +0.000 C 
ATOM      9  N   UNL     1       1.107   8.822  18.099  0.00  0.00    +0.000 N 
ATOM     10  N   UNL     1      -0.296  10.572  18.932  0.00  0.00    +0.000 N 
ATOM     11  C   UNL     1      -0.717  11.211  20.214  0.00  0.00    +0.000 C 
ATOM     12  C   UNL     1      -1.699  12.279  19.821  0.00  0.00    +0.000 C 
ATOM     13  C   UNL     1      -2.357  11.494  18.738  0.00  0.00    +0.000 A 
ATOM     14  C   UNL     1      -3.702  11.403  18.465  0.00  0.00    +0.000 A 
ATOM     15  C   UNL     1      -4.054  10.770  17.288  0.00  0.00    +0.000 A 
ATOM     16  C   UNL     1      -3.044  10.375  16.391  0.00  0.00    +0.000 A 
ATOM     17 CL   UNL     1      -3.511   9.978  14.780  0.00  0.00    +0.000 Cl
ATOM     18  C   UNL     1      -1.690  10.318  16.771  0.00  0.00    +0.000 A 
ATOM     19  C   UNL     1      -1.388  10.744  18.047  0.00  0.00    +0.000 A 
ATOM     20  H   UNL     1       0.551   8.813  17.264  0.00  0.00    +0.000 HD
ENDBRANCH   1   9
BRANCH   5  21
ATOM     21  C   UNL     1       2.895   4.543  19.971  0.00  0.00    +0.000 A 
ATOM     22  C   UNL     1       1.858   4.395  20.903  0.00  0.00    +0.000 A 
ATOM     23  C   UNL     1       1.760   3.223  21.655  0.00  0.00    +0.000 A 
ATOM     24  C   UNL     1       2.694   2.228  21.465  0.00  0.00    +0.000 A 
ATOM     25  N   UNL     1       3.716   2.320  20.592  0.00  0.00    +0.000 NA
ATOM     26  C   UNL     1       3.785   3.469  19.867  0.00  0.00    +0.000 A 
ENDBRANCH   5  21
BRANCH   3  27
ATOM     27  O   UNL     1       5.504   7.296  16.791  0.00  0.00    +0.000 OA
BRANCH  27  28
ATOM     28  C   UNL     1       6.817   6.951  17.209  0.00  0.00    +0.000 C 
ATOM     29  F   UNL     1       6.882   6.509  18.482  0.00  0.00    +0.000 F 
ATOM     30  F   UNL     1       7.329   6.006  16.390  0.00  0.00    +0.000 F 
ATOM     31  F   UNL     1       7.601   8.051  17.119  0.00  0.00    +0.000 F 
ENDBRANCH  27  28
ENDBRANCH   3  27
TORSDOF 4
ENDMDL
