MODEL 1
REMARK VINA RESULT:      -6.5      0.000      0.000
REMARK  Name = 
REMARK  10 active torsions:
REMARK  status: ('A' for Active; 'I' for Inactive)
REMARK    1  A    between atoms: C_1  and  C_2
REMARK    2  A    between atoms: C_2  and  C_3
REMARK    3  A    between atoms: C_2  and  C_4
REMARK    4  A    between atoms: N_6  and  C_7
REMARK    5  A    between atoms: C_9  and  C_10
REMARK    6  A    between atoms: C_10  and  O_11
REMARK    7  A    between atoms: O_11  and  S_12
REMARK    8  A    between atoms: S_12  and  N_13
REMARK    9  A    between atoms: C_16  and  O_17
REMARK   10  A    between atoms: C_18  and  O_19
REMARK                            x       y       z     vdW  Elec       q    Type
REMARK                         _______ _______ _______ _____ _____    ______ ____
ROOT
ATOM      1  C   UNL     1       3.940   2.850  17.507  0.00  0.00    +0.000 C 
ATOM      2  O   UNL     1       2.697   3.490  17.107  0.00  0.00    +0.000 OA
ATOM      3  C   UNL     1       1.784   3.495  18.229  0.00  0.00    +0.000 C 
ATOM      4  C   UNL     1       2.367   2.517  19.245  0.00  0.00    +0.000 C 
ATOM      5  C   UNL     1       3.869   2.613  19.017  0.00  0.00    +0.000 C 
ENDROOT
BRANCH   1   8
ATOM      6  C   UNL     1       6.693   5.036  17.275  0.00  0.00    +0.000 A 
ATOM      7  N   UNL     1       5.757   4.406  18.007  0.00  0.00    +0.000 NA
ATOM      8  N   UNL     1       5.069   3.671  17.100  0.00  0.00    +0.000 N 
ATOM      9  C   UNL     1       5.549   3.803  15.827  0.00  0.00    +0.000 A 
ATOM     10  N   UNL     1       5.097   3.177  14.719  0.00  0.00    +0.000 NA
ATOM     11  C   UNL     1       5.781   3.559  13.631  0.00  0.00    +0.000 A 
ATOM     12  N   UNL     1       6.771   4.467  13.547  0.00  0.00    +0.000 NA
ATOM     13  C   UNL     1       7.178   5.092  14.673  0.00  0.00    +0.000 A 
ATOM     14  N   UNL     1       8.149   6.060  14.513  0.00  0.00    +0.000 N 
ATOM     15  C   UNL     1       6.576   4.732  15.889  0.00  0.00    +0.000 A 
ATOM     16  H   UNL     1       8.619   5.999  13.619  0.00  0.00    +0.000 HD
ATOM     17  H   UNL     1       8.685   6.367  15.307  0.00  0.00    +0.000 HD
BRANCH   6  19
ATOM     18  C   UNL     1       7.462   7.398  17.595  0.00  0.00    +0.000 C 
ATOM     19  C   UNL     1       7.698   5.931  17.950  0.00  0.00    +0.000 C 
ATOM     20  C   UNL     1       7.746   5.720  19.469  0.00  0.00    +0.000 C 
ENDBRANCH   6  19
ENDBRANCH   1   8
BRANCH   4  21
ATOM     21  O   UNL     1       1.960   1.163  18.962  0.00  0.00    +0.000 OA
ATOM     22  H   UNL     1       2.649   0.729  18.425  0.00  0.00    +0.000 HD
ENDBRANCH   4  21
BRANCH   5  23
ATOM     23  O   UNL     1       4.527   1.412  19.427  0.00  0.00    +0.000 OA
ATOM     24  H   UNL     1       4.056   1.101  20.230  0.00  0.00    +0.000 HD
ENDBRANCH   5  23
BRANCH   3  25
ATOM     25  C   UNL     1       1.621   4.916  18.783  0.00  0.00    +0.000 C 
BRANCH  25  26
ATOM     26  O   UNL     1       2.079   5.855  17.813  0.00  0.00    +0.000 OA
BRANCH  26  27
ATOM     27  S   UNL     1       3.079   7.020  18.334  0.00  0.00    +0.000 S 
ATOM     28  O   UNL     1       4.027   7.292  17.280  0.00  0.00    +0.000 OA
ATOM     29  O   UNL     1       2.293   8.057  18.961  0.00  0.00    +0.000 OA
BRANCH  27  30
ATOM     30  N   UNL     1       3.925   6.249  19.553  0.00  0.00    +0.000 NA
ATOM     31  H   UNL     1       4.805   6.719  19.748  0.00  0.00    +0.000 HD
ATOM     32  H   UNL     1       4.002   5.252  19.368  0.00  0.00    +0.000 HD
ENDBRANCH  27  30
ENDBRANCH  26  27
ENDBRANCH  25  26
ENDBRANCH   3  25
TORSDOF 8
ENDMDL
MODEL 2
REMARK VINA RESULT:      -6.5      3.349      5.667
REMARK  Name = 
REMARK  10 active torsions:
REMARK  status: ('A' for Active; 'I' for Inactive)
REMARK    1  A    between atoms: C_1  and  C_2
REMARK    2  A    between atoms: C_2  and  C_3
REMARK    3  A    between atoms: C_2  and  C_4
REMARK    4  A    between atoms: N_6  and  C_7
REMARK    5  A    between atoms: C_9  and  C_10
REMARK    6  A    between atoms: C_10  and  O_11
REMARK    7  A    between atoms: O_11  and  S_12
REMARK    8  A    between atoms: S_12  and  N_13
REMARK    9  A    between atoms: C_16  and  O_17
REMARK   10  A    between atoms: C_18  and  O_19
REMARK                            x       y       z     vdW  Elec       q    Type
REMARK                         _______ _______ _______ _____ _____    ______ ____
ROOT
ATOM      1  C   UNL     1       2.513   4.296  19.636  0.00  0.00    +0.000 C 
ATOM      2  O   UNL     1       3.920   4.098  19.947  0.00  0.00    +0.000 OA
ATOM      3  C   UNL     1       4.541   3.349  18.878  0.00  0.00    +0.000 C 
ATOM      4  C   UNL     1       3.394   2.774  18.051  0.00  0.00    +0.000 C 
ATOM      5  C   UNL     1       2.288   3.808  18.205  0.00  0.00    +0.000 C 
ENDROOT
BRANCH   1   8
ATOM      6  C   UNL     1       1.330   7.409  20.786  0.00  0.00    +0.000 A 
ATOM      7  N   UNL     1       1.504   6.086  20.959  0.00  0.00    +0.000 NA
ATOM      8  N   UNL     1       2.156   5.692  19.838  0.00  0.00    +0.000 N 
ATOM      9  C   UNL     1       2.413   6.720  18.976  0.00  0.00    +0.000 A 
ATOM     10  N   UNL     1       3.071   6.647  17.799  0.00  0.00    +0.000 NA
ATOM     11  C   UNL     1       3.121   7.843  17.195  0.00  0.00    +0.000 A 
ATOM     12  N   UNL     1       2.581   9.006  17.607  0.00  0.00    +0.000 NA
ATOM     13  C   UNL     1       1.908   9.033  18.777  0.00  0.00    +0.000 A 
ATOM     14  N   UNL     1       1.321  10.236  19.113  0.00  0.00    +0.000 N 
ATOM     15  C   UNL     1       1.839   7.851  19.533  0.00  0.00    +0.000 A 
ATOM     16  H   UNL     1       1.685  11.013  18.575  0.00  0.00    +0.000 HD
ATOM     17  H   UNL     1       1.045  10.410  20.064  0.00  0.00    +0.000 HD
BRANCH   6  19
ATOM     18  C   UNL     1       1.603   9.311  22.393  0.00  0.00    +0.000 C 
ATOM     19  C   UNL     1       0.666   8.226  21.863  0.00  0.00    +0.000 C 
ATOM     20  C   UNL     1      -0.677   8.812  21.413  0.00  0.00    +0.000 C 
ENDBRANCH   6  19
ENDBRANCH   1   8
BRANCH   4  21
ATOM     21  O   UNL     1       2.922   1.530  18.605  0.00  0.00    +0.000 OA
ATOM     22  H   UNL     1       1.958   1.589  18.743  0.00  0.00    +0.000 HD
ENDBRANCH   4  21
BRANCH   5  23
ATOM     23  O   UNL     1       1.002   3.212  18.011  0.00  0.00    +0.000 OA
ATOM     24  H   UNL     1       0.678   3.534  17.143  0.00  0.00    +0.000 HD
ENDBRANCH   5  23
BRANCH   3  25
ATOM     25  C   UNL     1       5.480   4.249  18.066  0.00  0.00    +0.000 C 
BRANCH  25  26
ATOM     26  O   UNL     1       6.003   5.270  18.912  0.00  0.00    +0.000 OA
BRANCH  26  27
ATOM     27  S   UNL     1       7.602   5.530  18.849  0.00  0.00    +0.000 S 
ATOM     28  O   UNL     1       8.207   4.395  18.194  0.00  0.00    +0.000 OA
ATOM     29  O   UNL     1       7.832   6.890  18.423  0.00  0.00    +0.000 OA
BRANCH  27  30
ATOM     30  N   UNL     1       8.043   5.446  20.460  0.00  0.00    +0.000 NA
ATOM     31  H   UNL     1       7.877   4.518  20.841  0.00  0.00    +0.000 HD
ATOM     32  H   UNL     1       7.630   6.209  20.991  0.00  0.00    +0.000 HD
ENDBRANCH  27  30
ENDBRANCH  26  27
ENDBRANCH  25  26
ENDBRANCH   3  25
TORSDOF 8
ENDMDL
MODEL 3
REMARK VINA RESULT:      -6.3      2.889      5.537
REMARK  Name = 
REMARK  10 active torsions:
REMARK  status: ('A' for Active; 'I' for Inactive)
REMARK    1  A    between atoms: C_1  and  C_2
REMARK    2  A    between atoms: C_2  and  C_3
REMARK    3  A    between atoms: C_2  and  C_4
REMARK    4  A    between atoms: N_6  and  C_7
REMARK    5  A    between atoms: C_9  and  C_10
REMARK    6  A    between atoms: C_10  and  O_11
REMARK    7  A    between atoms: O_11  and  S_12
REMARK    8  A    between atoms: S_12  and  N_13
REMARK    9  A    between atoms: C_16  and  O_17
REMARK   10  A    between atoms: C_18  and  O_19
REMARK                            x       y       z     vdW  Elec       q    Type
REMARK                         _______ _______ _______ _____ _____    ______ ____
ROOT
ATOM      1  C   UNL     1       4.856   4.743  15.839  0.00  0.00    +0.000 C 
ATOM      2  O   UNL     1       5.770   3.668  16.195  0.00  0.00    +0.000 OA
ATOM      3  C   UNL     1       7.130   4.119  16.002  0.00  0.00    +0.000 C 
ATOM      4  C   UNL     1       7.032   5.397  15.173  0.00  0.00    +0.000 C 
ATOM      5  C   UNL     1       5.697   5.996  15.592  0.00  0.00    +0.000 C 
ENDROOT
BRANCH   1   8
ATOM      6  C   UNL     1       2.585   5.901  18.271  0.00  0.00    +0.000 A 
ATOM      7  N   UNL     1       3.486   6.142  17.301  0.00  0.00    +0.000 NA
ATOM      8  N   UNL     1       3.859   4.907  16.885  0.00  0.00    +0.000 N 
ATOM      9  C   UNL     1       3.214   3.900  17.547  0.00  0.00    +0.000 A 
ATOM     10  N   UNL     1       3.349   2.573  17.335  0.00  0.00    +0.000 NA
ATOM     11  C   UNL     1       2.586   1.866  18.181  0.00  0.00    +0.000 A 
ATOM     12  N   UNL     1       1.792   2.324  19.167  0.00  0.00    +0.000 NA
ATOM     13  C   UNL     1       1.704   3.657  19.365  0.00  0.00    +0.000 A 
ATOM     14  N   UNL     1       0.929   4.063  20.432  0.00  0.00    +0.000 N 
ATOM     15  C   UNL     1       2.413   4.507  18.501  0.00  0.00    +0.000 A 
ATOM     16  H   UNL     1       0.318   3.331  20.773  0.00  0.00    +0.000 HD
ATOM     17  H   UNL     1       0.601   5.012  20.480  0.00  0.00    +0.000 HD
BRANCH   6  19
ATOM     18  C   UNL     1       2.288   7.125  20.435  0.00  0.00    +0.000 C 
ATOM     19  C   UNL     1       1.898   7.050  18.960  0.00  0.00    +0.000 C 
ATOM     20  C   UNL     1       2.132   8.388  18.247  0.00  0.00    +0.000 C 
ENDBRANCH   6  19
ENDBRANCH   1   8
BRANCH   4  21
ATOM     21  O   UNL     1       6.965   5.102  13.763  0.00  0.00    +0.000 OA
ATOM     22  H   UNL     1       6.057   5.269  13.447  0.00  0.00    +0.000 HD
ENDBRANCH   4  21
BRANCH   5  23
ATOM     23  O   UNL     1       5.167   6.833  14.562  0.00  0.00    +0.000 OA
ATOM     24  H   UNL     1       5.713   7.647  14.561  0.00  0.00    +0.000 HD
ENDBRANCH   5  23
BRANCH   3  25
ATOM     25  C   UNL     1       7.823   4.327  17.354  0.00  0.00    +0.000 C 
BRANCH  25  26
ATOM     26  O   UNL     1       6.855   4.255  18.397  0.00  0.00    +0.000 OA
BRANCH  26  27
ATOM     27  S   UNL     1       6.658   5.580  19.311  0.00  0.00    +0.000 S 
ATOM     28  O   UNL     1       7.038   6.723  18.516  0.00  0.00    +0.000 OA
ATOM     29  O   UNL     1       5.387   5.489  19.988  0.00  0.00    +0.000 OA
BRANCH  27  30
ATOM     30  N   UNL     1       7.843   5.391  20.476  0.00  0.00    +0.000 NA
ATOM     31  H   UNL     1       7.516   4.813  21.246  0.00  0.00    +0.000 HD
ATOM     32  H   UNL     1       8.232   6.290  20.749  0.00  0.00    +0.000 HD
ENDBRANCH  27  30
ENDBRANCH  26  27
ENDBRANCH  25  26
ENDBRANCH   3  25
TORSDOF 8
ENDMDL
MODEL 4
REMARK VINA RESULT:      -6.2      3.211      5.714
REMARK  Name = 
REMARK  10 active torsions:
REMARK  status: ('A' for Active; 'I' for Inactive)
REMARK    1  A    between atoms: C_1  and  C_2
REMARK    2  A    between atoms: C_2  and  C_3
REMARK    3  A    between atoms: C_2  and  C_4
REMARK    4  A    between atoms: N_6  and  C_7
REMARK    5  A    between atoms: C_9  and  C_10
REMARK    6  A    between atoms: C_10  and  O_11
REMARK    7  A    between atoms: O_11  and  S_12
REMARK    8  A    between atoms: S_12  and  N_13
REMARK    9  A    between atoms: C_16  and  O_17
REMARK   10  A    between atoms: C_18  and  O_19
REMARK                            x       y       z     vdW  Elec       q    Type
REMARK                         _______ _______ _______ _____ _____    ______ ____
ROOT
ATOM      1  C   UNL     1       2.589   4.277  19.600  0.00  0.00    +0.000 C 
ATOM      2  O   UNL     1       3.999   4.094  19.908  0.00  0.00    +0.000 OA
ATOM      3  C   UNL     1       4.627   3.354  18.835  0.00  0.00    +0.000 C 
ATOM      4  C   UNL     1       3.485   2.769  18.009  0.00  0.00    +0.000 C 
ATOM      5  C   UNL     1       2.367   3.790  18.167  0.00  0.00    +0.000 C 
ENDROOT
BRANCH   1   8
ATOM      6  C   UNL     1       1.373   7.373  20.760  0.00  0.00    +0.000 A 
ATOM      7  N   UNL     1       1.562   6.052  20.928  0.00  0.00    +0.000 NA
ATOM      8  N   UNL     1       2.217   5.668  19.806  0.00  0.00    +0.000 N 
ATOM      9  C   UNL     1       2.462   6.701  18.946  0.00  0.00    +0.000 A 
ATOM     10  N   UNL     1       3.119   6.639  17.768  0.00  0.00    +0.000 NA
ATOM     11  C   UNL     1       3.154   7.837  17.167  0.00  0.00    +0.000 A 
ATOM     12  N   UNL     1       2.602   8.993  17.583  0.00  0.00    +0.000 NA
ATOM     13  C   UNL     1       1.930   9.009  18.754  0.00  0.00    +0.000 A 
ATOM     14  N   UNL     1       1.331  10.205  19.094  0.00  0.00    +0.000 N 
ATOM     15  C   UNL     1       1.875   7.825  19.506  0.00  0.00    +0.000 A 
ATOM     16  H   UNL     1       1.685  10.987  18.557  0.00  0.00    +0.000 HD
ATOM     17  H   UNL     1       1.054  10.373  20.046  0.00  0.00    +0.000 HD
BRANCH   6  19
ATOM     18  C   UNL     1       1.624   9.278  22.365  0.00  0.00    +0.000 C 
ATOM     19  C   UNL     1       0.702   8.180  21.839  0.00  0.00    +0.000 C 
ATOM     20  C   UNL     1      -0.652   8.746  21.394  0.00  0.00    +0.000 C 
ENDBRANCH   6  19
ENDBRANCH   1   8
BRANCH   4  21
ATOM     21  O   UNL     1       3.028   1.518  18.560  0.00  0.00    +0.000 OA
ATOM     22  H   UNL     1       2.252   1.685  19.128  0.00  0.00    +0.000 HD
ENDBRANCH   4  21
BRANCH   5  23
ATOM     23  O   UNL     1       1.088   3.180  17.975  0.00  0.00    +0.000 OA
ATOM     24  H   UNL     1       1.262   2.254  17.703  0.00  0.00    +0.000 HD
ENDBRANCH   5  23
BRANCH   3  25
ATOM     25  C   UNL     1       5.554   4.267  18.024  0.00  0.00    +0.000 C 
BRANCH  25  26
ATOM     26  O   UNL     1       5.327   4.054  16.634  0.00  0.00    +0.000 OA
BRANCH  26  27
ATOM     27  S   UNL     1       6.421   4.671  15.608  0.00  0.00    +0.000 S 
ATOM     28  O   UNL     1       5.914   5.935  15.130  0.00  0.00    +0.000 OA
ATOM     29  O   UNL     1       7.734   4.529  16.193  0.00  0.00    +0.000 OA
BRANCH  27  30
ATOM     30  N   UNL     1       6.347   3.606  14.321  0.00  0.00    +0.000 NA
ATOM     31  H   UNL     1       6.090   4.083  13.460  0.00  0.00    +0.000 HD
ATOM     32  H   UNL     1       5.775   2.797  14.551  0.00  0.00    +0.000 HD
ENDBRANCH  27  30
ENDBRANCH  26  27
ENDBRANCH  25  26
ENDBRANCH   3  25
TORSDOF 8
ENDMDL
MODEL 5
REMARK VINA RESULT:      -6.1      3.049      5.796
REMARK  Name = 
REMARK  10 active torsions:
REMARK  status: ('A' for Active; 'I' for Inactive)
REMARK    1  A    between atoms: C_1  and  C_2
REMARK    2  A    between atoms: C_2  and  C_3
REMARK    3  A    between atoms: C_2  and  C_4
REMARK    4  A    between atoms: N_6  and  C_7
REMARK    5  A    between atoms: C_9  and  C_10
REMARK    6  A    between atoms: C_10  and  O_11
REMARK    7  A    between atoms: O_11  and  S_12
REMARK    8  A    between atoms: S_12  and  N_13
REMARK    9  A    between atoms: C_16  and  O_17
REMARK   10  A    between atoms: C_18  and  O_19
REMARK                            x       y       z     vdW  Elec       q    Type
REMARK                         _______ _______ _______ _____ _____    ______ ____
ROOT
ATOM      1  C   UNL     1       4.731   4.931  16.341  0.00  0.00    +0.000 C 
ATOM      2  O   UNL     1       5.630   3.797  16.497  0.00  0.00    +0.000 OA
ATOM      3  C   UNL     1       6.952   4.176  16.049  0.00  0.00    +0.000 C 
ATOM      4  C   UNL     1       6.771   5.478  15.272  0.00  0.00    +0.000 C 
ATOM      5  C   UNL     1       5.582   6.140  15.953  0.00  0.00    +0.000 C 
ENDROOT
BRANCH   1   8
ATOM      6  C   UNL     1       3.009   4.634  19.400  0.00  0.00    +0.000 A 
ATOM      7  N   UNL     1       3.753   4.094  18.418  0.00  0.00    +0.000 NA
ATOM      8  N   UNL     1       3.968   5.124  17.564  0.00  0.00    +0.000 N 
ATOM      9  C   UNL     1       3.400   6.295  17.981  0.00  0.00    +0.000 A 
ATOM     10  N   UNL     1       3.467   7.495  17.364  0.00  0.00    +0.000 NA
ATOM     11  C   UNL     1       2.774   8.425  18.035  0.00  0.00    +0.000 A 
ATOM     12  N   UNL     1       2.044   8.272  19.156  0.00  0.00    +0.000 NA
ATOM     13  C   UNL     1       1.980   7.051  19.729  0.00  0.00    +0.000 A 
ATOM     14  N   UNL     1       1.163   6.942  20.836  0.00  0.00    +0.000 N 
ATOM     15  C   UNL     1       2.716   6.005  19.150  0.00  0.00    +0.000 A 
ATOM     16  H   UNL     1       0.920   7.840  21.234  0.00  0.00    +0.000 HD
ATOM     17  H   UNL     1       1.271   6.162  21.463  0.00  0.00    +0.000 HD
BRANCH   6  19
ATOM     18  C   UNL     1       1.112   3.439  20.516  0.00  0.00    +0.000 C 
ATOM     19  C   UNL     1       2.597   3.793  20.579  0.00  0.00    +0.000 C 
ATOM     20  C   UNL     1       3.468   2.542  20.742  0.00  0.00    +0.000 C 
ENDBRANCH   6  19
ENDBRANCH   1   8
BRANCH   4  21
ATOM     21  O   UNL     1       6.414   5.223  13.899  0.00  0.00    +0.000 OA
ATOM     22  H   UNL     1       6.920   5.826  13.322  0.00  0.00    +0.000 HD
ENDBRANCH   4  21
BRANCH   5  23
ATOM     23  O   UNL     1       4.913   7.032  15.058  0.00  0.00    +0.000 OA
ATOM     24  H   UNL     1       5.595   7.360  14.435  0.00  0.00    +0.000 HD
ENDBRANCH   5  23
BRANCH   3  25
ATOM     25  C   UNL     1       7.905   4.311  17.242  0.00  0.00    +0.000 C 
BRANCH  25  26
ATOM     26  O   UNL     1       7.148   4.342  18.449  0.00  0.00    +0.000 OA
BRANCH  26  27
ATOM     27  S   UNL     1       7.259   5.685  19.351  0.00  0.00    +0.000 S 
ATOM     28  O   UNL     1       7.886   6.706  18.546  0.00  0.00    +0.000 OA
ATOM     29  O   UNL     1       6.001   5.891  20.029  0.00  0.00    +0.000 OA
BRANCH  27  30
ATOM     30  N   UNL     1       8.372   5.243  20.518  0.00  0.00    +0.000 NA
ATOM     31  H   UNL     1       9.325   5.391  20.196  0.00  0.00    +0.000 HD
ATOM     32  H   UNL     1       8.177   4.309  20.871  0.00  0.00    +0.000 HD
ENDBRANCH  27  30
ENDBRANCH  26  27
ENDBRANCH  25  26
ENDBRANCH   3  25
TORSDOF 8
ENDMDL
MODEL 6
REMARK VINA RESULT:      -6.1      3.472      5.628
REMARK  Name = 
REMARK  10 active torsions:
REMARK  status: ('A' for Active; 'I' for Inactive)
REMARK    1  A    between atoms: C_1  and  C_2
REMARK    2  A    between atoms: C_2  and  C_3
REMARK    3  A    between atoms: C_2  and  C_4
REMARK    4  A    between atoms: N_6  and  C_7
REMARK    5  A    between atoms: C_9  and  C_10
REMARK    6  A    between atoms: C_10  and  O_11
REMARK    7  A    between atoms: O_11  and  S_12
REMARK    8  A    between atoms: S_12  and  N_13
REMARK    9  A    between atoms: C_16  and  O_17
REMARK   10  A    between atoms: C_18  and  O_19
REMARK                            x       y       z     vdW  Elec       q    Type
REMARK                         _______ _______ _______ _____ _____    ______ ____
ROOT
ATOM      1  C   UNL     1       2.241   4.924  20.543  0.00  0.00    +0.000 C 
ATOM      2  O   UNL     1       3.664   4.624  20.587  0.00  0.00    +0.000 OA
ATOM      3  C   UNL     1       3.919   3.424  19.822  0.00  0.00    +0.000 C 
ATOM      4  C   UNL     1       2.555   2.780  19.590  0.00  0.00    +0.000 C 
ATOM      5  C   UNL     1       1.602   3.965  19.538  0.00  0.00    +0.000 C 
ENDROOT
BRANCH   1   8
ATOM      6  C   UNL     1       1.367   8.335  20.419  0.00  0.00    +0.000 A 
ATOM      7  N   UNL     1       1.364   7.148  21.052  0.00  0.00    +0.000 NA
ATOM      8  N   UNL     1       2.044   6.328  20.215  0.00  0.00    +0.000 N 
ATOM      9  C   UNL     1       2.489   6.960  19.087  0.00  0.00    +0.000 A 
ATOM     10  N   UNL     1       3.218   6.419  18.088  0.00  0.00    +0.000 NA
ATOM     11  C   UNL     1       3.459   7.316  17.122  0.00  0.00    +0.000 A 
ATOM     12  N   UNL     1       3.038   8.593  17.048  0.00  0.00    +0.000 NA
ATOM     13  C   UNL     1       2.288   9.089  18.055  0.00  0.00    +0.000 A 
ATOM     14  N   UNL     1       1.830  10.381  17.891  0.00  0.00    +0.000 N 
ATOM     15  C   UNL     1       2.018   8.261  19.156  0.00  0.00    +0.000 A 
ATOM     16  H   UNL     1       2.325  10.883  17.165  0.00  0.00    +0.000 HD
ATOM     17  H   UNL     1       1.507  10.903  18.688  0.00  0.00    +0.000 HD
BRANCH   6  19
ATOM     18  C   UNL     1      -0.559   9.934  20.355  0.00  0.00    +0.000 C 
ATOM     19  C   UNL     1       0.730   9.534  21.070  0.00  0.00    +0.000 C 
ATOM     20  C   UNL     1       0.502   9.336  22.574  0.00  0.00    +0.000 C 
ENDBRANCH   6  19
ENDBRANCH   1   8
BRANCH   4  21
ATOM     21  O   UNL     1       2.172   1.949  20.704  0.00  0.00    +0.000 OA
ATOM     22  H   UNL     1       1.430   1.377  20.434  0.00  0.00    +0.000 HD
ENDBRANCH   4  21
BRANCH   5  23
ATOM     23  O   UNL     1       0.277   3.572  19.903  0.00  0.00    +0.000 OA
ATOM     24  H   UNL     1      -0.065   4.273  20.497  0.00  0.00    +0.000 HD
ENDBRANCH   5  23
BRANCH   3  25
ATOM     25  C   UNL     1       4.657   3.763  18.522  0.00  0.00    +0.000 C 
BRANCH  25  26
ATOM     26  O   UNL     1       5.978   4.200  18.829  0.00  0.00    +0.000 OA
BRANCH  26  27
ATOM     27  S   UNL     1       6.863   4.784  17.602  0.00  0.00    +0.000 S 
ATOM     28  O   UNL     1       8.156   4.143  17.647  0.00  0.00    +0.000 OA
ATOM     29  O   UNL     1       6.045   4.806  16.413  0.00  0.00    +0.000 OA
BRANCH  27  30
ATOM     30  N   UNL     1       7.100   6.375  18.058  0.00  0.00    +0.000 NA
ATOM     31  H   UNL     1       8.035   6.519  18.430  0.00  0.00    +0.000 HD
ATOM     32  H   UNL     1       6.345   6.699  18.657  0.00  0.00    +0.000 HD
ENDBRANCH  27  30
ENDBRANCH  26  27
ENDBRANCH  25  26
ENDBRANCH   3  25
TORSDOF 8
ENDMDL
MODEL 7
REMARK VINA RESULT:      -6.1      3.687      6.050
REMARK  Name = 
REMARK  10 active torsions:
REMARK  status: ('A' for Active; 'I' for Inactive)
REMARK    1  A    between atoms: C_1  and  C_2
REMARK    2  A    between atoms: C_2  and  C_3
REMARK    3  A    between atoms: C_2  and  C_4
REMARK    4  A    between atoms: N_6  and  C_7
REMARK    5  A    between atoms: C_9  and  C_10
REMARK    6  A    between atoms: C_10  and  O_11
REMARK    7  A    between atoms: O_11  and  S_12
REMARK    8  A    between atoms: S_12  and  N_13
REMARK    9  A    between atoms: C_16  and  O_17
REMARK   10  A    between atoms: C_18  and  O_19
REMARK                            x       y       z     vdW  Elec       q    Type
REMARK                         _______ _______ _______ _____ _____    ______ ____
ROOT
ATOM      1  C   UNL     1       2.440   5.373  20.422  0.00  0.00    +0.000 C 
ATOM      2  O   UNL     1       3.864   5.308  20.131  0.00  0.00    +0.000 OA
ATOM      3  C   UNL     1       4.119   4.177  19.265  0.00  0.00    +0.000 C 
ATOM      4  C   UNL     1       2.855   3.325  19.310  0.00  0.00    +0.000 C 
ATOM      5  C   UNL     1       1.744   4.340  19.535  0.00  0.00    +0.000 C 
ENDROOT
BRANCH   1   8
ATOM      6  C   UNL     1       0.912   8.542  20.614  0.00  0.00    +0.000 A 
ATOM      7  N   UNL     1       1.166   7.331  21.141  0.00  0.00    +0.000 NA
ATOM      8  N   UNL     1       1.960   6.732  20.221  0.00  0.00    +0.000 N 
ATOM      9  C   UNL     1       2.227   7.528  19.142  0.00  0.00    +0.000 A 
ATOM     10  N   UNL     1       3.008   7.224  18.083  0.00  0.00    +0.000 NA
ATOM     11  C   UNL     1       3.030   8.226  17.193  0.00  0.00    +0.000 A 
ATOM     12  N   UNL     1       2.364   9.396  17.239  0.00  0.00    +0.000 NA
ATOM     13  C   UNL     1       1.572   9.651  18.302  0.00  0.00    +0.000 A 
ATOM     14  N   UNL     1       0.864  10.835  18.262  0.00  0.00    +0.000 N 
ATOM     15  C   UNL     1       1.514   8.700  19.334  0.00  0.00    +0.000 A 
ATOM     16  H   UNL     1       1.222  11.482  17.570  0.00  0.00    +0.000 HD
ATOM     17  H   UNL     1       0.478  11.217  19.108  0.00  0.00    +0.000 HD
BRANCH   6  19
ATOM     18  C   UNL     1      -0.461   8.925  22.673  0.00  0.00    +0.000 C 
ATOM     19  C   UNL     1       0.079   9.535  21.380  0.00  0.00    +0.000 C 
ATOM     20  C   UNL     1       0.826  10.848  21.646  0.00  0.00    +0.000 C 
ENDBRANCH   6  19
ENDBRANCH   1   8
BRANCH   4  21
ATOM     21  O   UNL     1       2.870   2.424  20.436  0.00  0.00    +0.000 OA
ATOM     22  H   UNL     1       3.697   1.907  20.418  0.00  0.00    +0.000 HD
ENDBRANCH   4  21
BRANCH   5  23
ATOM     23  O   UNL     1       0.614   3.731  20.165  0.00  0.00    +0.000 OA
ATOM     24  H   UNL     1       0.974   3.124  20.846  0.00  0.00    +0.000 HD
ENDBRANCH   5  23
BRANCH   3  25
ATOM     25  C   UNL     1       4.479   4.653  17.853  0.00  0.00    +0.000 C 
BRANCH  25  26
ATOM     26  O   UNL     1       5.753   5.292  17.880  0.00  0.00    +0.000 OA
BRANCH  26  27
ATOM     27  S   UNL     1       6.817   4.857  16.736  0.00  0.00    +0.000 S 
ATOM     28  O   UNL     1       6.209   3.816  15.942  0.00  0.00    +0.000 OA
ATOM     29  O   UNL     1       7.383   6.051  16.155  0.00  0.00    +0.000 OA
BRANCH  27  30
ATOM     30  N   UNL     1       8.029   4.132  17.632  0.00  0.00    +0.000 NA
ATOM     31  H   UNL     1       7.653   3.657  18.448  0.00  0.00    +0.000 HD
ATOM     32  H   UNL     1       8.781   4.789  17.825  0.00  0.00    +0.000 HD
ENDBRANCH  27  30
ENDBRANCH  26  27
ENDBRANCH  25  26
ENDBRANCH   3  25
TORSDOF 8
ENDMDL
MODEL 8
REMARK VINA RESULT:      -6.1      1.892      2.196
REMARK  Name = 
REMARK  10 active torsions:
REMARK  status: ('A' for Active; 'I' for Inactive)
REMARK    1  A    between atoms: C_1  and  C_2
REMARK    2  A    between atoms: C_2  and  C_3
REMARK    3  A    between atoms: C_2  and  C_4
REMARK    4  A    between atoms: N_6  and  C_7
REMARK    5  A    between atoms: C_9  and  C_10
REMARK    6  A    between atoms: C_10  and  O_11
REMARK    7  A    between atoms: O_11  and  S_12
REMARK    8  A    between atoms: S_12  and  N_13
REMARK    9  A    between atoms: C_16  and  O_17
REMARK   10  A    between atoms: C_18  and  O_19
REMARK                            x       y       z     vdW  Elec       q    Type
REMARK                         _______ _______ _______ _____ _____    ______ ____
ROOT
ATOM      1  C   UNL     1       3.498   4.251  18.182  0.00  0.00    +0.000 C 
ATOM      2  O   UNL     1       2.483   5.280  18.010  0.00  0.00    +0.000 OA
ATOM      3  C   UNL     1       1.822   5.510  19.275  0.00  0.00    +0.000 C 
ATOM      4  C   UNL     1       2.213   4.336  20.169  0.00  0.00    +0.000 C 
ATOM      5  C   UNL     1       3.604   3.959  19.679  0.00  0.00    +0.000 C 
ENDROOT
BRANCH   1   8
ATOM      6  C   UNL     1       6.624   5.685  17.414  0.00  0.00    +0.000 A 
ATOM      7  N   UNL     1       5.616   5.467  18.278  0.00  0.00    +0.000 NA
ATOM      8  N   UNL     1       4.749   4.691  17.583  0.00  0.00    +0.000 N 
ATOM      9  C   UNL     1       5.183   4.399  16.321  0.00  0.00    +0.000 A 
ATOM     10  N   UNL     1       4.558   3.626  15.406  0.00  0.00    +0.000 NA
ATOM     11  C   UNL     1       5.251   3.574  14.260  0.00  0.00    +0.000 A 
ATOM     12  N   UNL     1       6.400   4.204  13.952  0.00  0.00    +0.000 NA
ATOM     13  C   UNL     1       6.981   4.989  14.885  0.00  0.00    +0.000 A 
ATOM     14  N   UNL     1       8.120   5.662  14.489  0.00  0.00    +0.000 N 
ATOM     15  C   UNL     1       6.379   5.077  16.150  0.00  0.00    +0.000 A 
ATOM     16  H   UNL     1       8.522   5.284  13.641  0.00  0.00    +0.000 HD
ATOM     17  H   UNL     1       8.745   6.037  15.181  0.00  0.00    +0.000 HD
BRANCH   6  19
ATOM     18  C   UNL     1       7.636   7.972  17.532  0.00  0.00    +0.000 C 
ATOM     19  C   UNL     1       7.822   6.488  17.845  0.00  0.00    +0.000 C 
ATOM     20  C   UNL     1       8.181   6.263  19.319  0.00  0.00    +0.000 C 
ENDBRANCH   6  19
ENDBRANCH   1   8
BRANCH   4  21
ATOM     21  O   UNL     1       1.345   3.205  19.957  0.00  0.00    +0.000 OA
ATOM     22  H   UNL     1       1.660   2.456  20.498  0.00  0.00    +0.000 HD
ENDBRANCH   4  21
BRANCH   5  23
ATOM     23  O   UNL     1       3.892   2.588  19.963  0.00  0.00    +0.000 OA
ATOM     24  H   UNL     1       4.365   2.238  19.178  0.00  0.00    +0.000 HD
ENDBRANCH   5  23
BRANCH   3  25
ATOM     25  C   UNL     1       2.226   6.871  19.853  0.00  0.00    +0.000 C 
BRANCH  25  26
ATOM     26  O   UNL     1       1.502   7.106  21.058  0.00  0.00    +0.000 OA
BRANCH  26  27
ATOM     27  S   UNL     1       0.828   8.569  21.237  0.00  0.00    +0.000 S 
ATOM     28  O   UNL     1       1.145   9.347  20.063  0.00  0.00    +0.000 OA
ATOM     29  O   UNL     1      -0.523   8.399  21.718  0.00  0.00    +0.000 OA
BRANCH  27  30
ATOM     30  N   UNL     1       1.713   9.220  22.498  0.00  0.00    +0.000 NA
ATOM     31  H   UNL     1       2.591   8.725  22.628  0.00  0.00    +0.000 HD
ATOM     32  H   UNL     1       1.142   9.311  23.335  0.00  0.00    +0.000 HD
ENDBRANCH  27  30
ENDBRANCH  26  27
ENDBRANCH  25  26
ENDBRANCH   3  25
TORSDOF 8
ENDMDL
MODEL 9
REMARK VINA RESULT:      -6.0      3.282      6.644
REMARK  Name = 
REMARK  10 active torsions:
REMARK  status: ('A' for Active; 'I' for Inactive)
REMARK    1  A    between atoms: C_1  and  C_2
REMARK    2  A    between atoms: C_2  and  C_3
REMARK    3  A    between atoms: C_2  and  C_4
REMARK    4  A    between atoms: N_6  and  C_7
REMARK    5  A    between atoms: C_9  and  C_10
REMARK    6  A    between atoms: C_10  and  O_11
REMARK    7  A    between atoms: O_11  and  S_12
REMARK    8  A    between atoms: S_12  and  N_13
REMARK    9  A    between atoms: C_16  and  O_17
REMARK   10  A    between atoms: C_18  and  O_19
REMARK                            x       y       z     vdW  Elec       q    Type
REMARK                         _______ _______ _______ _____ _____    ______ ____
ROOT
ATOM      1  C   UNL     1       5.358   5.645  17.421  0.00  0.00    +0.000 C 
ATOM      2  O   UNL     1       4.882   5.870  16.065  0.00  0.00    +0.000 OA
ATOM      3  C   UNL     1       5.894   5.433  15.129  0.00  0.00    +0.000 C 
ATOM      4  C   UNL     1       7.169   5.254  15.948  0.00  0.00    +0.000 C 
ATOM      5  C   UNL     1       6.660   4.848  17.323  0.00  0.00    +0.000 C 
ENDROOT
BRANCH   1   8
ATOM      6  C   UNL     1       3.149   3.386  18.981  0.00  0.00    +0.000 A 
ATOM      7  N   UNL     1       4.199   3.630  18.176  0.00  0.00    +0.000 NA
ATOM      8  N   UNL     1       4.326   4.979  18.200  0.00  0.00    +0.000 N 
ATOM      9  C   UNL     1       3.404   5.590  19.004  0.00  0.00    +0.000 A 
ATOM     10  N   UNL     1       3.297   6.913  19.255  0.00  0.00    +0.000 NA
ATOM     11  C   UNL     1       2.263   7.170  20.069  0.00  0.00    +0.000 A 
ATOM     12  N   UNL     1       1.372   6.301  20.582  0.00  0.00    +0.000 NA
ATOM     13  C   UNL     1       1.497   4.990  20.286  0.00  0.00    +0.000 A 
ATOM     14  N   UNL     1       0.515   4.158  20.786  0.00  0.00    +0.000 N 
ATOM     15  C   UNL     1       2.580   4.587  19.489  0.00  0.00    +0.000 A 
ATOM     16  H   UNL     1      -0.027   4.591  21.523  0.00  0.00    +0.000 HD
ATOM     17  H   UNL     1       0.679   3.167  20.840  0.00  0.00    +0.000 HD
BRANCH   6  19
ATOM     18  C   UNL     1       1.323   1.698  18.683  0.00  0.00    +0.000 C 
ATOM     19  C   UNL     1       2.719   1.967  19.245  0.00  0.00    +0.000 C 
ATOM     20  C   UNL     1       3.738   0.939  18.738  0.00  0.00    +0.000 C 
ENDBRANCH   6  19
ENDBRANCH   1   8
BRANCH   4  21
ATOM     21  O   UNL     1       7.881   6.500  16.086  0.00  0.00    +0.000 OA
ATOM     22  H   UNL     1       7.244   7.209  16.294  0.00  0.00    +0.000 HD
ENDBRANCH   4  21
BRANCH   5  23
ATOM     23  O   UNL     1       7.605   5.191  18.340  0.00  0.00    +0.000 OA
ATOM     24  H   UNL     1       7.830   6.135  18.198  0.00  0.00    +0.000 HD
ENDBRANCH   5  23
BRANCH   3  25
ATOM     25  C   UNL     1       5.448   4.151  14.416  0.00  0.00    +0.000 C 
BRANCH  25  26
ATOM     26  O   UNL     1       6.547   3.611  13.686  0.00  0.00    +0.000 OA
BRANCH  26  27
ATOM     27  S   UNL     1       6.412   3.581  12.070  0.00  0.00    +0.000 S 
ATOM     28  O   UNL     1       5.006   3.543  11.746  0.00  0.00    +0.000 OA
ATOM     29  O   UNL     1       7.314   4.561  11.513  0.00  0.00    +0.000 OA
BRANCH  27  30
ATOM     30  N   UNL     1       7.034   2.077  11.687  0.00  0.00    +0.000 NA
ATOM     31  H   UNL     1       7.071   1.472  12.503  0.00  0.00    +0.000 HD
ATOM     32  H   UNL     1       7.911   2.164  11.177  0.00  0.00    +0.000 HD
ENDBRANCH  27  30
ENDBRANCH  26  27
ENDBRANCH  25  26
ENDBRANCH   3  25
TORSDOF 8
ENDMDL
