MODEL 1
REMARK VINA RESULT:      -6.3      0.000      0.000
REMARK  Name = 
REMARK  6 active torsions:
REMARK  status: ('A' for Active; 'I' for Inactive)
REMARK    1  A    between atoms: C_4  and  C_5
REMARK    2  A    between atoms: C_11  and  N_12
REMARK    3  A    between atoms: C_15  and  C_16
REMARK    4  A    between atoms: C_19  and  O_20
REMARK    5  A    between atoms: N_23  and  C_24
REMARK    6  A    between atoms: C_24  and  C_25
REMARK                            x       y       z     vdW  Elec       q    Type
REMARK                         _______ _______ _______ _____ _____    ______ ____
ROOT
ATOM      1  O   UNL     1      -3.527  11.433  17.516  0.00  0.00    +0.000 OA
ATOM      2  C   UNL     1      -2.795  11.353  18.500  0.00  0.00    +0.000 C 
ATOM      3  C   UNL     1      -1.811  10.209  18.580  0.00  0.00    +0.000 C 
ATOM      4  C   UNL     1      -0.794  10.243  19.721  0.00  0.00    +0.000 C 
ATOM      5  C   UNL     1      -0.449  11.684  20.091  0.00  0.00    +0.000 C 
ATOM      6  C   UNL     1      -1.701  12.504  20.447  0.00  0.00    +0.000 C 
ATOM      7  N   UNL     1      -2.851  12.259  19.539  0.00  0.00    +0.000 N 
ENDROOT
BRANCH   4   8
ATOM      8  C   UNL     1       0.434   9.424  19.322  0.00  0.00    +0.000 A 
ATOM      9  C   UNL     1       1.048   9.600  18.069  0.00  0.00    +0.000 A 
ATOM     10  C   UNL     1       2.140   8.819  17.690  0.00  0.00    +0.000 A 
ATOM     11  C   UNL     1       2.647   7.864  18.563  0.00  0.00    +0.000 A 
ATOM     12  C   UNL     1       2.066   7.694  19.819  0.00  0.00    +0.000 A 
ATOM     13  C   UNL     1       0.966   8.469  20.198  0.00  0.00    +0.000 A 
ENDBRANCH   4   8
BRANCH   6  14
ATOM     14  C   UNL     1      -1.318  13.991  20.476  0.00  0.00    +0.000 A 
ATOM     15  C   UNL     1      -0.655  14.599  19.391  0.00  0.00    +0.000 A 
ATOM     16  C   UNL     1      -0.371  15.963  19.404  0.00  0.00    +0.000 A 
ATOM     17  C   UNL     1      -0.695  16.716  20.524  0.00  0.00    +0.000 A 
ATOM     18  C   UNL     1      -1.298  16.128  21.628  0.00  0.00    +0.000 A 
ATOM     19  C   UNL     1      -1.622  14.771  21.602  0.00  0.00    +0.000 A 
BRANCH  17  20
ATOM     20  O   UNL     1      -0.437  18.050  20.581  0.00  0.00    +0.000 OA
ATOM     21  H   UNL     1      -0.989  18.447  21.278  0.00  0.00    +0.000 HD
ENDBRANCH  17  20
ENDBRANCH   6  14
BRANCH   5  22
ATOM     22  N   UNL     1       0.456  11.670  21.302  0.00  0.00    +0.000 N 
ATOM     23  O   UNL     1       1.607  12.107  21.164  0.00  0.00    +0.000 OA
ATOM     24  O   UNL     1      -0.010  11.194  22.345  0.00  0.00    +0.000 OA
ENDBRANCH   5  22
BRANCH   7  25
ATOM     25  C   UNL     1      -4.003  13.182  19.573  0.00  0.00    +0.000 C 
BRANCH  25  26
ATOM     26  C   UNL     1      -5.190  12.640  20.318  0.00  0.00    +0.000 A 
ATOM     27  C   UNL     1      -6.244  12.010  19.653  0.00  0.00    +0.000 A 
ATOM     28  C   UNL     1      -7.331  11.538  20.380  0.00  0.00    +0.000 A 
ATOM     29  C   UNL     1      -7.330  11.708  21.755  0.00  0.00    +0.000 A 
ATOM     30  N   UNL     1      -6.322  12.290  22.435  0.00  0.00    +0.000 NA
ATOM     31  C   UNL     1      -5.278  12.739  21.705  0.00  0.00    +0.000 A 
ENDBRANCH  25  26
ENDBRANCH   7  25
TORSDOF 6
ENDMDL
MODEL 2
REMARK VINA RESULT:      -6.3      0.102      1.054
REMARK  Name = 
REMARK  6 active torsions:
REMARK  status: ('A' for Active; 'I' for Inactive)
REMARK    1  A    between atoms: C_4  and  C_5
REMARK    2  A    between atoms: C_11  and  N_12
REMARK    3  A    between atoms: C_15  and  C_16
REMARK    4  A    between atoms: C_19  and  O_20
REMARK    5  A    between atoms: N_23  and  C_24
REMARK    6  A    between atoms: C_24  and  C_25
REMARK                            x       y       z     vdW  Elec       q    Type
REMARK                         _______ _______ _______ _____ _____    ______ ____
ROOT
ATOM      1  O   UNL     1      -3.529  11.508  17.547  0.00  0.00    +0.000 OA
ATOM      2  C   UNL     1      -2.798  11.415  18.530  0.00  0.00    +0.000 C 
ATOM      3  C   UNL     1      -1.821  10.264  18.601  0.00  0.00    +0.000 C 
ATOM      4  C   UNL     1      -0.804  10.281  19.743  0.00  0.00    +0.000 C 
ATOM      5  C   UNL     1      -0.451  11.717  20.126  0.00  0.00    +0.000 C 
ATOM      6  C   UNL     1      -1.699  12.541  20.488  0.00  0.00    +0.000 C 
ATOM      7  N   UNL     1      -2.849  12.312  19.577  0.00  0.00    +0.000 N 
ENDROOT
BRANCH   4   8
ATOM      8  C   UNL     1       0.418   9.458  19.337  0.00  0.00    +0.000 A 
ATOM      9  C   UNL     1       1.006   9.608  18.068  0.00  0.00    +0.000 A 
ATOM     10  C   UNL     1       2.094   8.823  17.685  0.00  0.00    +0.000 A 
ATOM     11  C   UNL     1       2.621   7.889  18.568  0.00  0.00    +0.000 A 
ATOM     12  C   UNL     1       2.067   7.746  19.840  0.00  0.00    +0.000 A 
ATOM     13  C   UNL     1       0.972   8.525  20.223  0.00  0.00    +0.000 A 
ENDBRANCH   4   8
BRANCH   6  14
ATOM     14  C   UNL     1      -1.305  14.025  20.531  0.00  0.00    +0.000 A 
ATOM     15  C   UNL     1      -1.623  14.837  21.638  0.00  0.00    +0.000 A 
ATOM     16  C   UNL     1      -1.203  16.165  21.691  0.00  0.00    +0.000 A 
ATOM     17  C   UNL     1      -0.515  16.706  20.614  0.00  0.00    +0.000 A 
ATOM     18  C   UNL     1      -0.239  15.941  19.488  0.00  0.00    +0.000 A 
ATOM     19  C   UNL     1      -0.620  14.600  19.449  0.00  0.00    +0.000 A 
BRANCH  17  20
ATOM     20  O   UNL     1      -0.086  17.997  20.621  0.00  0.00    +0.000 OA
ATOM     21  H   UNL     1      -0.748  18.550  20.171  0.00  0.00    +0.000 HD
ENDBRANCH  17  20
ENDBRANCH   6  14
BRANCH   5  22
ATOM     22  N   UNL     1       0.453  11.686  21.337  0.00  0.00    +0.000 N 
ATOM     23  O   UNL     1      -0.001  11.196  22.380  0.00  0.00    +0.000 OA
ATOM     24  O   UNL     1       1.579  12.182  21.210  0.00  0.00    +0.000 OA
ENDBRANCH   5  22
BRANCH   7  25
ATOM     25  C   UNL     1      -3.995  13.242  19.619  0.00  0.00    +0.000 C 
BRANCH  25  26
ATOM     26  C   UNL     1      -5.198  12.687  20.328  0.00  0.00    +0.000 A 
ATOM     27  C   UNL     1      -6.259  12.112  19.626  0.00  0.00    +0.000 A 
ATOM     28  C   UNL     1      -7.361  11.625  20.321  0.00  0.00    +0.000 A 
ATOM     29  C   UNL     1      -7.367  11.728  21.703  0.00  0.00    +0.000 A 
ATOM     30  N   UNL     1      -6.353  12.255  22.418  0.00  0.00    +0.000 NA
ATOM     31  C   UNL     1      -5.294  12.719  21.718  0.00  0.00    +0.000 A 
ENDBRANCH  25  26
ENDBRANCH   7  25
TORSDOF 6
ENDMDL
MODEL 3
REMARK VINA RESULT:      -6.2      2.722      6.338
REMARK  Name = 
REMARK  6 active torsions:
REMARK  status: ('A' for Active; 'I' for Inactive)
REMARK    1  A    between atoms: C_4  and  C_5
REMARK    2  A    between atoms: C_11  and  N_12
REMARK    3  A    between atoms: C_15  and  C_16
REMARK    4  A    between atoms: C_19  and  O_20
REMARK    5  A    between atoms: N_23  and  C_24
REMARK    6  A    between atoms: C_24  and  C_25
REMARK                            x       y       z     vdW  Elec       q    Type
REMARK                         _______ _______ _______ _____ _____    ______ ____
ROOT
ATOM      1  O   UNL     1      -3.215  12.856  20.835  0.00  0.00    +0.000 OA
ATOM      2  C   UNL     1      -2.156  13.024  20.233  0.00  0.00    +0.000 C 
ATOM      3  C   UNL     1      -1.487  14.377  20.306  0.00  0.00    +0.000 C 
ATOM      4  C   UNL     1      -0.087  14.497  19.703  0.00  0.00    +0.000 C 
ATOM      5  C   UNL     1       0.665  13.173  19.824  0.00  0.00    +0.000 C 
ATOM      6  C   UNL     1      -0.111  12.008  19.184  0.00  0.00    +0.000 C 
ATOM      7  N   UNL     1      -1.566  12.028  19.482  0.00  0.00    +0.000 N 
ENDROOT
BRANCH   4   8
ATOM      8  C   UNL     1       0.648  15.658  20.371  0.00  0.00    +0.000 A 
ATOM      9  C   UNL     1       0.931  15.643  21.750  0.00  0.00    +0.000 A 
ATOM     10  C   UNL     1       1.562  16.725  22.364  0.00  0.00    +0.000 A 
ATOM     11  C   UNL     1       1.936  17.830  21.610  0.00  0.00    +0.000 A 
ATOM     12  C   UNL     1       1.687  17.851  20.238  0.00  0.00    +0.000 A 
ATOM     13  C   UNL     1       1.047  16.772  19.621  0.00  0.00    +0.000 A 
ENDBRANCH   4   8
BRANCH   6  14
ATOM     14  C   UNL     1       0.533  10.689  19.634  0.00  0.00    +0.000 A 
ATOM     15  C   UNL     1       0.568  10.315  20.992  0.00  0.00    +0.000 A 
ATOM     16  C   UNL     1       1.098   9.085  21.379  0.00  0.00    +0.000 A 
ATOM     17  C   UNL     1       1.649   8.247  20.420  0.00  0.00    +0.000 A 
ATOM     18  C   UNL     1       1.676   8.619  19.081  0.00  0.00    +0.000 A 
ATOM     19  C   UNL     1       1.109   9.830  18.685  0.00  0.00    +0.000 A 
BRANCH  17  20
ATOM     20  O   UNL     1       2.177   7.039  20.750  0.00  0.00    +0.000 OA
ATOM     21  H   UNL     1       2.526   7.086  21.658  0.00  0.00    +0.000 HD
ENDBRANCH  17  20
ENDBRANCH   6  14
BRANCH   5  22
ATOM     22  N   UNL     1       1.987  13.299  19.104  0.00  0.00    +0.000 N 
ATOM     23  O   UNL     1       1.969  13.304  17.865  0.00  0.00    +0.000 OA
ATOM     24  O   UNL     1       3.005  13.361  19.805  0.00  0.00    +0.000 OA
ENDBRANCH   5  22
BRANCH   7  25
ATOM     25  C   UNL     1      -2.376  10.828  19.191  0.00  0.00    +0.000 C 
BRANCH  25  26
ATOM     26  C   UNL     1      -2.814  10.726  17.757  0.00  0.00    +0.000 A 
ATOM     27  C   UNL     1      -2.141   9.912  16.844  0.00  0.00    +0.000 A 
ATOM     28  C   UNL     1      -2.571   9.860  15.522  0.00  0.00    +0.000 A 
ATOM     29  C   UNL     1      -3.666  10.626  15.154  0.00  0.00    +0.000 A 
ATOM     30  N   UNL     1      -4.355  11.405  16.011  0.00  0.00    +0.000 NA
ATOM     31  C   UNL     1      -3.917  11.437  17.288  0.00  0.00    +0.000 A 
ENDBRANCH  25  26
ENDBRANCH   7  25
TORSDOF 6
ENDMDL
MODEL 4
REMARK VINA RESULT:      -6.2      0.607      1.075
REMARK  Name = 
REMARK  6 active torsions:
REMARK  status: ('A' for Active; 'I' for Inactive)
REMARK    1  A    between atoms: C_4  and  C_5
REMARK    2  A    between atoms: C_11  and  N_12
REMARK    3  A    between atoms: C_15  and  C_16
REMARK    4  A    between atoms: C_19  and  O_20
REMARK    5  A    between atoms: N_23  and  C_24
REMARK    6  A    between atoms: C_24  and  C_25
REMARK                            x       y       z     vdW  Elec       q    Type
REMARK                         _______ _______ _______ _____ _____    ______ ____
ROOT
ATOM      1  O   UNL     1      -3.562  11.487  17.746  0.00  0.00    +0.000 OA
ATOM      2  C   UNL     1      -2.765  11.420  18.679  0.00  0.00    +0.000 C 
ATOM      3  C   UNL     1      -1.801  10.257  18.727  0.00  0.00    +0.000 C 
ATOM      4  C   UNL     1      -0.706  10.303  19.794  0.00  0.00    +0.000 C 
ATOM      5  C   UNL     1      -0.308  11.746  20.095  0.00  0.00    +0.000 C 
ATOM      6  C   UNL     1      -1.516  12.604  20.510  0.00  0.00    +0.000 C 
ATOM      7  N   UNL     1      -2.731  12.357  19.691  0.00  0.00    +0.000 N 
ENDROOT
BRANCH   4   8
ATOM      8  C   UNL     1       0.474   9.446  19.337  0.00  0.00    +0.000 A 
ATOM      9  C   UNL     1       1.031   9.601  18.055  0.00  0.00    +0.000 A 
ATOM     10  C   UNL     1       2.079   8.786  17.625  0.00  0.00    +0.000 A 
ATOM     11  C   UNL     1       2.597   7.816  18.474  0.00  0.00    +0.000 A 
ATOM     12  C   UNL     1       2.074   7.666  19.758  0.00  0.00    +0.000 A 
ATOM     13  C   UNL     1       1.018   8.475  20.188  0.00  0.00    +0.000 A 
ENDBRANCH   4   8
BRANCH   6  14
ATOM     14  C   UNL     1      -1.102  14.082  20.467  0.00  0.00    +0.000 A 
ATOM     15  C   UNL     1      -0.558  14.657  19.302  0.00  0.00    +0.000 A 
ATOM     16  C   UNL     1      -0.247  16.015  19.256  0.00  0.00    +0.000 A 
ATOM     17  C   UNL     1      -0.423  16.793  20.391  0.00  0.00    +0.000 A 
ATOM     18  C   UNL     1      -0.906  16.236  21.569  0.00  0.00    +0.000 A 
ATOM     19  C   UNL     1      -1.258  14.887  21.606  0.00  0.00    +0.000 A 
BRANCH  17  20
ATOM     20  O   UNL     1      -0.133  18.122  20.394  0.00  0.00    +0.000 OA
ATOM     21  H   UNL     1       0.834  18.233  20.372  0.00  0.00    +0.000 HD
ENDBRANCH  17  20
ENDBRANCH   6  14
BRANCH   5  22
ATOM     22  N   UNL     1       0.678  11.748  21.240  0.00  0.00    +0.000 N 
ATOM     23  O   UNL     1       1.785  12.268  21.045  0.00  0.00    +0.000 OA
ATOM     24  O   UNL     1       0.319  11.201  22.291  0.00  0.00    +0.000 OA
ENDBRANCH   5  22
BRANCH   7  25
ATOM     25  C   UNL     1      -3.859  13.306  19.776  0.00  0.00    +0.000 C 
BRANCH  25  26
ATOM     26  C   UNL     1      -4.769  13.061  20.947  0.00  0.00    +0.000 A 
ATOM     27  C   UNL     1      -4.509  13.616  22.202  0.00  0.00    +0.000 A 
ATOM     28  C   UNL     1      -5.369  13.350  23.262  0.00  0.00    +0.000 A 
ATOM     29  C   UNL     1      -6.467  12.536  23.033  0.00  0.00    +0.000 A 
ATOM     30  N   UNL     1      -6.763  12.002  21.832  0.00  0.00    +0.000 NA
ATOM     31  C   UNL     1      -5.913  12.276  20.819  0.00  0.00    +0.000 A 
ENDBRANCH  25  26
ENDBRANCH   7  25
TORSDOF 6
ENDMDL
MODEL 5
REMARK VINA RESULT:      -6.2      2.190      4.878
REMARK  Name = 
REMARK  6 active torsions:
REMARK  status: ('A' for Active; 'I' for Inactive)
REMARK    1  A    between atoms: C_4  and  C_5
REMARK    2  A    between atoms: C_11  and  N_12
REMARK    3  A    between atoms: C_15  and  C_16
REMARK    4  A    between atoms: C_19  and  O_20
REMARK    5  A    between atoms: N_23  and  C_24
REMARK    6  A    between atoms: C_24  and  C_25
REMARK                            x       y       z     vdW  Elec       q    Type
REMARK                         _______ _______ _______ _____ _____    ______ ____
ROOT
ATOM      1  O   UNL     1       1.884  14.059  21.701  0.00  0.00    +0.000 OA
ATOM      2  C   UNL     1       1.198  13.490  20.854  0.00  0.00    +0.000 C 
ATOM      3  C   UNL     1       1.789  12.312  20.115  0.00  0.00    +0.000 C 
ATOM      4  C   UNL     1       0.849  11.517  19.207  0.00  0.00    +0.000 C 
ATOM      5  C   UNL     1      -0.578  11.547  19.751  0.00  0.00    +0.000 C 
ATOM      6  C   UNL     1      -1.090  12.984  19.948  0.00  0.00    +0.000 C 
ATOM      7  N   UNL     1      -0.082  13.899  20.544  0.00  0.00    +0.000 N 
ENDROOT
BRANCH   4   8
ATOM      8  C   UNL     1       1.392  10.097  19.046  0.00  0.00    +0.000 A 
ATOM      9  C   UNL     1       1.943   9.664  17.826  0.00  0.00    +0.000 A 
ATOM     10  C   UNL     1       2.396   8.354  17.669  0.00  0.00    +0.000 A 
ATOM     11  C   UNL     1       2.322   7.462  18.732  0.00  0.00    +0.000 A 
ATOM     12  C   UNL     1       1.803   7.882  19.956  0.00  0.00    +0.000 A 
ATOM     13  C   UNL     1       1.340   9.191  20.114  0.00  0.00    +0.000 A 
ENDBRANCH   4   8
BRANCH   6  14
ATOM     14  C   UNL     1      -2.370  12.933  20.795  0.00  0.00    +0.000 A 
ATOM     15  C   UNL     1      -3.616  13.324  20.266  0.00  0.00    +0.000 A 
ATOM     16  C   UNL     1      -4.779  13.211  21.025  0.00  0.00    +0.000 A 
ATOM     17  C   UNL     1      -4.697  12.761  22.335  0.00  0.00    +0.000 A 
ATOM     18  C   UNL     1      -3.472  12.422  22.897  0.00  0.00    +0.000 A 
ATOM     19  C   UNL     1      -2.311  12.494  22.127  0.00  0.00    +0.000 A 
BRANCH  17  20
ATOM     20  O   UNL     1      -5.805  12.635  23.114  0.00  0.00    +0.000 OA
ATOM     21  H   UNL     1      -6.200  13.515  23.244  0.00  0.00    +0.000 HD
ENDBRANCH  17  20
ENDBRANCH   6  14
BRANCH   5  22
ATOM     22  N   UNL     1      -1.489  10.861  18.759  0.00  0.00    +0.000 N 
ATOM     23  O   UNL     1      -1.706  11.439  17.685  0.00  0.00    +0.000 OA
ATOM     24  O   UNL     1      -1.980   9.779  19.103  0.00  0.00    +0.000 OA
ENDBRANCH   5  22
BRANCH   7  25
ATOM     25  C   UNL     1      -0.520  15.211  21.061  0.00  0.00    +0.000 C 
BRANCH  25  26
ATOM     26  C   UNL     1      -0.848  16.207  19.984  0.00  0.00    +0.000 A 
ATOM     27  C   UNL     1      -0.029  16.369  18.865  0.00  0.00    +0.000 A 
ATOM     28  C   UNL     1      -0.362  17.313  17.901  0.00  0.00    +0.000 A 
ATOM     29  C   UNL     1      -1.509  18.068  18.084  0.00  0.00    +0.000 A 
ATOM     30  N   UNL     1      -2.337  17.925  19.138  0.00  0.00    +0.000 NA
ATOM     31  C   UNL     1      -1.992  17.000  20.060  0.00  0.00    +0.000 A 
ENDBRANCH  25  26
ENDBRANCH   7  25
TORSDOF 6
ENDMDL
MODEL 6
REMARK VINA RESULT:      -6.2      0.091      1.051
REMARK  Name = 
REMARK  6 active torsions:
REMARK  status: ('A' for Active; 'I' for Inactive)
REMARK    1  A    between atoms: C_4  and  C_5
REMARK    2  A    between atoms: C_11  and  N_12
REMARK    3  A    between atoms: C_15  and  C_16
REMARK    4  A    between atoms: C_19  and  O_20
REMARK    5  A    between atoms: N_23  and  C_24
REMARK    6  A    between atoms: C_24  and  C_25
REMARK                            x       y       z     vdW  Elec       q    Type
REMARK                         _______ _______ _______ _____ _____    ______ ____
ROOT
ATOM      1  O   UNL     1      -3.528  11.464  17.509  0.00  0.00    +0.000 OA
ATOM      2  C   UNL     1      -2.786  11.377  18.486  0.00  0.00    +0.000 C 
ATOM      3  C   UNL     1      -1.818  10.220  18.560  0.00  0.00    +0.000 C 
ATOM      4  C   UNL     1      -0.788  10.244  19.690  0.00  0.00    +0.000 C 
ATOM      5  C   UNL     1      -0.420  11.681  20.052  0.00  0.00    +0.000 C 
ATOM      6  C   UNL     1      -1.658  12.519  20.419  0.00  0.00    +0.000 C 
ATOM      7  N   UNL     1      -2.820  12.287  19.523  0.00  0.00    +0.000 N 
ENDROOT
BRANCH   4   8
ATOM      8  C   UNL     1       0.424   9.407  19.281  0.00  0.00    +0.000 A 
ATOM      9  C   UNL     1       0.994   8.474  20.166  0.00  0.00    +0.000 A 
ATOM     10  C   UNL     1       2.128   7.744  19.806  0.00  0.00    +0.000 A 
ATOM     11  C   UNL     1       2.698   7.923  18.551  0.00  0.00    +0.000 A 
ATOM     12  C   UNL     1       2.131   8.825  17.652  0.00  0.00    +0.000 A 
ATOM     13  C   UNL     1       1.000   9.564  18.014  0.00  0.00    +0.000 A 
ENDBRANCH   4   8
BRANCH   6  14
ATOM     14  C   UNL     1      -1.254  14.000  20.439  0.00  0.00    +0.000 A 
ATOM     15  C   UNL     1      -0.561  14.587  19.362  0.00  0.00    +0.000 A 
ATOM     16  C   UNL     1      -0.259  15.947  19.365  0.00  0.00    +0.000 A 
ATOM     17  C   UNL     1      -0.594  16.717  20.470  0.00  0.00    +0.000 A 
ATOM     18  C   UNL     1      -1.228  16.149  21.568  0.00  0.00    +0.000 A 
ATOM     19  C   UNL     1      -1.570  14.797  21.550  0.00  0.00    +0.000 A 
BRANCH  17  20
ATOM     20  O   UNL     1      -0.319  18.048  20.518  0.00  0.00    +0.000 OA
ATOM     21  H   UNL     1      -1.055  18.536  20.110  0.00  0.00    +0.000 HD
ENDBRANCH  17  20
ENDBRANCH   6  14
BRANCH   5  22
ATOM     22  N   UNL     1       0.496  11.658  21.254  0.00  0.00    +0.000 N 
ATOM     23  O   UNL     1       0.060  11.158  22.300  0.00  0.00    +0.000 OA
ATOM     24  O   UNL     1       1.614  12.170  21.117  0.00  0.00    +0.000 OA
ENDBRANCH   5  22
BRANCH   7  25
ATOM     25  C   UNL     1      -3.959  13.225  19.567  0.00  0.00    +0.000 C 
BRANCH  25  26
ATOM     26  C   UNL     1      -5.172  12.673  20.261  0.00  0.00    +0.000 A 
ATOM     27  C   UNL     1      -6.242  12.134  19.543  0.00  0.00    +0.000 A 
ATOM     28  C   UNL     1      -7.352  11.648  20.226  0.00  0.00    +0.000 A 
ATOM     29  C   UNL     1      -7.357  11.714  21.610  0.00  0.00    +0.000 A 
ATOM     30  N   UNL     1      -6.334  12.205  22.338  0.00  0.00    +0.000 NA
ATOM     31  C   UNL     1      -5.268  12.670  21.651  0.00  0.00    +0.000 A 
ENDBRANCH  25  26
ENDBRANCH   7  25
TORSDOF 6
ENDMDL
MODEL 7
REMARK VINA RESULT:      -6.2      2.200      5.008
REMARK  Name = 
REMARK  6 active torsions:
REMARK  status: ('A' for Active; 'I' for Inactive)
REMARK    1  A    between atoms: C_4  and  C_5
REMARK    2  A    between atoms: C_11  and  N_12
REMARK    3  A    between atoms: C_15  and  C_16
REMARK    4  A    between atoms: C_19  and  O_20
REMARK    5  A    between atoms: N_23  and  C_24
REMARK    6  A    between atoms: C_24  and  C_25
REMARK                            x       y       z     vdW  Elec       q    Type
REMARK                         _______ _______ _______ _____ _____    ______ ____
ROOT
ATOM      1  O   UNL     1       1.938  13.999  21.658  0.00  0.00    +0.000 OA
ATOM      2  C   UNL     1       1.234  13.442  20.818  0.00  0.00    +0.000 C 
ATOM      3  C   UNL     1       1.799  12.258  20.068  0.00  0.00    +0.000 C 
ATOM      4  C   UNL     1       0.837  11.479  19.169  0.00  0.00    +0.000 C 
ATOM      5  C   UNL     1      -0.582  11.527  19.730  0.00  0.00    +0.000 C 
ATOM      6  C   UNL     1      -1.072  12.972  19.938  0.00  0.00    +0.000 C 
ATOM      7  N   UNL     1      -0.045  13.870  20.525  0.00  0.00    +0.000 N 
ENDROOT
BRANCH   4   8
ATOM      8  C   UNL     1       1.358  10.053  18.996  0.00  0.00    +0.000 A 
ATOM      9  C   UNL     1       1.269   9.116  20.042  0.00  0.00    +0.000 A 
ATOM     10  C   UNL     1       1.786   7.828  19.897  0.00  0.00    +0.000 A 
ATOM     11  C   UNL     1       2.384   7.451  18.700  0.00  0.00    +0.000 A 
ATOM     12  C   UNL     1       2.458   8.359  17.645  0.00  0.00    +0.000 A 
ATOM     13  C   UNL     1       1.949   9.653  17.791  0.00  0.00    +0.000 A 
ENDBRANCH   4   8
BRANCH   6  14
ATOM     14  C   UNL     1      -2.342  12.935  20.800  0.00  0.00    +0.000 A 
ATOM     15  C   UNL     1      -3.579  13.392  20.304  0.00  0.00    +0.000 A 
ATOM     16  C   UNL     1      -4.736  13.293  21.074  0.00  0.00    +0.000 A 
ATOM     17  C   UNL     1      -4.655  12.791  22.365  0.00  0.00    +0.000 A 
ATOM     18  C   UNL     1      -3.437  12.385  22.896  0.00  0.00    +0.000 A 
ATOM     19  C   UNL     1      -2.284  12.444  22.113  0.00  0.00    +0.000 A 
BRANCH  17  20
ATOM     20  O   UNL     1      -5.757  12.675  23.154  0.00  0.00    +0.000 OA
ATOM     21  H   UNL     1      -5.480  12.383  24.040  0.00  0.00    +0.000 HD
ENDBRANCH  17  20
ENDBRANCH   6  14
BRANCH   5  22
ATOM     22  N   UNL     1      -1.515  10.858  18.747  0.00  0.00    +0.000 N 
ATOM     23  O   UNL     1      -1.733  11.440  17.675  0.00  0.00    +0.000 OA
ATOM     24  O   UNL     1      -2.021   9.784  19.095  0.00  0.00    +0.000 OA
ENDBRANCH   5  22
BRANCH   7  25
ATOM     25  C   UNL     1      -0.458  15.186  21.051  0.00  0.00    +0.000 C 
BRANCH  25  26
ATOM     26  C   UNL     1      -0.730  16.207  19.983  0.00  0.00    +0.000 A 
ATOM     27  C   UNL     1      -1.915  16.945  19.963  0.00  0.00    +0.000 A 
ATOM     28  C   UNL     1      -2.133  17.868  18.946  0.00  0.00    +0.000 A 
ATOM     29  C   UNL     1      -1.154  18.027  17.978  0.00  0.00    +0.000 A 
ATOM     30  N   UNL     1       0.011  17.351  17.976  0.00  0.00    +0.000 NA
ATOM     31  C   UNL     1       0.198  16.461  18.975  0.00  0.00    +0.000 A 
ENDBRANCH  25  26
ENDBRANCH   7  25
TORSDOF 6
ENDMDL
MODEL 8
REMARK VINA RESULT:      -6.1      2.685      6.140
REMARK  Name = 
REMARK  6 active torsions:
REMARK  status: ('A' for Active; 'I' for Inactive)
REMARK    1  A    between atoms: C_4  and  C_5
REMARK    2  A    between atoms: C_11  and  N_12
REMARK    3  A    between atoms: C_15  and  C_16
REMARK    4  A    between atoms: C_19  and  O_20
REMARK    5  A    between atoms: N_23  and  C_24
REMARK    6  A    between atoms: C_24  and  C_25
REMARK                            x       y       z     vdW  Elec       q    Type
REMARK                         _______ _______ _______ _____ _____    ______ ____
ROOT
ATOM      1  O   UNL     1      -1.464  11.957  17.973  0.00  0.00    +0.000 OA
ATOM      2  C   UNL     1      -0.961  12.774  18.742  0.00  0.00    +0.000 C 
ATOM      3  C   UNL     1      -0.149  13.909  18.164  0.00  0.00    +0.000 C 
ATOM      4  C   UNL     1       0.303  15.005  19.130  0.00  0.00    +0.000 C 
ATOM      5  C   UNL     1      -0.710  15.177  20.261  0.00  0.00    +0.000 C 
ATOM      6  C   UNL     1      -0.969  13.857  21.008  0.00  0.00    +0.000 C 
ATOM      7  N   UNL     1      -1.098  12.680  20.111  0.00  0.00    +0.000 N 
ENDROOT
BRANCH   4   8
ATOM      8  C   UNL     1       0.542  16.295  18.347  0.00  0.00    +0.000 A 
ATOM      9  C   UNL     1      -0.534  17.088  17.908  0.00  0.00    +0.000 A 
ATOM     10  C   UNL     1      -0.314  18.242  17.155  0.00  0.00    +0.000 A 
ATOM     11  C   UNL     1       0.983  18.631  16.844  0.00  0.00    +0.000 A 
ATOM     12  C   UNL     1       2.062  17.871  17.293  0.00  0.00    +0.000 A 
ATOM     13  C   UNL     1       1.844  16.710  18.041  0.00  0.00    +0.000 A 
ENDBRANCH   4   8
BRANCH   6  14
ATOM     14  C   UNL     1      -2.218  14.033  21.885  0.00  0.00    +0.000 A 
ATOM     15  C   UNL     1      -2.177  13.805  23.275  0.00  0.00    +0.000 A 
ATOM     16  C   UNL     1      -3.300  14.031  24.068  0.00  0.00    +0.000 A 
ATOM     17  C   UNL     1      -4.488  14.429  23.470  0.00  0.00    +0.000 A 
ATOM     18  C   UNL     1      -4.568  14.606  22.094  0.00  0.00    +0.000 A 
ATOM     19  C   UNL     1      -3.434  14.422  21.302  0.00  0.00    +0.000 A 
BRANCH  17  20
ATOM     20  O   UNL     1      -5.610  14.661  24.202  0.00  0.00    +0.000 OA
ATOM     21  H   UNL     1      -5.989  15.516  23.933  0.00  0.00    +0.000 HD
ENDBRANCH  17  20
ENDBRANCH   6  14
BRANCH   5  22
ATOM     22  N   UNL     1      -0.161  16.173  21.255  0.00  0.00    +0.000 N 
ATOM     23  O   UNL     1      -0.815  17.206  21.454  0.00  0.00    +0.000 OA
ATOM     24  O   UNL     1       0.924  15.900  21.783  0.00  0.00    +0.000 OA
ENDBRANCH   5  22
BRANCH   7  25
ATOM     25  C   UNL     1      -1.639  11.418  20.656  0.00  0.00    +0.000 C 
BRANCH  25  26
ATOM     26  C   UNL     1      -0.607  10.556  21.325  0.00  0.00    +0.000 A 
ATOM     27  C   UNL     1       0.238   9.724  20.588  0.00  0.00    +0.000 A 
ATOM     28  C   UNL     1       1.169   8.930  21.249  0.00  0.00    +0.000 A 
ATOM     29  C   UNL     1       1.229   8.996  22.632  0.00  0.00    +0.000 A 
ATOM     30  N   UNL     1       0.447   9.803  23.376  0.00  0.00    +0.000 NA
ATOM     31  C   UNL     1      -0.448  10.564  22.709  0.00  0.00    +0.000 A 
ENDBRANCH  25  26
ENDBRANCH   7  25
TORSDOF 6
ENDMDL
MODEL 9
REMARK VINA RESULT:      -6.1      2.105      4.946
REMARK  Name = 
REMARK  6 active torsions:
REMARK  status: ('A' for Active; 'I' for Inactive)
REMARK    1  A    between atoms: C_4  and  C_5
REMARK    2  A    between atoms: C_11  and  N_12
REMARK    3  A    between atoms: C_15  and  C_16
REMARK    4  A    between atoms: C_19  and  O_20
REMARK    5  A    between atoms: N_23  and  C_24
REMARK    6  A    between atoms: C_24  and  C_25
REMARK                            x       y       z     vdW  Elec       q    Type
REMARK                         _______ _______ _______ _____ _____    ______ ____
ROOT
ATOM      1  O   UNL     1       1.218  14.057  21.963  0.00  0.00    +0.000 OA
ATOM      2  C   UNL     1       0.658  13.508  21.017  0.00  0.00    +0.000 C 
ATOM      3  C   UNL     1       1.372  12.385  20.303  0.00  0.00    +0.000 C 
ATOM      4  C   UNL     1       0.575  11.606  19.255  0.00  0.00    +0.000 C 
ATOM      5  C   UNL     1      -0.906  11.568  19.626  0.00  0.00    +0.000 C 
ATOM      6  C   UNL     1      -1.488  12.979  19.822  0.00  0.00    +0.000 C 
ATOM      7  N   UNL     1      -0.591  13.893  20.573  0.00  0.00    +0.000 N 
ENDROOT
BRANCH   4   8
ATOM      8  C   UNL     1       1.183  10.212  19.099  0.00  0.00    +0.000 A 
ATOM      9  C   UNL     1       1.775   9.809  17.888  0.00  0.00    +0.000 A 
ATOM     10  C   UNL     1       2.288   8.521  17.734  0.00  0.00    +0.000 A 
ATOM     11  C   UNL     1       2.233   7.621  18.792  0.00  0.00    +0.000 A 
ATOM     12  C   UNL     1       1.674   8.013  20.007  0.00  0.00    +0.000 A 
ATOM     13  C   UNL     1       1.151   9.300  20.162  0.00  0.00    +0.000 A 
ENDBRANCH   4   8
BRANCH   6  14
ATOM     14  C   UNL     1      -2.857  12.849  20.507  0.00  0.00    +0.000 A 
ATOM     15  C   UNL     1      -4.054  12.880  19.765  0.00  0.00    +0.000 A 
ATOM     16  C   UNL     1      -5.285  12.696  20.391  0.00  0.00    +0.000 A 
ATOM     17  C   UNL     1      -5.332  12.539  21.770  0.00  0.00    +0.000 A 
ATOM     18  C   UNL     1      -4.169  12.561  22.529  0.00  0.00    +0.000 A 
ATOM     19  C   UNL     1      -2.932  12.703  21.900  0.00  0.00    +0.000 A 
BRANCH  17  20
ATOM     20  O   UNL     1      -6.510  12.357  22.424  0.00  0.00    +0.000 OA
ATOM     21  H   UNL     1      -6.968  13.213  22.490  0.00  0.00    +0.000 HD
ENDBRANCH  17  20
ENDBRANCH   6  14
BRANCH   5  22
ATOM     22  N   UNL     1      -1.669  10.903  18.503  0.00  0.00    +0.000 N 
ATOM     23  O   UNL     1      -2.131   9.773  18.713  0.00  0.00    +0.000 OA
ATOM     24  O   UNL     1      -1.754  11.526  17.437  0.00  0.00    +0.000 OA
ENDBRANCH   5  22
BRANCH   7  25
ATOM     25  C   UNL     1      -1.133  15.166  21.091  0.00  0.00    +0.000 C 
BRANCH  25  26
ATOM     26  C   UNL     1      -1.279  16.232  20.042  0.00  0.00    +0.000 A 
ATOM     27  C   UNL     1      -2.324  17.157  20.082  0.00  0.00    +0.000 A 
ATOM     28  C   UNL     1      -2.432  18.117  19.082  0.00  0.00    +0.000 A 
ATOM     29  C   UNL     1      -1.486  18.124  18.070  0.00  0.00    +0.000 A 
ATOM     30  N   UNL     1      -0.450  17.263  18.009  0.00  0.00    +0.000 NA
ATOM     31  C   UNL     1      -0.369  16.341  18.993  0.00  0.00    +0.000 A 
ENDBRANCH  25  26
ENDBRANCH   7  25
TORSDOF 6
ENDMDL
