MODEL 1
REMARK VINA RESULT:      -7.8      0.000      0.000
REMARK  Name = 
REMARK  7 active torsions:
REMARK  status: ('A' for Active; 'I' for Inactive)
REMARK    1  A    between atoms: C_1  and  C_2
REMARK    2  A    between atoms: C_2  and  O_3
REMARK    3  A    between atoms: O_3  and  C_4
REMARK    4  A    between atoms: C_9  and  N_10
REMARK    5  A    between atoms: C_11  and  C_13
REMARK    6  A    between atoms: N_22  and  S_23
REMARK    7  A    between atoms: S_23  and  C_24
REMARK                            x       y       z     vdW  Elec       q    Type
REMARK                         _______ _______ _______ _____ _____    ______ ____
ROOT
ATOM      1  C   UNL     1       3.227   5.481  19.275  0.00  0.00    +0.000 C 
ATOM      2  C   UNL     1       3.729   6.485  18.235  0.00  0.00    +0.000 C 
ATOM      3  C   UNL     1       4.810   5.774  17.471  0.00  0.00    +0.000 A 
ATOM      4  C   UNL     1       6.146   6.156  17.505  0.00  0.00    +0.000 A 
ATOM      5  C   UNL     1       7.082   5.424  16.781  0.00  0.00    +0.000 A 
ATOM      6  C   UNL     1       6.668   4.362  15.972  0.00  0.00    +0.000 A 
ATOM      7  C   UNL     1       5.337   3.942  15.985  0.00  0.00    +0.000 A 
ATOM      8  C   UNL     1       4.425   4.590  16.818  0.00  0.00    +0.000 A 
ATOM      9  C   UNL     1       3.055   4.040  17.156  0.00  0.00    +0.000 C 
ATOM     10  N   UNL     1       2.722   4.225  18.608  0.00  0.00    +0.000 NA
ENDROOT
BRANCH   1  12
ATOM     11  N   UNL     1       2.334   7.567  20.227  0.00  0.00    +0.000 N 
ATOM     12  C   UNL     1       2.165   6.185  20.120  0.00  0.00    +0.000 C 
ATOM     13  O   UNL     1       1.212   5.542  20.576  0.00  0.00    +0.000 OA
ATOM     14  H   UNL     1       3.278   7.939  20.174  0.00  0.00    +0.000 HD
BRANCH  11  20
ATOM     15  C   UNL     1       0.671   9.337  19.792  0.00  0.00    +0.000 A 
ATOM     16  C   UNL     1      -0.262  10.261  20.300  0.00  0.00    +0.000 A 
ATOM     17  C   UNL     1      -0.525  10.349  21.663  0.00  0.00    +0.000 A 
ATOM     18  C   UNL     1       0.122   9.498  22.544  0.00  0.00    +0.000 A 
ATOM     19  C   UNL     1       1.050   8.575  22.059  0.00  0.00    +0.000 A 
ATOM     20  C   UNL     1       1.357   8.491  20.698  0.00  0.00    +0.000 A 
BRANCH  15  21
ATOM     21  O   UNL     1       0.944   9.213  18.436  0.00  0.00    +0.000 OA
BRANCH  21  23
ATOM     22  C   UNL     1       1.999  11.414  18.224  0.00  0.00    +0.000 C 
ATOM     23  C   UNL     1       2.115   9.919  17.988  0.00  0.00    +0.000 C 
ENDBRANCH  21  23
ENDBRANCH  15  21
ENDBRANCH  11  20
ENDBRANCH   1  12
BRANCH  10  24
ATOM     24  S   UNL     1       2.710   2.850  19.585  0.00  0.00    +0.000 S 
ATOM     25  C   UNL     1       3.437   1.607  18.539  0.00  0.00    +0.000 C 
ATOM     26  O   UNL     1       3.641   3.085  20.671  0.00  0.00    +0.000 OA
ATOM     27  O   UNL     1       1.342   2.480  19.834  0.00  0.00    +0.000 OA
ENDBRANCH  10  24
TORSDOF 5
ENDMDL
MODEL 2
REMARK VINA RESULT:      -7.6      2.810      8.060
REMARK  Name = 
REMARK  7 active torsions:
REMARK  status: ('A' for Active; 'I' for Inactive)
REMARK    1  A    between atoms: C_1  and  C_2
REMARK    2  A    between atoms: C_2  and  O_3
REMARK    3  A    between atoms: O_3  and  C_4
REMARK    4  A    between atoms: C_9  and  N_10
REMARK    5  A    between atoms: C_11  and  C_13
REMARK    6  A    between atoms: N_22  and  S_23
REMARK    7  A    between atoms: S_23  and  C_24
REMARK                            x       y       z     vdW  Elec       q    Type
REMARK                         _______ _______ _______ _____ _____    ______ ____
ROOT
ATOM      1  C   UNL     1       0.075   9.956  19.306  0.00  0.00    +0.000 C 
ATOM      2  C   UNL     1      -0.422  11.012  18.316  0.00  0.00    +0.000 C 
ATOM      3  C   UNL     1      -1.682  11.572  18.915  0.00  0.00    +0.000 A 
ATOM      4  C   UNL     1      -2.938  11.409  18.342  0.00  0.00    +0.000 A 
ATOM      5  C   UNL     1      -4.052  11.945  18.980  0.00  0.00    +0.000 A 
ATOM      6  C   UNL     1      -3.897  12.701  20.144  0.00  0.00    +0.000 A 
ATOM      7  C   UNL     1      -2.644  12.814  20.752  0.00  0.00    +0.000 A 
ATOM      8  C   UNL     1      -1.550  12.160  20.185  0.00  0.00    +0.000 A 
ATOM      9  C   UNL     1      -0.234  11.945  20.903  0.00  0.00    +0.000 C 
ATOM     10  N   UNL     1       0.313  10.567  20.666  0.00  0.00    +0.000 NA
ENDROOT
BRANCH   1  12
ATOM     11  N   UNL     1       1.748   8.153  19.358  0.00  0.00    +0.000 N 
ATOM     12  C   UNL     1       1.325   9.314  18.706  0.00  0.00    +0.000 C 
ATOM     13  O   UNL     1       1.827   9.781  17.678  0.00  0.00    +0.000 OA
ATOM     14  H   UNL     1       1.549   8.063  20.350  0.00  0.00    +0.000 HD
BRANCH  11  20
ATOM     15  C   UNL     1       2.848   5.948  19.479  0.00  0.00    +0.000 A 
ATOM     16  C   UNL     1       3.811   5.056  18.971  0.00  0.00    +0.000 A 
ATOM     17  C   UNL     1       4.595   5.387  17.869  0.00  0.00    +0.000 A 
ATOM     18  C   UNL     1       4.413   6.606  17.239  0.00  0.00    +0.000 A 
ATOM     19  C   UNL     1       3.462   7.504  17.727  0.00  0.00    +0.000 A 
ATOM     20  C   UNL     1       2.688   7.209  18.853  0.00  0.00    +0.000 A 
BRANCH  15  21
ATOM     21  O   UNL     1       2.039   5.641  20.566  0.00  0.00    +0.000 OA
BRANCH  21  23
ATOM     22  C   UNL     1       1.807   3.387  21.498  0.00  0.00    +0.000 C 
ATOM     23  C   UNL     1       1.336   4.390  20.461  0.00  0.00    +0.000 C 
ENDBRANCH  21  23
ENDBRANCH  15  21
ENDBRANCH  11  20
ENDBRANCH   1  12
BRANCH  10  24
ATOM     24  S   UNL     1       0.269   9.480  21.956  0.00  0.00    +0.000 S 
ATOM     25  C   UNL     1      -0.751  10.316  23.151  0.00  0.00    +0.000 C 
ATOM     26  O   UNL     1      -0.468   8.314  21.513  0.00  0.00    +0.000 OA
ATOM     27  O   UNL     1       1.596   9.369  22.502  0.00  0.00    +0.000 OA
ENDBRANCH  10  24
TORSDOF 5
ENDMDL
MODEL 3
REMARK VINA RESULT:      -7.6      2.416      7.035
REMARK  Name = 
REMARK  7 active torsions:
REMARK  status: ('A' for Active; 'I' for Inactive)
REMARK    1  A    between atoms: C_1  and  C_2
REMARK    2  A    between atoms: C_2  and  O_3
REMARK    3  A    between atoms: O_3  and  C_4
REMARK    4  A    between atoms: C_9  and  N_10
REMARK    5  A    between atoms: C_11  and  C_13
REMARK    6  A    between atoms: N_22  and  S_23
REMARK    7  A    between atoms: S_23  and  C_24
REMARK                            x       y       z     vdW  Elec       q    Type
REMARK                         _______ _______ _______ _____ _____    ______ ____
ROOT
ATOM      1  C   UNL     1       3.302   5.057  17.506  0.00  0.00    +0.000 C 
ATOM      2  C   UNL     1       3.924   6.431  17.765  0.00  0.00    +0.000 C 
ATOM      3  C   UNL     1       2.942   7.165  18.636  0.00  0.00    +0.000 A 
ATOM      4  C   UNL     1       2.252   8.298  18.220  0.00  0.00    +0.000 A 
ATOM      5  C   UNL     1       1.345   8.898  19.088  0.00  0.00    +0.000 A 
ATOM      6  C   UNL     1       1.189   8.409  20.387  0.00  0.00    +0.000 A 
ATOM      7  C   UNL     1       1.837   7.238  20.784  0.00  0.00    +0.000 A 
ATOM      8  C   UNL     1       2.639   6.558  19.867  0.00  0.00    +0.000 A 
ATOM      9  C   UNL     1       3.130   5.139  20.067  0.00  0.00    +0.000 C 
ATOM     10  N   UNL     1       3.040   4.333  18.804  0.00  0.00    +0.000 NA
ENDROOT
BRANCH   1  12
ATOM     11  N   UNL     1       4.460   4.918  15.338  0.00  0.00    +0.000 N 
ATOM     12  C   UNL     1       4.241   4.296  16.570  0.00  0.00    +0.000 C 
ATOM     13  O   UNL     1       4.797   3.262  16.959  0.00  0.00    +0.000 OA
ATOM     14  H   UNL     1       3.720   5.502  14.960  0.00  0.00    +0.000 HD
BRANCH  11  20
ATOM     15  C   UNL     1       6.806   5.080  14.593  0.00  0.00    +0.000 A 
ATOM     16  C   UNL     1       7.788   4.761  13.636  0.00  0.00    +0.000 A 
ATOM     17  C   UNL     1       7.490   3.972  12.529  0.00  0.00    +0.000 A 
ATOM     18  C   UNL     1       6.212   3.466  12.370  0.00  0.00    +0.000 A 
ATOM     19  C   UNL     1       5.224   3.770  13.309  0.00  0.00    +0.000 A 
ATOM     20  C   UNL     1       5.489   4.589  14.410  0.00  0.00    +0.000 A 
BRANCH  15  21
ATOM     21  O   UNL     1       7.074   5.850  15.717  0.00  0.00    +0.000 OA
BRANCH  21  23
ATOM     22  C   UNL     1       7.515   5.929  18.126  0.00  0.00    +0.000 C 
ATOM     23  C   UNL     1       7.578   5.115  16.847  0.00  0.00    +0.000 C 
ENDBRANCH  21  23
ENDBRANCH  15  21
ENDBRANCH  11  20
ENDBRANCH   1  12
BRANCH  10  24
ATOM     24  S   UNL     1       1.854   3.135  18.729  0.00  0.00    +0.000 S 
ATOM     25  C   UNL     1       0.977   3.340  20.264  0.00  0.00    +0.000 C 
ATOM     26  O   UNL     1       0.938   3.501  17.667  0.00  0.00    +0.000 OA
ATOM     27  O   UNL     1       2.503   1.851  18.753  0.00  0.00    +0.000 OA
ENDBRANCH  10  24
TORSDOF 5
ENDMDL
MODEL 4
REMARK VINA RESULT:      -7.4      2.891      7.820
REMARK  Name = 
REMARK  7 active torsions:
REMARK  status: ('A' for Active; 'I' for Inactive)
REMARK    1  A    between atoms: C_1  and  C_2
REMARK    2  A    between atoms: C_2  and  O_3
REMARK    3  A    between atoms: O_3  and  C_4
REMARK    4  A    between atoms: C_9  and  N_10
REMARK    5  A    between atoms: C_11  and  C_13
REMARK    6  A    between atoms: N_22  and  S_23
REMARK    7  A    between atoms: S_23  and  C_24
REMARK                            x       y       z     vdW  Elec       q    Type
REMARK                         _______ _______ _______ _____ _____    ______ ____
ROOT
ATOM      1  C   UNL     1       0.391   9.507  19.219  0.00  0.00    +0.000 C 
ATOM      2  C   UNL     1      -0.159  10.129  17.934  0.00  0.00    +0.000 C 
ATOM      3  C   UNL     1      -1.497  10.707  18.300  0.00  0.00    +0.000 A 
ATOM      4  C   UNL     1      -2.699  10.230  17.790  0.00  0.00    +0.000 A 
ATOM      5  C   UNL     1      -3.892  10.814  18.204  0.00  0.00    +0.000 A 
ATOM      6  C   UNL     1      -3.873  11.915  19.064  0.00  0.00    +0.000 A 
ATOM      7  C   UNL     1      -2.671  12.355  19.621  0.00  0.00    +0.000 A 
ATOM      8  C   UNL     1      -1.490  11.681  19.313  0.00  0.00    +0.000 A 
ATOM      9  C   UNL     1      -0.196  11.854  20.083  0.00  0.00    +0.000 C 
ATOM     10  N   UNL     1       0.497  10.543  20.313  0.00  0.00    +0.000 NA
ENDROOT
BRANCH   1  12
ATOM     11  N   UNL     1       1.892   7.566  19.404  0.00  0.00    +0.000 N 
ATOM     12  C   UNL     1       1.729   8.850  18.879  0.00  0.00    +0.000 C 
ATOM     13  O   UNL     1       2.525   9.423  18.126  0.00  0.00    +0.000 OA
ATOM     14  H   UNL     1       1.415   7.341  20.272  0.00  0.00    +0.000 HD
BRANCH  11  20
ATOM     15  C   UNL     1       3.120   5.460  19.783  0.00  0.00    +0.000 A 
ATOM     16  C   UNL     1       4.139   4.574  19.385  0.00  0.00    +0.000 A 
ATOM     17  C   UNL     1       4.912   4.822  18.256  0.00  0.00    +0.000 A 
ATOM     18  C   UNL     1       4.666   5.947  17.488  0.00  0.00    +0.000 A 
ATOM     19  C   UNL     1       3.659   6.837  17.865  0.00  0.00    +0.000 A 
ATOM     20  C   UNL     1       2.892   6.628  19.015  0.00  0.00    +0.000 A 
BRANCH  15  21
ATOM     21  O   UNL     1       2.319   5.233  20.896  0.00  0.00    +0.000 OA
BRANCH  21  23
ATOM     22  C   UNL     1       1.009   3.180  20.631  0.00  0.00    +0.000 C 
ATOM     23  C   UNL     1       2.202   3.853  21.284  0.00  0.00    +0.000 C 
ENDBRANCH  21  23
ENDBRANCH  15  21
ENDBRANCH  11  20
ENDBRANCH   1  12
BRANCH  10  24
ATOM     24  S   UNL     1       0.498   9.928  21.884  0.00  0.00    +0.000 S 
ATOM     25  C   UNL     1      -0.600   8.532  21.770  0.00  0.00    +0.000 C 
ATOM     26  O   UNL     1       1.824   9.402  22.141  0.00  0.00    +0.000 OA
ATOM     27  O   UNL     1      -0.106  10.902  22.754  0.00  0.00    +0.000 OA
ENDBRANCH  10  24
TORSDOF 5
ENDMDL
MODEL 5
REMARK VINA RESULT:      -7.2      2.714      7.587
REMARK  Name = 
REMARK  7 active torsions:
REMARK  status: ('A' for Active; 'I' for Inactive)
REMARK    1  A    between atoms: C_1  and  C_2
REMARK    2  A    between atoms: C_2  and  O_3
REMARK    3  A    between atoms: O_3  and  C_4
REMARK    4  A    between atoms: C_9  and  N_10
REMARK    5  A    between atoms: C_11  and  C_13
REMARK    6  A    between atoms: N_22  and  S_23
REMARK    7  A    between atoms: S_23  and  C_24
REMARK                            x       y       z     vdW  Elec       q    Type
REMARK                         _______ _______ _______ _____ _____    ______ ____
ROOT
ATOM      1  C   UNL     1       0.752   8.963  19.205  0.00  0.00    +0.000 C 
ATOM      2  C   UNL     1       0.402   9.673  17.896  0.00  0.00    +0.000 C 
ATOM      3  C   UNL     1      -0.897  10.383  18.151  0.00  0.00    +0.000 A 
ATOM      4  C   UNL     1      -2.086  10.052  17.510  0.00  0.00    +0.000 A 
ATOM      5  C   UNL     1      -3.247  10.751  17.826  0.00  0.00    +0.000 A 
ATOM      6  C   UNL     1      -3.198  11.821  18.723  0.00  0.00    +0.000 A 
ATOM      7  C   UNL     1      -2.019  12.115  19.410  0.00  0.00    +0.000 A 
ATOM      8  C   UNL     1      -0.890  11.324  19.194  0.00  0.00    +0.000 A 
ATOM      9  C   UNL     1       0.331  11.338  20.092  0.00  0.00    +0.000 C 
ATOM     10  N   UNL     1       0.856   9.953  20.341  0.00  0.00    +0.000 NA
ENDROOT
BRANCH   1  12
ATOM     11  N   UNL     1       2.164   7.025  19.758  0.00  0.00    +0.000 N 
ATOM     12  C   UNL     1       2.041   8.174  18.973  0.00  0.00    +0.000 C 
ATOM     13  O   UNL     1       2.831   8.528  18.091  0.00  0.00    +0.000 OA
ATOM     14  H   UNL     1       1.713   7.018  20.668  0.00  0.00    +0.000 HD
BRANCH  11  20
ATOM     15  C   UNL     1       2.745   4.629  19.833  0.00  0.00    +0.000 A 
ATOM     16  C   UNL     1       3.708   3.619  19.646  0.00  0.00    +0.000 A 
ATOM     17  C   UNL     1       4.986   3.915  19.184  0.00  0.00    +0.000 A 
ATOM     18  C   UNL     1       5.320   5.222  18.875  0.00  0.00    +0.000 A 
ATOM     19  C   UNL     1       4.378   6.238  19.053  0.00  0.00    +0.000 A 
ATOM     20  C   UNL     1       3.099   5.971  19.549  0.00  0.00    +0.000 A 
BRANCH  15  21
ATOM     21  O   UNL     1       1.455   4.365  20.277  0.00  0.00    +0.000 OA
BRANCH  21  23
ATOM     22  C   UNL     1       0.606   2.537  18.883  0.00  0.00    +0.000 C 
ATOM     23  C   UNL     1       1.082   2.975  20.256  0.00  0.00    +0.000 C 
ENDBRANCH  21  23
ENDBRANCH  15  21
ENDBRANCH  11  20
ENDBRANCH   1  12
BRANCH  10  24
ATOM     24  S   UNL     1       0.634   9.302  21.881  0.00  0.00    +0.000 S 
ATOM     25  C   UNL     1      -0.488  10.452  22.646  0.00  0.00    +0.000 C 
ATOM     26  O   UNL     1      -0.084   8.053  21.722  0.00  0.00    +0.000 OA
ATOM     27  O   UNL     1       1.887   9.364  22.586  0.00  0.00    +0.000 OA
ENDBRANCH  10  24
TORSDOF 5
ENDMDL
MODEL 6
REMARK VINA RESULT:      -7.1      3.308      8.233
REMARK  Name = 
REMARK  7 active torsions:
REMARK  status: ('A' for Active; 'I' for Inactive)
REMARK    1  A    between atoms: C_1  and  C_2
REMARK    2  A    between atoms: C_2  and  O_3
REMARK    3  A    between atoms: O_3  and  C_4
REMARK    4  A    between atoms: C_9  and  N_10
REMARK    5  A    between atoms: C_11  and  C_13
REMARK    6  A    between atoms: N_22  and  S_23
REMARK    7  A    between atoms: S_23  and  C_24
REMARK                            x       y       z     vdW  Elec       q    Type
REMARK                         _______ _______ _______ _____ _____    ______ ____
ROOT
ATOM      1  C   UNL     1      -0.138   9.984  18.867  0.00  0.00    +0.000 C 
ATOM      2  C   UNL     1      -0.876  10.018  17.528  0.00  0.00    +0.000 C 
ATOM      3  C   UNL     1      -2.271  10.482  17.842  0.00  0.00    +0.000 A 
ATOM      4  C   UNL     1      -3.396   9.681  17.681  0.00  0.00    +0.000 A 
ATOM      5  C   UNL     1      -4.646  10.189  18.019  0.00  0.00    +0.000 A 
ATOM      6  C   UNL     1      -4.773  11.514  18.445  0.00  0.00    +0.000 A 
ATOM      7  C   UNL     1      -3.638  12.298  18.663  0.00  0.00    +0.000 A 
ATOM      8  C   UNL     1      -2.376  11.742  18.456  0.00  0.00    +0.000 A 
ATOM      9  C   UNL     1      -1.089  12.369  18.951  0.00  0.00    +0.000 C 
ATOM     10  N   UNL     1      -0.152  11.344  19.522  0.00  0.00    +0.000 NA
ENDROOT
BRANCH   1  12
ATOM     11  N   UNL     1       1.507   8.167  19.088  0.00  0.00    +0.000 N 
ATOM     12  C   UNL     1       1.273   9.456  18.604  0.00  0.00    +0.000 C 
ATOM     13  O   UNL     1       2.069  10.127  17.938  0.00  0.00    +0.000 OA
ATOM     14  H   UNL     1       0.989   7.863  19.907  0.00  0.00    +0.000 HD
BRANCH  11  20
ATOM     15  C   UNL     1       2.914   6.184  19.508  0.00  0.00    +0.000 A 
ATOM     16  C   UNL     1       4.030   5.405  19.152  0.00  0.00    +0.000 A 
ATOM     17  C   UNL     1       4.827   5.739  18.060  0.00  0.00    +0.000 A 
ATOM     18  C   UNL     1       4.507   6.843  17.289  0.00  0.00    +0.000 A 
ATOM     19  C   UNL     1       3.403   7.628  17.626  0.00  0.00    +0.000 A 
ATOM     20  C   UNL     1       2.609   7.334  18.739  0.00  0.00    +0.000 A 
BRANCH  15  21
ATOM     21  O   UNL     1       2.089   5.869  20.582  0.00  0.00    +0.000 OA
BRANCH  21  23
ATOM     22  C   UNL     1       1.009   3.673  20.478  0.00  0.00    +0.000 C 
ATOM     23  C   UNL     1       2.162   4.500  21.016  0.00  0.00    +0.000 C 
ENDBRANCH  21  23
ENDBRANCH  15  21
ENDBRANCH  11  20
ENDBRANCH   1  12
BRANCH  10  24
ATOM     24  S   UNL     1       0.066  11.336  21.195  0.00  0.00    +0.000 S 
ATOM     25  C   UNL     1      -1.042  12.613  21.751  0.00  0.00    +0.000 C 
ATOM     26  O   UNL     1      -0.457  10.078  21.692  0.00  0.00    +0.000 OA
ATOM     27  O   UNL     1       1.412  11.756  21.481  0.00  0.00    +0.000 OA
ENDBRANCH  10  24
TORSDOF 5
ENDMDL
MODEL 7
REMARK VINA RESULT:      -7.1      2.915      7.814
REMARK  Name = 
REMARK  7 active torsions:
REMARK  status: ('A' for Active; 'I' for Inactive)
REMARK    1  A    between atoms: C_1  and  C_2
REMARK    2  A    between atoms: C_2  and  O_3
REMARK    3  A    between atoms: O_3  and  C_4
REMARK    4  A    between atoms: C_9  and  N_10
REMARK    5  A    between atoms: C_11  and  C_13
REMARK    6  A    between atoms: N_22  and  S_23
REMARK    7  A    between atoms: S_23  and  C_24
REMARK                            x       y       z     vdW  Elec       q    Type
REMARK                         _______ _______ _______ _____ _____    ______ ____
ROOT
ATOM      1  C   UNL     1       0.151   9.488  19.105  0.00  0.00    +0.000 C 
ATOM      2  C   UNL     1      -0.251  10.288  17.865  0.00  0.00    +0.000 C 
ATOM      3  C   UNL     1      -1.653  10.764  18.123  0.00  0.00    +0.000 A 
ATOM      4  C   UNL     1      -2.750  10.340  17.382  0.00  0.00    +0.000 A 
ATOM      5  C   UNL     1      -4.016  10.817  17.707  0.00  0.00    +0.000 A 
ATOM      6  C   UNL     1      -4.168  11.769  18.718  0.00  0.00    +0.000 A 
ATOM      7  C   UNL     1      -3.075  12.149  19.501  0.00  0.00    +0.000 A 
ATOM      8  C   UNL     1      -1.831  11.565  19.263  0.00  0.00    +0.000 A 
ATOM      9  C   UNL     1      -0.664  11.651  20.225  0.00  0.00    +0.000 C 
ATOM     10  N   UNL     1       0.057  10.340  20.347  0.00  0.00    +0.000 NA
ENDROOT
BRANCH   1  12
ATOM     11  N   UNL     1       1.723   7.600  19.253  0.00  0.00    +0.000 N 
ATOM     12  C   UNL     1       1.553   8.930  18.861  0.00  0.00    +0.000 C 
ATOM     13  O   UNL     1       2.401   9.621  18.283  0.00  0.00    +0.000 OA
ATOM     14  H   UNL     1       1.160   7.254  20.023  0.00  0.00    +0.000 HD
BRANCH  11  20
ATOM     15  C   UNL     1       3.141   5.626  19.673  0.00  0.00    +0.000 A 
ATOM     16  C   UNL     1       4.244   4.836  19.298  0.00  0.00    +0.000 A 
ATOM     17  C   UNL     1       5.002   5.141  18.172  0.00  0.00    +0.000 A 
ATOM     18  C   UNL     1       4.658   6.227  17.385  0.00  0.00    +0.000 A 
ATOM     19  C   UNL     1       3.567   7.022  17.741  0.00  0.00    +0.000 A 
ATOM     20  C   UNL     1       2.811   6.757  18.887  0.00  0.00    +0.000 A 
BRANCH  15  21
ATOM     21  O   UNL     1       2.354   5.339  20.782  0.00  0.00    +0.000 OA
BRANCH  21  23
ATOM     22  C   UNL     1       1.762   3.091  21.556  0.00  0.00    +0.000 C 
ATOM     23  C   UNL     1       1.448   4.234  20.609  0.00  0.00    +0.000 C 
ENDBRANCH  21  23
ENDBRANCH  15  21
ENDBRANCH  11  20
ENDBRANCH   1  12
BRANCH  10  24
ATOM     24  S   UNL     1      -0.124   9.485  21.791  0.00  0.00    +0.000 S 
ATOM     25  C   UNL     1       1.546   9.351  22.391  0.00  0.00    +0.000 C 
ATOM     26  O   UNL     1      -0.837  10.345  22.715  0.00  0.00    +0.000 OA
ATOM     27  O   UNL     1      -0.595   8.161  21.479  0.00  0.00    +0.000 OA
ENDBRANCH  10  24
TORSDOF 5
ENDMDL
MODEL 8
REMARK VINA RESULT:      -7.1      1.850      2.377
REMARK  Name = 
REMARK  7 active torsions:
REMARK  status: ('A' for Active; 'I' for Inactive)
REMARK    1  A    between atoms: C_1  and  C_2
REMARK    2  A    between atoms: C_2  and  O_3
REMARK    3  A    between atoms: O_3  and  C_4
REMARK    4  A    between atoms: C_9  and  N_10
REMARK    5  A    between atoms: C_11  and  C_13
REMARK    6  A    between atoms: N_22  and  S_23
REMARK    7  A    between atoms: S_23  and  C_24
REMARK                            x       y       z     vdW  Elec       q    Type
REMARK                         _______ _______ _______ _____ _____    ______ ____
ROOT
ATOM      1  C   UNL     1       2.885   6.983  18.901  0.00  0.00    +0.000 C 
ATOM      2  C   UNL     1       3.584   7.499  17.641  0.00  0.00    +0.000 C 
ATOM      3  C   UNL     1       4.632   6.475  17.308  0.00  0.00    +0.000 A 
ATOM      4  C   UNL     1       5.997   6.735  17.363  0.00  0.00    +0.000 A 
ATOM      5  C   UNL     1       6.896   5.718  17.058  0.00  0.00    +0.000 A 
ATOM      6  C   UNL     1       6.427   4.473  16.630  0.00  0.00    +0.000 A 
ATOM      7  C   UNL     1       5.059   4.194  16.633  0.00  0.00    +0.000 A 
ATOM      8  C   UNL     1       4.165   5.171  17.072  0.00  0.00    +0.000 A 
ATOM      9  C   UNL     1       2.717   4.892  17.418  0.00  0.00    +0.000 C 
ATOM     10  N   UNL     1       2.291   5.616  18.662  0.00  0.00    +0.000 NA
ENDROOT
BRANCH   1  12
ATOM     11  N   UNL     1       1.518   8.942  18.310  0.00  0.00    +0.000 N 
ATOM     12  C   UNL     1       1.847   8.028  19.313  0.00  0.00    +0.000 C 
ATOM     13  O   UNL     1       1.317   7.965  20.428  0.00  0.00    +0.000 OA
ATOM     14  H   UNL     1       2.225   9.167  17.617  0.00  0.00    +0.000 HD
BRANCH  11  20
ATOM     15  C   UNL     1       0.450  11.046  19.032  0.00  0.00    +0.000 A 
ATOM     16  C   UNL     1      -0.690  11.872  19.046  0.00  0.00    +0.000 A 
ATOM     17  C   UNL     1      -1.853  11.512  18.373  0.00  0.00    +0.000 A 
ATOM     18  C   UNL     1      -1.892  10.332  17.651  0.00  0.00    +0.000 A 
ATOM     19  C   UNL     1      -0.771   9.499  17.624  0.00  0.00    +0.000 A 
ATOM     20  C   UNL     1       0.397   9.822  18.321  0.00  0.00    +0.000 A 
BRANCH  15  21
ATOM     21  O   UNL     1       1.632  11.384  19.680  0.00  0.00    +0.000 OA
BRANCH  21  23
ATOM     22  C   UNL     1       2.642  13.000  18.140  0.00  0.00    +0.000 C 
ATOM     23  C   UNL     1       2.041  12.753  19.512  0.00  0.00    +0.000 C 
ENDBRANCH  21  23
ENDBRANCH  15  21
ENDBRANCH  11  20
ENDBRANCH   1  12
BRANCH  10  24
ATOM     24  S   UNL     1       2.039   4.692  20.052  0.00  0.00    +0.000 S 
ATOM     25  C   UNL     1       2.608   3.077  19.569  0.00  0.00    +0.000 C 
ATOM     26  O   UNL     1       2.955   5.178  21.064  0.00  0.00    +0.000 OA
ATOM     27  O   UNL     1       0.623   4.613  20.295  0.00  0.00    +0.000 OA
ENDBRANCH  10  24
TORSDOF 5
ENDMDL
MODEL 9
REMARK VINA RESULT:      -7.1      2.549      4.180
REMARK  Name = 
REMARK  7 active torsions:
REMARK  status: ('A' for Active; 'I' for Inactive)
REMARK    1  A    between atoms: C_1  and  C_2
REMARK    2  A    between atoms: C_2  and  O_3
REMARK    3  A    between atoms: O_3  and  C_4
REMARK    4  A    between atoms: C_9  and  N_10
REMARK    5  A    between atoms: C_11  and  C_13
REMARK    6  A    between atoms: N_22  and  S_23
REMARK    7  A    between atoms: S_23  and  C_24
REMARK                            x       y       z     vdW  Elec       q    Type
REMARK                         _______ _______ _______ _____ _____    ______ ____
ROOT
ATOM      1  C   UNL     1       3.203   6.341  17.817  0.00  0.00    +0.000 C 
ATOM      2  C   UNL     1       2.246   5.658  18.796  0.00  0.00    +0.000 C 
ATOM      3  C   UNL     1       2.606   4.199  18.767  0.00  0.00    +0.000 A 
ATOM      4  C   UNL     1       1.753   3.212  18.287  0.00  0.00    +0.000 A 
ATOM      5  C   UNL     1       2.181   1.889  18.278  0.00  0.00    +0.000 A 
ATOM      6  C   UNL     1       3.425   1.550  18.817  0.00  0.00    +0.000 A 
ATOM      7  C   UNL     1       4.304   2.547  19.244  0.00  0.00    +0.000 A 
ATOM      8  C   UNL     1       3.929   3.885  19.123  0.00  0.00    +0.000 A 
ATOM      9  C   UNL     1       4.895   5.045  19.250  0.00  0.00    +0.000 C 
ATOM     10  N   UNL     1       4.639   6.100  18.214  0.00  0.00    +0.000 NA
ENDROOT
BRANCH   1  12
ATOM     11  N   UNL     1       1.861   8.208  18.695  0.00  0.00    +0.000 N 
ATOM     12  C   UNL     1       2.832   7.823  17.767  0.00  0.00    +0.000 C 
ATOM     13  O   UNL     1       3.436   8.587  17.005  0.00  0.00    +0.000 OA
ATOM     14  H   UNL     1       1.175   7.516  18.984  0.00  0.00    +0.000 HD
BRANCH  11  20
ATOM     15  C   UNL     1       0.906   9.824  20.295  0.00  0.00    +0.000 A 
ATOM     16  C   UNL     1       0.576  11.157  20.606  0.00  0.00    +0.000 A 
ATOM     17  C   UNL     1       0.871  12.197  19.731  0.00  0.00    +0.000 A 
ATOM     18  C   UNL     1       1.523  11.929  18.539  0.00  0.00    +0.000 A 
ATOM     19  C   UNL     1       1.859  10.613  18.214  0.00  0.00    +0.000 A 
ATOM     20  C   UNL     1       1.542   9.547  19.060  0.00  0.00    +0.000 A 
BRANCH  15  21
ATOM     21  O   UNL     1       0.640   8.764  21.155  0.00  0.00    +0.000 OA
BRANCH  21  23
ATOM     22  C   UNL     1       0.004   9.426  23.426  0.00  0.00    +0.000 C 
ATOM     23  C   UNL     1      -0.463   8.978  22.053  0.00  0.00    +0.000 C 
ENDBRANCH  21  23
ENDBRANCH  15  21
ENDBRANCH  11  20
ENDBRANCH   1  12
BRANCH  10  24
ATOM     24  S   UNL     1       5.763   6.252  16.965  0.00  0.00    +0.000 S 
ATOM     25  C   UNL     1       6.879   4.898  17.261  0.00  0.00    +0.000 C 
ATOM     26  O   UNL     1       5.070   5.965  15.724  0.00  0.00    +0.000 OA
ATOM     27  O   UNL     1       6.490   7.480  17.153  0.00  0.00    +0.000 OA
ENDBRANCH  10  24
TORSDOF 5
ENDMDL
