MODEL 1
REMARK VINA RESULT:      -7.6      0.000      0.000
REMARK  Name = 
REMARK  9 active torsions:
REMARK  status: ('A' for Active; 'I' for Inactive)
REMARK    1  A    between atoms: C_1  and  O_2
REMARK    2  A    between atoms: O_2  and  C_3
REMARK    3  A    between atoms: C_6  and  N_7
REMARK    4  A    between atoms: C_8  and  C_10
REMARK    5  A    between atoms: C_10  and  C_11
REMARK    6  A    between atoms: C_11  and  C_12
REMARK    7  A    between atoms: C_11  and  C_16
REMARK    8  A    between atoms: C_12  and  C_13
REMARK    9  A    between atoms: C_13  and  O_15
REMARK                            x       y       z     vdW  Elec       q    Type
REMARK                         _______ _______ _______ _____ _____    ______ ____
ROOT
ATOM      1  C   UNL     1       7.918   6.750  18.389  0.00  0.00    +0.000 C 
ENDROOT
BRANCH   1   3
ATOM      2  N   UNL     1       8.965   8.821  19.102  0.00  0.00    +0.000 N 
ATOM      3  C   UNL     1       8.125   8.234  18.168  0.00  0.00    +0.000 C 
ATOM      4  O   UNL     1       7.564   8.809  17.240  0.00  0.00    +0.000 OA
ATOM      5  H   UNL     1       9.528   8.201  19.675  0.00  0.00    +0.000 HD
BRANCH   2   9
ATOM      6  C   UNL     1       9.815  12.959  19.218  0.00  0.00    +0.000 A 
ATOM      7  C   UNL     1       9.553  12.271  20.400  0.00  0.00    +0.000 A 
ATOM      8  C   UNL     1       9.292  10.901  20.381  0.00  0.00    +0.000 A 
ATOM      9  C   UNL     1       9.265  10.197  19.174  0.00  0.00    +0.000 A 
ATOM     10  C   UNL     1       9.549  10.884  17.989  0.00  0.00    +0.000 A 
ATOM     11  C   UNL     1       9.811  12.263  18.009  0.00  0.00    +0.000 A 
BRANCH   6  13
ATOM     12  C   UNL     1       9.727  15.110  18.239  0.00  0.00    +0.000 C 
ATOM     13  O   UNL     1      10.016  14.301  19.371  0.00  0.00    +0.000 OA
ENDBRANCH   6  13
ENDBRANCH   2   9
ENDBRANCH   1   3
BRANCH   1  14
ATOM     14  C   UNL     1       6.871   6.155  17.411  0.00  0.00    +0.000 C 
BRANCH  14  15
ATOM     15  C   UNL     1       5.434   6.144  17.942  0.00  0.00    +0.000 A 
ATOM     16  C   UNL     1       4.411   6.913  17.369  0.00  0.00    +0.000 A 
ATOM     17  C   UNL     1       3.115   6.894  17.893  0.00  0.00    +0.000 A 
ATOM     18  C   UNL     1       2.819   6.108  19.001  0.00  0.00    +0.000 A 
ATOM     19  C   UNL     1       3.812   5.318  19.571  0.00  0.00    +0.000 A 
ATOM     20  C   UNL     1       5.103   5.323  19.036  0.00  0.00    +0.000 A 
ENDBRANCH  14  15
BRANCH  14  21
ATOM     21  C   UNL     1       7.288   4.769  16.857  0.00  0.00    +0.000 C 
BRANCH  21  22
ATOM     22  C   UNL     1       6.942   4.540  15.402  0.00  0.00    +0.000 C 
ATOM     23  O   UNL     1       6.174   3.690  14.985  0.00  0.00    +0.000 OA
BRANCH  22  24
ATOM     24  O   UNL     1       7.658   5.331  14.564  0.00  0.00    +0.000 OA
ATOM     25  H   UNL     1       8.500   5.651  14.935  0.00  0.00    +0.000 HD
ENDBRANCH  22  24
ENDBRANCH  21  22
ENDBRANCH  14  21
ENDBRANCH   1  14
TORSDOF 8
ENDMDL
MODEL 2
REMARK VINA RESULT:      -7.5      4.763      6.749
REMARK  Name = 
REMARK  9 active torsions:
REMARK  status: ('A' for Active; 'I' for Inactive)
REMARK    1  A    between atoms: C_1  and  O_2
REMARK    2  A    between atoms: O_2  and  C_3
REMARK    3  A    between atoms: C_6  and  N_7
REMARK    4  A    between atoms: C_8  and  C_10
REMARK    5  A    between atoms: C_10  and  C_11
REMARK    6  A    between atoms: C_11  and  C_12
REMARK    7  A    between atoms: C_11  and  C_16
REMARK    8  A    between atoms: C_12  and  C_13
REMARK    9  A    between atoms: C_13  and  O_15
REMARK                            x       y       z     vdW  Elec       q    Type
REMARK                         _______ _______ _______ _____ _____    ______ ____
ROOT
ATOM      1  C   UNL     1       4.874   3.788  16.864  0.00  0.00    +0.000 C 
ENDROOT
BRANCH   1   3
ATOM      2  N   UNL     1       4.089   5.901  17.766  0.00  0.00    +0.000 N 
ATOM      3  C   UNL     1       3.714   4.634  17.345  0.00  0.00    +0.000 C 
ATOM      4  O   UNL     1       2.574   4.180  17.351  0.00  0.00    +0.000 OA
ATOM      5  H   UNL     1       5.016   6.221  17.506  0.00  0.00    +0.000 HD
BRANCH   2   9
ATOM      6  C   UNL     1       1.451   8.795  19.355  0.00  0.00    +0.000 A 
ATOM      7  C   UNL     1       1.787   7.674  20.108  0.00  0.00    +0.000 A 
ATOM      8  C   UNL     1       2.672   6.720  19.607  0.00  0.00    +0.000 A 
ATOM      9  C   UNL     1       3.222   6.860  18.331  0.00  0.00    +0.000 A 
ATOM     10  C   UNL     1       2.903   7.998  17.581  0.00  0.00    +0.000 A 
ATOM     11  C   UNL     1       2.011   8.956  18.087  0.00  0.00    +0.000 A 
BRANCH   6  13
ATOM     12  C   UNL     1       0.369  10.897  19.326  0.00  0.00    +0.000 C 
ATOM     13  O   UNL     1       0.546   9.630  19.944  0.00  0.00    +0.000 OA
ENDBRANCH   6  13
ENDBRANCH   2   9
ENDBRANCH   1   3
BRANCH   1  14
ATOM     14  C   UNL     1       6.043   4.653  16.325  0.00  0.00    +0.000 C 
BRANCH  14  15
ATOM     15  C   UNL     1       6.329   4.481  14.830  0.00  0.00    +0.000 A 
ATOM     16  C   UNL     1       5.563   3.645  14.004  0.00  0.00    +0.000 A 
ATOM     17  C   UNL     1       5.867   3.497  12.648  0.00  0.00    +0.000 A 
ATOM     18  C   UNL     1       6.943   4.180  12.092  0.00  0.00    +0.000 A 
ATOM     19  C   UNL     1       7.701   5.034  12.886  0.00  0.00    +0.000 A 
ATOM     20  C   UNL     1       7.387   5.196  14.237  0.00  0.00    +0.000 A 
ENDBRANCH  14  15
BRANCH  14  21
ATOM     21  C   UNL     1       7.332   4.517  17.174  0.00  0.00    +0.000 C 
BRANCH  21  22
ATOM     22  C   UNL     1       7.491   5.564  18.255  0.00  0.00    +0.000 C 
ATOM     23  O   UNL     1       7.876   5.352  19.391  0.00  0.00    +0.000 OA
BRANCH  22  24
ATOM     24  O   UNL     1       7.063   6.790  17.861  0.00  0.00    +0.000 OA
ATOM     25  H   UNL     1       7.311   7.028  16.950  0.00  0.00    +0.000 HD
ENDBRANCH  22  24
ENDBRANCH  21  22
ENDBRANCH  14  21
ENDBRANCH   1  14
TORSDOF 8
ENDMDL
MODEL 3
REMARK VINA RESULT:      -7.5      0.418      1.086
REMARK  Name = 
REMARK  9 active torsions:
REMARK  status: ('A' for Active; 'I' for Inactive)
REMARK    1  A    between atoms: C_1  and  O_2
REMARK    2  A    between atoms: O_2  and  C_3
REMARK    3  A    between atoms: C_6  and  N_7
REMARK    4  A    between atoms: C_8  and  C_10
REMARK    5  A    between atoms: C_10  and  C_11
REMARK    6  A    between atoms: C_11  and  C_12
REMARK    7  A    between atoms: C_11  and  C_16
REMARK    8  A    between atoms: C_12  and  C_13
REMARK    9  A    between atoms: C_13  and  O_15
REMARK                            x       y       z     vdW  Elec       q    Type
REMARK                         _______ _______ _______ _____ _____    ______ ____
ROOT
ATOM      1  C   UNL     1       7.936   6.737  18.427  0.00  0.00    +0.000 C 
ENDROOT
BRANCH   1   3
ATOM      2  N   UNL     1       8.971   8.818  19.127  0.00  0.00    +0.000 N 
ATOM      3  C   UNL     1       8.128   8.222  18.201  0.00  0.00    +0.000 C 
ATOM      4  O   UNL     1       7.554   8.790  17.277  0.00  0.00    +0.000 OA
ATOM      5  H   UNL     1       9.544   8.204  19.696  0.00  0.00    +0.000 HD
BRANCH   2   9
ATOM      6  C   UNL     1       9.787  12.964  19.228  0.00  0.00    +0.000 A 
ATOM      7  C   UNL     1       9.532  12.277  20.412  0.00  0.00    +0.000 A 
ATOM      8  C   UNL     1       9.282  10.905  20.398  0.00  0.00    +0.000 A 
ATOM      9  C   UNL     1       9.260  10.197  19.194  0.00  0.00    +0.000 A 
ATOM     10  C   UNL     1       9.538  10.882  18.006  0.00  0.00    +0.000 A 
ATOM     11  C   UNL     1       9.788  12.264  18.022  0.00  0.00    +0.000 A 
BRANCH   6  13
ATOM     12  C   UNL     1       8.948  15.014  20.056  0.00  0.00    +0.000 C 
ATOM     13  O   UNL     1       9.977  14.308  19.376  0.00  0.00    +0.000 OA
ENDBRANCH   6  13
ENDBRANCH   2   9
ENDBRANCH   1   3
BRANCH   1  14
ATOM     14  C   UNL     1       6.885   6.131  17.460  0.00  0.00    +0.000 C 
BRANCH  14  15
ATOM     15  C   UNL     1       5.461   6.071  18.020  0.00  0.00    +0.000 A 
ATOM     16  C   UNL     1       5.120   5.295  19.138  0.00  0.00    +0.000 A 
ATOM     17  C   UNL     1       3.805   5.248  19.609  0.00  0.00    +0.000 A 
ATOM     18  C   UNL     1       2.805   5.974  18.970  0.00  0.00    +0.000 A 
ATOM     19  C   UNL     1       3.125   6.769  17.875  0.00  0.00    +0.000 A 
ATOM     20  C   UNL     1       4.443   6.831  17.415  0.00  0.00    +0.000 A 
ENDBRANCH  14  15
BRANCH  14  21
ATOM     21  C   UNL     1       7.328   4.768  16.870  0.00  0.00    +0.000 C 
BRANCH  21  22
ATOM     22  C   UNL     1       6.939   4.549  15.424  0.00  0.00    +0.000 C 
ATOM     23  O   UNL     1       6.158   3.702  15.025  0.00  0.00    +0.000 OA
BRANCH  22  24
ATOM     24  O   UNL     1       7.630   5.345  14.571  0.00  0.00    +0.000 OA
ATOM     25  H   UNL     1       7.541   6.298  14.749  0.00  0.00    +0.000 HD
ENDBRANCH  22  24
ENDBRANCH  21  22
ENDBRANCH  14  21
ENDBRANCH   1  14
TORSDOF 8
ENDMDL
MODEL 4
REMARK VINA RESULT:      -7.5      4.915      6.831
REMARK  Name = 
REMARK  9 active torsions:
REMARK  status: ('A' for Active; 'I' for Inactive)
REMARK    1  A    between atoms: C_1  and  O_2
REMARK    2  A    between atoms: O_2  and  C_3
REMARK    3  A    between atoms: C_6  and  N_7
REMARK    4  A    between atoms: C_8  and  C_10
REMARK    5  A    between atoms: C_10  and  C_11
REMARK    6  A    between atoms: C_11  and  C_12
REMARK    7  A    between atoms: C_11  and  C_16
REMARK    8  A    between atoms: C_12  and  C_13
REMARK    9  A    between atoms: C_13  and  O_15
REMARK                            x       y       z     vdW  Elec       q    Type
REMARK                         _______ _______ _______ _____ _____    ______ ____
ROOT
ATOM      1  C   UNL     1       3.599   4.314  19.837  0.00  0.00    +0.000 C 
ENDROOT
BRANCH   1   3
ATOM      2  N   UNL     1       2.884   6.634  19.849  0.00  0.00    +0.000 N 
ATOM      3  C   UNL     1       2.702   5.390  19.263  0.00  0.00    +0.000 C 
ATOM      4  O   UNL     1       1.900   5.122  18.373  0.00  0.00    +0.000 OA
ATOM      5  H   UNL     1       3.719   6.766  20.409  0.00  0.00    +0.000 HD
BRANCH   2   9
ATOM      6  C   UNL     1       0.606  10.056  18.869  0.00  0.00    +0.000 A 
ATOM      7  C   UNL     1       0.548   9.530  20.156  0.00  0.00    +0.000 A 
ATOM      8  C   UNL     1       1.310   8.413  20.501  0.00  0.00    +0.000 A 
ATOM      9  C   UNL     1       2.128   7.789  19.557  0.00  0.00    +0.000 A 
ATOM     10  C   UNL     1       2.204   8.331  18.269  0.00  0.00    +0.000 A 
ATOM     11  C   UNL     1       1.435   9.454  17.922  0.00  0.00    +0.000 A 
BRANCH   6  13
ATOM     12  C   UNL     1      -1.611  10.874  18.770  0.00  0.00    +0.000 C 
ATOM     13  O   UNL     1      -0.217  11.124  18.651  0.00  0.00    +0.000 OA
ENDBRANCH   6  13
ENDBRANCH   2   9
ENDBRANCH   1   3
BRANCH   1  14
ATOM     14  C   UNL     1       4.676   3.850  18.824  0.00  0.00    +0.000 C 
BRANCH  14  15
ATOM     15  C   UNL     1       5.636   4.950  18.361  0.00  0.00    +0.000 A 
ATOM     16  C   UNL     1       6.798   5.288  19.069  0.00  0.00    +0.000 A 
ATOM     17  C   UNL     1       7.639   6.313  18.626  0.00  0.00    +0.000 A 
ATOM     18  C   UNL     1       7.333   7.021  17.470  0.00  0.00    +0.000 A 
ATOM     19  C   UNL     1       6.199   6.688  16.738  0.00  0.00    +0.000 A 
ATOM     20  C   UNL     1       5.367   5.651  17.170  0.00  0.00    +0.000 A 
ENDBRANCH  14  15
BRANCH  14  21
ATOM     21  C   UNL     1       4.077   3.070  17.626  0.00  0.00    +0.000 C 
BRANCH  21  22
ATOM     22  C   UNL     1       3.246   1.865  18.008  0.00  0.00    +0.000 C 
ATOM     23  O   UNL     1       2.033   1.853  18.126  0.00  0.00    +0.000 OA
BRANCH  22  24
ATOM     24  O   UNL     1       4.005   0.781  18.308  0.00  0.00    +0.000 OA
ATOM     25  H   UNL     1       4.774   0.655  17.724  0.00  0.00    +0.000 HD
ENDBRANCH  22  24
ENDBRANCH  21  22
ENDBRANCH  14  21
ENDBRANCH   1  14
TORSDOF 8
ENDMDL
MODEL 5
REMARK VINA RESULT:      -7.5      5.097      6.221
REMARK  Name = 
REMARK  9 active torsions:
REMARK  status: ('A' for Active; 'I' for Inactive)
REMARK    1  A    between atoms: C_1  and  O_2
REMARK    2  A    between atoms: O_2  and  C_3
REMARK    3  A    between atoms: C_6  and  N_7
REMARK    4  A    between atoms: C_8  and  C_10
REMARK    5  A    between atoms: C_10  and  C_11
REMARK    6  A    between atoms: C_11  and  C_12
REMARK    7  A    between atoms: C_11  and  C_16
REMARK    8  A    between atoms: C_12  and  C_13
REMARK    9  A    between atoms: C_13  and  O_15
REMARK                            x       y       z     vdW  Elec       q    Type
REMARK                         _______ _______ _______ _____ _____    ______ ____
ROOT
ATOM      1  C   UNL     1       4.594   5.273  16.615  0.00  0.00    +0.000 C 
ENDROOT
BRANCH   1   3
ATOM      2  N   UNL     1       2.901   6.490  17.860  0.00  0.00    +0.000 N 
ATOM      3  C   UNL     1       4.202   6.520  17.380  0.00  0.00    +0.000 C 
ATOM      4  O   UNL     1       5.001   7.442  17.517  0.00  0.00    +0.000 OA
ATOM      5  H   UNL     1       2.430   5.592  17.867  0.00  0.00    +0.000 HD
BRANCH   2   9
ATOM      6  C   UNL     1       0.915   9.678  19.797  0.00  0.00    +0.000 A 
ATOM      7  C   UNL     1       1.366   8.588  20.538  0.00  0.00    +0.000 A 
ATOM      8  C   UNL     1       2.042   7.538  19.916  0.00  0.00    +0.000 A 
ATOM      9  C   UNL     1       2.260   7.548  18.537  0.00  0.00    +0.000 A 
ATOM     10  C   UNL     1       1.826   8.653  17.795  0.00  0.00    +0.000 A 
ATOM     11  C   UNL     1       1.145   9.709  18.422  0.00  0.00    +0.000 A 
BRANCH   6  13
ATOM     12  C   UNL     1      -0.923  11.162  19.901  0.00  0.00    +0.000 C 
ATOM     13  O   UNL     1       0.235  10.617  20.518  0.00  0.00    +0.000 OA
ENDBRANCH   6  13
ENDBRANCH   2   9
ENDBRANCH   1   3
BRANCH   1  14
ATOM     14  C   UNL     1       4.965   4.101  17.559  0.00  0.00    +0.000 C 
BRANCH  14  15
ATOM     15  C   UNL     1       3.780   3.482  18.306  0.00  0.00    +0.000 A 
ATOM     16  C   UNL     1       2.714   2.854  17.646  0.00  0.00    +0.000 A 
ATOM     17  C   UNL     1       1.639   2.318  18.360  0.00  0.00    +0.000 A 
ATOM     18  C   UNL     1       1.608   2.401  19.748  0.00  0.00    +0.000 A 
ATOM     19  C   UNL     1       2.666   2.998  20.426  0.00  0.00    +0.000 A 
ATOM     20  C   UNL     1       3.749   3.517  19.713  0.00  0.00    +0.000 A 
ENDBRANCH  14  15
BRANCH  14  21
ATOM     21  C   UNL     1       6.129   4.451  18.521  0.00  0.00    +0.000 C 
BRANCH  21  22
ATOM     22  C   UNL     1       7.398   4.911  17.836  0.00  0.00    +0.000 C 
ATOM     23  O   UNL     1       8.109   4.217  17.130  0.00  0.00    +0.000 OA
BRANCH  22  24
ATOM     24  O   UNL     1       7.737   6.183  18.165  0.00  0.00    +0.000 OA
ATOM     25  H   UNL     1       7.518   6.433  19.079  0.00  0.00    +0.000 HD
ENDBRANCH  22  24
ENDBRANCH  21  22
ENDBRANCH  14  21
ENDBRANCH   1  14
TORSDOF 8
ENDMDL
MODEL 6
REMARK VINA RESULT:      -7.4      5.039      6.145
REMARK  Name = 
REMARK  9 active torsions:
REMARK  status: ('A' for Active; 'I' for Inactive)
REMARK    1  A    between atoms: C_1  and  O_2
REMARK    2  A    between atoms: O_2  and  C_3
REMARK    3  A    between atoms: C_6  and  N_7
REMARK    4  A    between atoms: C_8  and  C_10
REMARK    5  A    between atoms: C_10  and  C_11
REMARK    6  A    between atoms: C_11  and  C_12
REMARK    7  A    between atoms: C_11  and  C_16
REMARK    8  A    between atoms: C_12  and  C_13
REMARK    9  A    between atoms: C_13  and  O_15
REMARK                            x       y       z     vdW  Elec       q    Type
REMARK                         _______ _______ _______ _____ _____    ______ ____
ROOT
ATOM      1  C   UNL     1       4.667   5.211  16.629  0.00  0.00    +0.000 C 
ENDROOT
BRANCH   1   3
ATOM      2  N   UNL     1       2.948   6.417  17.849  0.00  0.00    +0.000 N 
ATOM      3  C   UNL     1       4.235   6.479  17.337  0.00  0.00    +0.000 C 
ATOM      4  O   UNL     1       4.994   7.441  17.407  0.00  0.00    +0.000 OA
ATOM      5  H   UNL     1       2.518   5.500  17.914  0.00  0.00    +0.000 HD
BRANCH   2   9
ATOM      6  C   UNL     1       0.991   9.587  19.844  0.00  0.00    +0.000 A 
ATOM      7  C   UNL     1       1.179   9.645  18.466  0.00  0.00    +0.000 A 
ATOM      8  C   UNL     1       1.805   8.598  17.790  0.00  0.00    +0.000 A 
ATOM      9  C   UNL     1       2.273   7.480  18.484  0.00  0.00    +0.000 A 
ATOM     10  C   UNL     1       2.064   7.410  19.866  0.00  0.00    +0.000 A 
ATOM     11  C   UNL     1       1.436   8.466  20.546  0.00  0.00    +0.000 A 
BRANCH   6  13
ATOM     12  C   UNL     1       1.122  11.910  20.262  0.00  0.00    +0.000 C 
ATOM     13  O   UNL     1       0.402  10.692  20.388  0.00  0.00    +0.000 OA
ENDBRANCH   6  13
ENDBRANCH   2   9
ENDBRANCH   1   3
BRANCH   1  14
ATOM     14  C   UNL     1       5.057   4.090  17.626  0.00  0.00    +0.000 C 
BRANCH  14  15
ATOM     15  C   UNL     1       3.872   3.409  18.318  0.00  0.00    +0.000 A 
ATOM     16  C   UNL     1       2.833   2.791  17.607  0.00  0.00    +0.000 A 
ATOM     17  C   UNL     1       1.757   2.198  18.273  0.00  0.00    +0.000 A 
ATOM     18  C   UNL     1       1.698   2.212  19.662  0.00  0.00    +0.000 A 
ATOM     19  C   UNL     1       2.729   2.797  20.389  0.00  0.00    +0.000 A 
ATOM     20  C   UNL     1       3.814   3.374  19.724  0.00  0.00    +0.000 A 
ENDBRANCH  14  15
BRANCH  14  21
ATOM     21  C   UNL     1       6.134   4.540  18.645  0.00  0.00    +0.000 C 
BRANCH  21  22
ATOM     22  C   UNL     1       7.468   4.909  18.033  0.00  0.00    +0.000 C 
ATOM     23  O   UNL     1       8.287   4.119  17.597  0.00  0.00    +0.000 OA
BRANCH  22  24
ATOM     24  O   UNL     1       7.722   6.240  18.099  0.00  0.00    +0.000 OA
ATOM     25  H   UNL     1       7.912   6.656  17.239  0.00  0.00    +0.000 HD
ENDBRANCH  22  24
ENDBRANCH  21  22
ENDBRANCH  14  21
ENDBRANCH   1  14
TORSDOF 8
ENDMDL
MODEL 7
REMARK VINA RESULT:      -7.4      0.865      1.705
REMARK  Name = 
REMARK  9 active torsions:
REMARK  status: ('A' for Active; 'I' for Inactive)
REMARK    1  A    between atoms: C_1  and  O_2
REMARK    2  A    between atoms: O_2  and  C_3
REMARK    3  A    between atoms: C_6  and  N_7
REMARK    4  A    between atoms: C_8  and  C_10
REMARK    5  A    between atoms: C_10  and  C_11
REMARK    6  A    between atoms: C_11  and  C_12
REMARK    7  A    between atoms: C_11  and  C_16
REMARK    8  A    between atoms: C_12  and  C_13
REMARK    9  A    between atoms: C_13  and  O_15
REMARK                            x       y       z     vdW  Elec       q    Type
REMARK                         _______ _______ _______ _____ _____    ______ ____
ROOT
ATOM      1  C   UNL     1       7.594   6.591  18.227  0.00  0.00    +0.000 C 
ENDROOT
BRANCH   1   3
ATOM      2  N   UNL     1       8.781   8.575  18.969  0.00  0.00    +0.000 N 
ATOM      3  C   UNL     1       7.936   8.049  18.003  0.00  0.00    +0.000 C 
ATOM      4  O   UNL     1       7.467   8.659  17.046  0.00  0.00    +0.000 OA
ATOM      5  H   UNL     1       9.264   7.917  19.571  0.00  0.00    +0.000 HD
BRANCH   2   9
ATOM      6  C   UNL     1      10.069  12.588  19.286  0.00  0.00    +0.000 A 
ATOM      7  C   UNL     1       9.954  11.993  18.033  0.00  0.00    +0.000 A 
ATOM      8  C   UNL     1       9.510  10.676  17.910  0.00  0.00    +0.000 A 
ATOM      9  C   UNL     1       9.194   9.922  19.042  0.00  0.00    +0.000 A 
ATOM     10  C   UNL     1       9.289  10.526  20.301  0.00  0.00    +0.000 A 
ATOM     11  C   UNL     1       9.737  11.851  20.423  0.00  0.00    +0.000 A 
BRANCH   6  13
ATOM     12  C   UNL     1      11.952  14.007  19.463  0.00  0.00    +0.000 C 
ATOM     13  O   UNL     1      10.551  13.865  19.270  0.00  0.00    +0.000 OA
ENDBRANCH   6  13
ENDBRANCH   2   9
ENDBRANCH   1   3
BRANCH   1  14
ATOM     14  C   UNL     1       6.682   6.027  17.107  0.00  0.00    +0.000 C 
BRANCH  14  15
ATOM     15  C   UNL     1       5.206   5.888  17.493  0.00  0.00    +0.000 A 
ATOM     16  C   UNL     1       4.600   4.646  17.734  0.00  0.00    +0.000 A 
ATOM     17  C   UNL     1       3.246   4.557  18.065  0.00  0.00    +0.000 A 
ATOM     18  C   UNL     1       2.469   5.707  18.158  0.00  0.00    +0.000 A 
ATOM     19  C   UNL     1       3.054   6.951  17.947  0.00  0.00    +0.000 A 
ATOM     20  C   UNL     1       4.413   7.042  17.635  0.00  0.00    +0.000 A 
ENDBRANCH  14  15
BRANCH  14  21
ATOM     21  C   UNL     1       7.236   4.722  16.483  0.00  0.00    +0.000 C 
BRANCH  21  22
ATOM     22  C   UNL     1       7.150   4.657  14.973  0.00  0.00    +0.000 C 
ATOM     23  O   UNL     1       7.627   5.473  14.204  0.00  0.00    +0.000 OA
BRANCH  22  24
ATOM     24  O   UNL     1       6.389   3.622  14.538  0.00  0.00    +0.000 OA
ATOM     25  H   UNL     1       6.166   2.969  15.225  0.00  0.00    +0.000 HD
ENDBRANCH  22  24
ENDBRANCH  21  22
ENDBRANCH  14  21
ENDBRANCH   1  14
TORSDOF 8
ENDMDL
MODEL 8
REMARK VINA RESULT:      -7.4      4.932      6.767
REMARK  Name = 
REMARK  9 active torsions:
REMARK  status: ('A' for Active; 'I' for Inactive)
REMARK    1  A    between atoms: C_1  and  O_2
REMARK    2  A    between atoms: O_2  and  C_3
REMARK    3  A    between atoms: C_6  and  N_7
REMARK    4  A    between atoms: C_8  and  C_10
REMARK    5  A    between atoms: C_10  and  C_11
REMARK    6  A    between atoms: C_11  and  C_12
REMARK    7  A    between atoms: C_11  and  C_16
REMARK    8  A    between atoms: C_12  and  C_13
REMARK    9  A    between atoms: C_13  and  O_15
REMARK                            x       y       z     vdW  Elec       q    Type
REMARK                         _______ _______ _______ _____ _____    ______ ____
ROOT
ATOM      1  C   UNL     1       3.624   4.290  19.952  0.00  0.00    +0.000 C 
ENDROOT
BRANCH   1   3
ATOM      2  N   UNL     1       2.944   6.615  19.792  0.00  0.00    +0.000 N 
ATOM      3  C   UNL     1       2.661   5.317  19.395  0.00  0.00    +0.000 C 
ATOM      4  O   UNL     1       1.728   4.969  18.677  0.00  0.00    +0.000 OA
ATOM      5  H   UNL     1       3.858   6.787  20.199  0.00  0.00    +0.000 HD
BRANCH   2   9
ATOM      6  C   UNL     1       0.627  10.051  18.965  0.00  0.00    +0.000 A 
ATOM      7  C   UNL     1       1.379   9.461  17.953  0.00  0.00    +0.000 A 
ATOM      8  C   UNL     1       2.132   8.314  18.205  0.00  0.00    +0.000 A 
ATOM      9  C   UNL     1       2.165   7.749  19.481  0.00  0.00    +0.000 A 
ATOM     10  C   UNL     1       1.392   8.329  20.494  0.00  0.00    +0.000 A 
ATOM     11  C   UNL     1       0.635   9.484  20.239  0.00  0.00    +0.000 A 
BRANCH   6  13
ATOM     12  C   UNL     1       0.089  12.295  19.481  0.00  0.00    +0.000 C 
ATOM     13  O   UNL     1      -0.033  11.189  18.598  0.00  0.00    +0.000 OA
ENDBRANCH   6  13
ENDBRANCH   2   9
ENDBRANCH   1   3
BRANCH   1  14
ATOM     14  C   UNL     1       4.661   3.828  18.895  0.00  0.00    +0.000 C 
BRANCH  14  15
ATOM     15  C   UNL     1       5.608   4.928  18.406  0.00  0.00    +0.000 A 
ATOM     16  C   UNL     1       6.773   5.287  19.100  0.00  0.00    +0.000 A 
ATOM     17  C   UNL     1       7.604   6.310  18.634  0.00  0.00    +0.000 A 
ATOM     18  C   UNL     1       7.284   6.995  17.467  0.00  0.00    +0.000 A 
ATOM     19  C   UNL     1       6.146   6.641  16.749  0.00  0.00    +0.000 A 
ATOM     20  C   UNL     1       5.326   5.605  17.205  0.00  0.00    +0.000 A 
ENDBRANCH  14  15
BRANCH  14  21
ATOM     21  C   UNL     1       4.013   3.063  17.714  0.00  0.00    +0.000 C 
BRANCH  21  22
ATOM     22  C   UNL     1       3.231   1.830  18.113  0.00  0.00    +0.000 C 
ATOM     23  O   UNL     1       2.027   1.789  18.300  0.00  0.00    +0.000 OA
BRANCH  22  24
ATOM     24  O   UNL     1       4.028   0.757  18.341  0.00  0.00    +0.000 OA
ATOM     25  H   UNL     1       4.551   0.812  19.160  0.00  0.00    +0.000 HD
ENDBRANCH  22  24
ENDBRANCH  21  22
ENDBRANCH  14  21
ENDBRANCH   1  14
TORSDOF 8
ENDMDL
MODEL 9
REMARK VINA RESULT:      -7.4      4.816      6.736
REMARK  Name = 
REMARK  9 active torsions:
REMARK  status: ('A' for Active; 'I' for Inactive)
REMARK    1  A    between atoms: C_1  and  O_2
REMARK    2  A    between atoms: O_2  and  C_3
REMARK    3  A    between atoms: C_6  and  N_7
REMARK    4  A    between atoms: C_8  and  C_10
REMARK    5  A    between atoms: C_10  and  C_11
REMARK    6  A    between atoms: C_11  and  C_12
REMARK    7  A    between atoms: C_11  and  C_16
REMARK    8  A    between atoms: C_12  and  C_13
REMARK    9  A    between atoms: C_13  and  O_15
REMARK                            x       y       z     vdW  Elec       q    Type
REMARK                         _______ _______ _______ _____ _____    ______ ____
ROOT
ATOM      1  C   UNL     1       4.870   5.125  16.656  0.00  0.00    +0.000 C 
ENDROOT
BRANCH   1   3
ATOM      2  N   UNL     1       3.137   6.245  17.935  0.00  0.00    +0.000 N 
ATOM      3  C   UNL     1       4.373   6.390  17.323  0.00  0.00    +0.000 C 
ATOM      4  O   UNL     1       5.041   7.419  17.280  0.00  0.00    +0.000 OA
ATOM      5  H   UNL     1       2.801   5.299  18.085  0.00  0.00    +0.000 HD
BRANCH   2   9
ATOM      6  C   UNL     1       1.027   9.334  19.902  0.00  0.00    +0.000 A 
ATOM      7  C   UNL     1       1.268   9.420  18.534  0.00  0.00    +0.000 A 
ATOM      8  C   UNL     1       1.944   8.398  17.866  0.00  0.00    +0.000 A 
ATOM      9  C   UNL     1       2.413   7.281  18.561  0.00  0.00    +0.000 A 
ATOM     10  C   UNL     1       2.153   7.183  19.932  0.00  0.00    +0.000 A 
ATOM     11  C   UNL     1       1.473   8.212  20.603  0.00  0.00    +0.000 A 
BRANCH   6  13
ATOM     12  C   UNL     1       0.449  11.616  19.682  0.00  0.00    +0.000 C 
ATOM     13  O   UNL     1       0.391  10.416  20.440  0.00  0.00    +0.000 OA
ENDBRANCH   6  13
ENDBRANCH   2   9
ENDBRANCH   1   3
BRANCH   1  14
ATOM     14  C   UNL     1       6.336   5.259  16.167  0.00  0.00    +0.000 C 
BRANCH  14  15
ATOM     15  C   UNL     1       6.567   4.831  14.715  0.00  0.00    +0.000 A 
ATOM     16  C   UNL     1       7.601   5.358  13.927  0.00  0.00    +0.000 A 
ATOM     17  C   UNL     1       7.770   4.957  12.598  0.00  0.00    +0.000 A 
ATOM     18  C   UNL     1       6.906   4.026  12.032  0.00  0.00    +0.000 A 
ATOM     19  C   UNL     1       5.889   3.473  12.801  0.00  0.00    +0.000 A 
ATOM     20  C   UNL     1       5.732   3.858  14.135  0.00  0.00    +0.000 A 
ENDBRANCH  14  15
BRANCH  14  21
ATOM     21  C   UNL     1       7.352   4.595  17.130  0.00  0.00    +0.000 C 
BRANCH  21  22
ATOM     22  C   UNL     1       7.727   5.436  18.332  0.00  0.00    +0.000 C 
ATOM     23  O   UNL     1       7.858   5.020  19.470  0.00  0.00    +0.000 OA
BRANCH  22  24
ATOM     24  O   UNL     1       7.817   6.757  18.037  0.00  0.00    +0.000 OA
ATOM     25  H   UNL     1       7.042   7.119  17.572  0.00  0.00    +0.000 HD
ENDBRANCH  22  24
ENDBRANCH  21  22
ENDBRANCH  14  21
ENDBRANCH   1  14
TORSDOF 8
ENDMDL
