MODEL 1
REMARK VINA RESULT:      -8.6      0.000      0.000
REMARK  Name = 
REMARK  4 active torsions:
REMARK  status: ('A' for Active; 'I' for Inactive)
REMARK    1  A    between atoms: C_1  and  C_2
REMARK    2  A    between atoms: C_2  and  C_3
REMARK    3  A    between atoms: C_8  and  C_9
REMARK    4  A    between atoms: C_13  and  C_14
REMARK                            x       y       z     vdW  Elec       q    Type
REMARK                         _______ _______ _______ _____ _____    ______ ____
ROOT
ATOM      1  C   UNL     1       4.257   3.584  16.914  0.00  0.00    +0.000 C 
ATOM      2  C   UNL     1       3.845   4.313  18.214  0.00  0.00    +0.000 C 
ATOM      3  C   UNL     1       5.096   4.270  19.104  0.00  0.00    +0.000 C 
ATOM      4  O   UNL     1       3.605   5.682  17.856  0.00  0.00    +0.000 OA
ATOM      5  C   UNL     1       2.774   6.431  18.649  0.00  0.00    +0.000 A 
ATOM      6  C   UNL     1       2.785   7.787  18.341  0.00  0.00    +0.000 A 
ATOM      7  C   UNL     1       2.041   8.683  19.102  0.00  0.00    +0.000 A 
ATOM      8  C   UNL     1       1.218   8.245  20.152  0.00  0.00    +0.000 A 
ATOM      9  C   UNL     1       1.166   6.854  20.406  0.00  0.00    +0.000 A 
ATOM     10  C   UNL     1       1.970   5.942  19.693  0.00  0.00    +0.000 A 
ATOM     11  C   UNL     1       2.139   4.501  20.141  0.00  0.00    +0.000 C 
ATOM     12  C   UNL     1       3.070   4.537  21.358  0.00  0.00    +0.000 C 
ATOM     13  O   UNL     1       2.897   3.269  21.941  0.00  0.00    +0.000 OA
ATOM     14  C   UNL     1       1.596   3.024  21.652  0.00  0.00    +0.000 C 
ATOM     15  N   UNL     1       1.155   1.949  22.325  0.00  0.00    +0.000 N 
ATOM     16  N   UNL     1       1.000   3.753  20.755  0.00  0.00    +0.000 NA
ATOM     17  C   UNL     1       2.573   3.711  18.871  0.00  0.00    +0.000 C 
ATOM     18  C   UNL     1       2.384   2.156  18.796  0.00  0.00    +0.000 C 
ATOM     19  O   UNL     1       1.720   2.273  17.508  0.00  0.00    +0.000 OA
ATOM     20  C   UNL     1       1.393   3.655  17.825  0.00  0.00    +0.000 C 
ATOM     21  H   UNL     1       1.907   1.409  22.748  0.00  0.00    +0.000 HD
ATOM     22  H   UNL     1       0.530   1.364  21.778  0.00  0.00    +0.000 HD
ENDROOT
BRANCH   8  23
ATOM     23  C   UNL     1       0.522   9.235  21.017  0.00  0.00    +0.000 A 
ATOM     24  C   UNL     1       0.302   8.993  22.383  0.00  0.00    +0.000 A 
ATOM     25  C   UNL     1      -0.436   9.885  23.166  0.00  0.00    +0.000 A 
ATOM     26  C   UNL     1      -0.949  11.049  22.603  0.00  0.00    +0.000 A 
ATOM     27  C   UNL     1      -0.742  11.346  21.253  0.00  0.00    +0.000 A 
ATOM     28  C   UNL     1      -0.008  10.423  20.482  0.00  0.00    +0.000 A 
BRANCH  27  29
ATOM     29  C   UNL     1      -1.331  12.578  20.607  0.00  0.00    +0.000 C 
ATOM     30  C   UNL     1      -1.498  12.670  19.108  0.00  0.00    +0.000 C 
ATOM     31  C   UNL     1      -2.704  12.499  19.979  0.00  0.00    +0.000 C 
ENDBRANCH  27  29
ENDBRANCH   8  23
TORSDOF 2
ENDMDL
MODEL 2
REMARK VINA RESULT:      -8.4      0.965      1.182
REMARK  Name = 
REMARK  4 active torsions:
REMARK  status: ('A' for Active; 'I' for Inactive)
REMARK    1  A    between atoms: C_1  and  C_2
REMARK    2  A    between atoms: C_2  and  C_3
REMARK    3  A    between atoms: C_8  and  C_9
REMARK    4  A    between atoms: C_13  and  C_14
REMARK                            x       y       z     vdW  Elec       q    Type
REMARK                         _______ _______ _______ _____ _____    ______ ____
ROOT
ATOM      1  C   UNL     1       4.832   3.402  16.796  0.00  0.00    +0.000 C 
ATOM      2  C   UNL     1       4.280   4.289  17.934  0.00  0.00    +0.000 C 
ATOM      3  C   UNL     1       5.401   4.328  18.984  0.00  0.00    +0.000 C 
ATOM      4  O   UNL     1       4.139   5.610  17.391  0.00  0.00    +0.000 OA
ATOM      5  C   UNL     1       3.238   6.465  17.972  0.00  0.00    +0.000 A 
ATOM      6  C   UNL     1       3.338   7.775  17.514  0.00  0.00    +0.000 A 
ATOM      7  C   UNL     1       2.533   8.770  18.059  0.00  0.00    +0.000 A 
ATOM      8  C   UNL     1       1.565   8.477  19.033  0.00  0.00    +0.000 A 
ATOM      9  C   UNL     1       1.430   7.128  19.437  0.00  0.00    +0.000 A 
ATOM     10  C   UNL     1       2.287   6.121  18.949  0.00  0.00    +0.000 A 
ATOM     11  C   UNL     1       2.344   4.741  19.580  0.00  0.00    +0.000 C 
ATOM     12  C   UNL     1       3.109   4.904  20.898  0.00  0.00    +0.000 C 
ATOM     13  O   UNL     1       2.815   3.719  21.596  0.00  0.00    +0.000 OA
ATOM     14  C   UNL     1       1.555   3.468  21.165  0.00  0.00    +0.000 C 
ATOM     15  N   UNL     1       0.991   2.490  21.894  0.00  0.00    +0.000 N 
ATOM     16  N   UNL     1       1.108   4.096  20.118  0.00  0.00    +0.000 NA
ATOM     17  C   UNL     1       2.912   3.796  18.480  0.00  0.00    +0.000 C 
ATOM     18  C   UNL     1       2.679   2.247  18.562  0.00  0.00    +0.000 C 
ATOM     19  O   UNL     1       2.194   2.223  17.191  0.00  0.00    +0.000 OA
ATOM     20  C   UNL     1       1.877   3.639  17.299  0.00  0.00    +0.000 C 
ATOM     21  H   UNL     1       1.661   1.989  22.473  0.00  0.00    +0.000 HD
ATOM     22  H   UNL     1       0.423   1.857  21.339  0.00  0.00    +0.000 HD
ENDROOT
BRANCH   8  23
ATOM     23  C   UNL     1       0.798   9.578  19.675  0.00  0.00    +0.000 A 
ATOM     24  C   UNL     1       0.899   9.839  21.052  0.00  0.00    +0.000 A 
ATOM     25  C   UNL     1       0.103  10.812  21.663  0.00  0.00    +0.000 A 
ATOM     26  C   UNL     1      -0.792  11.559  20.906  0.00  0.00    +0.000 A 
ATOM     27  C   UNL     1      -0.917  11.352  19.529  0.00  0.00    +0.000 A 
ATOM     28  C   UNL     1      -0.115  10.354  18.940  0.00  0.00    +0.000 A 
BRANCH  27  29
ATOM     29  C   UNL     1      -1.918  12.116  18.694  0.00  0.00    +0.000 C 
ATOM     30  C   UNL     1      -2.437  11.555  17.390  0.00  0.00    +0.000 C 
ATOM     31  C   UNL     1      -3.336  11.602  18.586  0.00  0.00    +0.000 C 
ENDBRANCH  27  29
ENDBRANCH   8  23
TORSDOF 2
ENDMDL
MODEL 3
REMARK VINA RESULT:      -8.2      4.794      9.453
REMARK  Name = 
REMARK  4 active torsions:
REMARK  status: ('A' for Active; 'I' for Inactive)
REMARK    1  A    between atoms: C_1  and  C_2
REMARK    2  A    between atoms: C_2  and  C_3
REMARK    3  A    between atoms: C_8  and  C_9
REMARK    4  A    between atoms: C_13  and  C_14
REMARK                            x       y       z     vdW  Elec       q    Type
REMARK                         _______ _______ _______ _____ _____    ______ ____
ROOT
ATOM      1  C   UNL     1      -3.319  13.688  23.842  0.00  0.00    +0.000 C 
ATOM      2  C   UNL     1      -2.050  13.324  23.039  0.00  0.00    +0.000 C 
ATOM      3  C   UNL     1      -0.910  14.083  23.735  0.00  0.00    +0.000 C 
ATOM      4  O   UNL     1      -1.829  11.919  23.237  0.00  0.00    +0.000 OA
ATOM      5  C   UNL     1      -1.115  11.228  22.293  0.00  0.00    +0.000 A 
ATOM      6  C   UNL     1      -0.775   9.938  22.687  0.00  0.00    +0.000 A 
ATOM      7  C   UNL     1       0.007   9.138  21.860  0.00  0.00    +0.000 A 
ATOM      8  C   UNL     1       0.421   9.578  20.592  0.00  0.00    +0.000 A 
ATOM      9  C   UNL     1       0.008  10.867  20.180  0.00  0.00    +0.000 A 
ATOM     10  C   UNL     1      -0.721  11.719  21.036  0.00  0.00    +0.000 A 
ATOM     11  C   UNL     1      -0.920  13.191  20.722  0.00  0.00    +0.000 C 
ATOM     12  C   UNL     1       0.422  13.875  21.007  0.00  0.00    +0.000 C 
ATOM     13  O   UNL     1       0.298  15.120  20.366  0.00  0.00    +0.000 OA
ATOM     14  C   UNL     1      -0.481  14.792  19.307  0.00  0.00    +0.000 C 
ATOM     15  N   UNL     1      -0.534  15.804  18.425  0.00  0.00    +0.000 N 
ATOM     16  N   UNL     1      -1.110  13.653  19.313  0.00  0.00    +0.000 NA
ATOM     17  C   UNL     1      -2.184  13.626  21.521  0.00  0.00    +0.000 C 
ATOM     18  C   UNL     1      -2.988  14.906  21.104  0.00  0.00    +0.000 C 
ATOM     19  O   UNL     1      -4.234  14.156  21.113  0.00  0.00    +0.000 OA
ATOM     20  C   UNL     1      -3.474  12.928  20.937  0.00  0.00    +0.000 C 
ATOM     21  H   UNL     1      -0.168  16.676  18.799  0.00  0.00    +0.000 HD
ATOM     22  H   UNL     1      -1.454  15.925  18.012  0.00  0.00    +0.000 HD
ENDROOT
BRANCH   8  23
ATOM     23  C   UNL     1       1.347   8.745  19.780  0.00  0.00    +0.000 A 
ATOM     24  C   UNL     1       1.811   9.172  18.524  0.00  0.00    +0.000 A 
ATOM     25  C   UNL     1       2.603   8.341  17.726  0.00  0.00    +0.000 A 
ATOM     26  C   UNL     1       2.966   7.077  18.178  0.00  0.00    +0.000 A 
ATOM     27  C   UNL     1       2.547   6.612  19.428  0.00  0.00    +0.000 A 
ATOM     28  C   UNL     1       1.736   7.463  20.206  0.00  0.00    +0.000 A 
BRANCH  27  29
ATOM     29  C   UNL     1       2.887   5.225  19.919  0.00  0.00    +0.000 C 
ATOM     30  C   UNL     1       2.201   4.636  21.130  0.00  0.00    +0.000 C 
ATOM     31  C   UNL     1       1.870   4.116  19.766  0.00  0.00    +0.000 C 
ENDBRANCH  27  29
ENDBRANCH   8  23
TORSDOF 2
ENDMDL
MODEL 4
REMARK VINA RESULT:      -8.1      1.148      2.028
REMARK  Name = 
REMARK  4 active torsions:
REMARK  status: ('A' for Active; 'I' for Inactive)
REMARK    1  A    between atoms: C_1  and  C_2
REMARK    2  A    between atoms: C_2  and  C_3
REMARK    3  A    between atoms: C_8  and  C_9
REMARK    4  A    between atoms: C_13  and  C_14
REMARK                            x       y       z     vdW  Elec       q    Type
REMARK                         _______ _______ _______ _____ _____    ______ ____
ROOT
ATOM      1  C   UNL     1       5.488   3.693  17.139  0.00  0.00    +0.000 C 
ATOM      2  C   UNL     1       4.676   4.570  18.119  0.00  0.00    +0.000 C 
ATOM      3  C   UNL     1       5.594   4.756  19.337  0.00  0.00    +0.000 C 
ATOM      4  O   UNL     1       4.516   5.849  17.487  0.00  0.00    +0.000 OA
ATOM      5  C   UNL     1       3.460   6.638  17.862  0.00  0.00    +0.000 A 
ATOM      6  C   UNL     1       3.524   7.931  17.355  0.00  0.00    +0.000 A 
ATOM      7  C   UNL     1       2.556   8.868  17.702  0.00  0.00    +0.000 A 
ATOM      8  C   UNL     1       1.463   8.525  18.516  0.00  0.00    +0.000 A 
ATOM      9  C   UNL     1       1.378   7.186  18.966  0.00  0.00    +0.000 A 
ATOM     10  C   UNL     1       2.390   6.245  18.685  0.00  0.00    +0.000 A 
ATOM     11  C   UNL     1       2.456   4.903  19.393  0.00  0.00    +0.000 C 
ATOM     12  C   UNL     1       2.968   5.191  20.808  0.00  0.00    +0.000 C 
ATOM     13  O   UNL     1       2.662   4.012  21.513  0.00  0.00    +0.000 OA
ATOM     14  C   UNL     1       1.520   3.626  20.893  0.00  0.00    +0.000 C 
ATOM     15  N   UNL     1       0.926   2.630  21.570  0.00  0.00    +0.000 N 
ATOM     16  N   UNL     1       1.206   4.167  19.753  0.00  0.00    +0.000 NA
ATOM     17  C   UNL     1       3.282   3.973  18.456  0.00  0.00    +0.000 C 
ATOM     18  C   UNL     1       3.173   2.413  18.584  0.00  0.00    +0.000 C 
ATOM     19  O   UNL     1       2.933   2.288  17.155  0.00  0.00    +0.000 OA
ATOM     20  C   UNL     1       2.482   3.672  17.130  0.00  0.00    +0.000 C 
ATOM     21  H   UNL     1       1.528   2.218  22.280  0.00  0.00    +0.000 HD
ATOM     22  H   UNL     1       0.518   1.924  20.965  0.00  0.00    +0.000 HD
ENDROOT
BRANCH   8  23
ATOM     23  C   UNL     1       0.506   9.574  18.960  0.00  0.00    +0.000 A 
ATOM     24  C   UNL     1      -0.323  10.246  18.046  0.00  0.00    +0.000 A 
ATOM     25  C   UNL     1      -1.149  11.295  18.458  0.00  0.00    +0.000 A 
ATOM     26  C   UNL     1      -1.180  11.678  19.795  0.00  0.00    +0.000 A 
ATOM     27  C   UNL     1      -0.388  11.028  20.747  0.00  0.00    +0.000 A 
ATOM     28  C   UNL     1       0.448   9.984  20.303  0.00  0.00    +0.000 A 
BRANCH  27  29
ATOM     29  C   UNL     1      -0.367  11.457  22.195  0.00  0.00    +0.000 C 
ATOM     30  C   UNL     1      -1.570  12.113  22.832  0.00  0.00    +0.000 C 
ATOM     31  C   UNL     1      -1.210  10.707  23.201  0.00  0.00    +0.000 C 
ENDBRANCH  27  29
ENDBRANCH   8  23
TORSDOF 2
ENDMDL
MODEL 5
REMARK VINA RESULT:      -8.0      1.181      1.550
REMARK  Name = 
REMARK  4 active torsions:
REMARK  status: ('A' for Active; 'I' for Inactive)
REMARK    1  A    between atoms: C_1  and  C_2
REMARK    2  A    between atoms: C_2  and  C_3
REMARK    3  A    between atoms: C_8  and  C_9
REMARK    4  A    between atoms: C_13  and  C_14
REMARK                            x       y       z     vdW  Elec       q    Type
REMARK                         _______ _______ _______ _____ _____    ______ ____
ROOT
ATOM      1  C   UNL     1       4.915   3.354  16.767  0.00  0.00    +0.000 C 
ATOM      2  C   UNL     1       4.355   4.269  17.879  0.00  0.00    +0.000 C 
ATOM      3  C   UNL     1       5.449   4.296  18.957  0.00  0.00    +0.000 C 
ATOM      4  O   UNL     1       4.259   5.585  17.316  0.00  0.00    +0.000 OA
ATOM      5  C   UNL     1       3.364   6.469  17.862  0.00  0.00    +0.000 A 
ATOM      6  C   UNL     1       3.507   7.769  17.390  0.00  0.00    +0.000 A 
ATOM      7  C   UNL     1       2.712   8.790  17.900  0.00  0.00    +0.000 A 
ATOM      8  C   UNL     1       1.712   8.533  18.852  0.00  0.00    +0.000 A 
ATOM      9  C   UNL     1       1.534   7.193  19.270  0.00  0.00    +0.000 A 
ATOM     10  C   UNL     1       2.381   6.160  18.818  0.00  0.00    +0.000 A 
ATOM     11  C   UNL     1       2.388   4.788  19.468  0.00  0.00    +0.000 C 
ATOM     12  C   UNL     1       3.122   4.950  20.804  0.00  0.00    +0.000 C 
ATOM     13  O   UNL     1       2.783   3.782  21.509  0.00  0.00    +0.000 OA
ATOM     14  C   UNL     1       1.529   3.554  21.048  0.00  0.00    +0.000 C 
ATOM     15  N   UNL     1       0.923   2.600  21.774  0.00  0.00    +0.000 N 
ATOM     16  N   UNL     1       1.123   4.178  19.982  0.00  0.00    +0.000 NA
ATOM     17  C   UNL     1       2.962   3.815  18.395  0.00  0.00    +0.000 C 
ATOM     18  C   UNL     1       2.690   2.273  18.491  0.00  0.00    +0.000 C 
ATOM     19  O   UNL     1       2.241   2.242  17.108  0.00  0.00    +0.000 OA
ATOM     20  C   UNL     1       1.955   3.666  17.189  0.00  0.00    +0.000 C 
ATOM     21  H   UNL     1       1.566   2.092  22.377  0.00  0.00    +0.000 HD
ATOM     22  H   UNL     1       0.354   1.973  21.213  0.00  0.00    +0.000 HD
ENDROOT
BRANCH   8  23
ATOM     23  C   UNL     1       0.955   9.660  19.460  0.00  0.00    +0.000 A 
ATOM     24  C   UNL     1       0.232   9.501  20.655  0.00  0.00    +0.000 A 
ATOM     25  C   UNL     1      -0.554  10.537  21.167  0.00  0.00    +0.000 A 
ATOM     26  C   UNL     1      -0.614  11.761  20.508  0.00  0.00    +0.000 A 
ATOM     27  C   UNL     1       0.102  11.976  19.326  0.00  0.00    +0.000 A 
ATOM     28  C   UNL     1       0.873  10.910  18.822  0.00  0.00    +0.000 A 
BRANCH  27  29
ATOM     29  C   UNL     1       0.013  13.278  18.566  0.00  0.00    +0.000 C 
ATOM     30  C   UNL     1      -0.456  14.546  19.241  0.00  0.00    +0.000 C 
ATOM     31  C   UNL     1       0.990  14.389  18.885  0.00  0.00    +0.000 C 
ENDBRANCH  27  29
ENDBRANCH   8  23
TORSDOF 2
ENDMDL
MODEL 6
REMARK VINA RESULT:      -7.8      3.901      8.286
REMARK  Name = 
REMARK  4 active torsions:
REMARK  status: ('A' for Active; 'I' for Inactive)
REMARK    1  A    between atoms: C_1  and  C_2
REMARK    2  A    between atoms: C_2  and  C_3
REMARK    3  A    between atoms: C_8  and  C_9
REMARK    4  A    between atoms: C_13  and  C_14
REMARK                            x       y       z     vdW  Elec       q    Type
REMARK                         _______ _______ _______ _____ _____    ______ ____
ROOT
ATOM      1  C   UNL     1       1.427  14.698  18.732  0.00  0.00    +0.000 C 
ATOM      2  C   UNL     1       0.832  13.289  18.959  0.00  0.00    +0.000 C 
ATOM      3  C   UNL     1      -0.536  13.321  18.262  0.00  0.00    +0.000 C 
ATOM      4  O   UNL     1       1.671  12.371  18.242  0.00  0.00    +0.000 OA
ATOM      5  C   UNL     1       1.704  11.061  18.646  0.00  0.00    +0.000 A 
ATOM      6  C   UNL     1       2.369  10.222  17.758  0.00  0.00    +0.000 A 
ATOM      7  C   UNL     1       2.428   8.853  17.999  0.00  0.00    +0.000 A 
ATOM      8  C   UNL     1       1.877   8.291  19.163  0.00  0.00    +0.000 A 
ATOM      9  C   UNL     1       1.265   9.169  20.088  0.00  0.00    +0.000 A 
ATOM     10  C   UNL     1       1.132  10.547  19.822  0.00  0.00    +0.000 A 
ATOM     11  C   UNL     1       0.235  11.442  20.660  0.00  0.00    +0.000 C 
ATOM     12  C   UNL     1      -1.204  11.113  20.246  0.00  0.00    +0.000 C 
ATOM     13  O   UNL     1      -1.978  11.674  21.278  0.00  0.00    +0.000 OA
ATOM     14  C   UNL     1      -1.153  11.510  22.340  0.00  0.00    +0.000 C 
ATOM     15  N   UNL     1      -1.800  11.774  23.488  0.00  0.00    +0.000 N 
ATOM     16  N   UNL     1       0.098  11.224  22.132  0.00  0.00    +0.000 NA
ATOM     17  C   UNL     1       0.776  12.888  20.459  0.00  0.00    +0.000 C 
ATOM     18  C   UNL     1       0.444  14.015  21.499  0.00  0.00    +0.000 C 
ATOM     19  O   UNL     1       1.850  14.371  21.599  0.00  0.00    +0.000 OA
ATOM     20  C   UNL     1       2.201  13.042  21.119  0.00  0.00    +0.000 C 
ATOM     21  H   UNL     1      -2.694  12.238  23.342  0.00  0.00    +0.000 HD
ATOM     22  H   UNL     1      -1.225  12.266  24.166  0.00  0.00    +0.000 HD
ENDROOT
BRANCH   8  23
ATOM     23  C   UNL     1       1.858   6.814  19.339  0.00  0.00    +0.000 A 
ATOM     24  C   UNL     1       1.469   6.223  20.553  0.00  0.00    +0.000 A 
ATOM     25  C   UNL     1       1.546   4.840  20.740  0.00  0.00    +0.000 A 
ATOM     26  C   UNL     1       1.991   4.018  19.710  0.00  0.00    +0.000 A 
ATOM     27  C   UNL     1       2.371   4.555  18.476  0.00  0.00    +0.000 A 
ATOM     28  C   UNL     1       2.299   5.953  18.318  0.00  0.00    +0.000 A 
BRANCH  27  29
ATOM     29  C   UNL     1       2.904   3.689  17.359  0.00  0.00    +0.000 C 
ATOM     30  C   UNL     1       4.203   4.024  16.664  0.00  0.00    +0.000 C 
ATOM     31  C   UNL     1       4.143   2.855  17.597  0.00  0.00    +0.000 C 
ENDBRANCH  27  29
ENDBRANCH   8  23
TORSDOF 2
ENDMDL
MODEL 7
REMARK VINA RESULT:      -7.7      3.225      7.707
REMARK  Name = 
REMARK  4 active torsions:
REMARK  status: ('A' for Active; 'I' for Inactive)
REMARK    1  A    between atoms: C_1  and  C_2
REMARK    2  A    between atoms: C_2  and  C_3
REMARK    3  A    between atoms: C_8  and  C_9
REMARK    4  A    between atoms: C_13  and  C_14
REMARK                            x       y       z     vdW  Elec       q    Type
REMARK                         _______ _______ _______ _____ _____    ______ ____
ROOT
ATOM      1  C   UNL     1      -0.656  12.878  19.002  0.00  0.00    +0.000 C 
ATOM      2  C   UNL     1      -0.427  11.390  19.352  0.00  0.00    +0.000 C 
ATOM      3  C   UNL     1      -1.827  10.758  19.331  0.00  0.00    +0.000 C 
ATOM      4  O   UNL     1       0.327  10.827  18.268  0.00  0.00    +0.000 OA
ATOM      5  C   UNL     1       1.088   9.712  18.508  0.00  0.00    +0.000 A 
ATOM      6  C   UNL     1       1.596   9.126  17.354  0.00  0.00    +0.000 A 
ATOM      7  C   UNL     1       2.335   7.950  17.433  0.00  0.00    +0.000 A 
ATOM      8  C   UNL     1       2.637   7.357  18.670  0.00  0.00    +0.000 A 
ATOM      9  C   UNL     1       2.170   8.004  19.838  0.00  0.00    +0.000 A 
ATOM     10  C   UNL     1       1.359   9.156  19.770  0.00  0.00    +0.000 A 
ATOM     11  C   UNL     1       0.621   9.688  20.986  0.00  0.00    +0.000 C 
ATOM     12  C   UNL     1      -0.560   8.739  21.220  0.00  0.00    +0.000 C 
ATOM     13  O   UNL     1      -0.973   9.046  22.529  0.00  0.00    +0.000 OA
ATOM     14  C   UNL     1       0.208   9.376  23.105  0.00  0.00    +0.000 C 
ATOM     15  N   UNL     1       0.073   9.485  24.437  0.00  0.00    +0.000 N 
ATOM     16  N   UNL     1       1.236   9.617  22.346  0.00  0.00    +0.000 NA
ATOM     17  C   UNL     1       0.343  11.191  20.686  0.00  0.00    +0.000 C 
ATOM     18  C   UNL     1       0.042  12.194  21.854  0.00  0.00    +0.000 C 
ATOM     19  O   UNL     1       1.050  13.116  21.356  0.00  0.00    +0.000 OA
ATOM     20  C   UNL     1       1.693  12.009  20.665  0.00  0.00    +0.000 C 
ATOM     21  H   UNL     1      -0.900   9.509  24.736  0.00  0.00    +0.000 HD
ATOM     22  H   UNL     1       0.609  10.252  24.831  0.00  0.00    +0.000 HD
ENDROOT
BRANCH   8  23
ATOM     23  C   UNL     1       3.332   6.042  18.716  0.00  0.00    +0.000 A 
ATOM     24  C   UNL     1       4.365   5.725  17.819  0.00  0.00    +0.000 A 
ATOM     25  C   UNL     1       4.946   4.453  17.806  0.00  0.00    +0.000 A 
ATOM     26  C   UNL     1       4.522   3.482  18.707  0.00  0.00    +0.000 A 
ATOM     27  C   UNL     1       3.510   3.754  19.633  0.00  0.00    +0.000 A 
ATOM     28  C   UNL     1       2.930   5.037  19.614  0.00  0.00    +0.000 A 
BRANCH  27  29
ATOM     29  C   UNL     1       2.998   2.701  20.587  0.00  0.00    +0.000 C 
ATOM     30  C   UNL     1       2.157   3.076  21.786  0.00  0.00    +0.000 C 
ATOM     31  C   UNL     1       1.518   2.389  20.619  0.00  0.00    +0.000 C 
ENDBRANCH  27  29
ENDBRANCH   8  23
TORSDOF 2
ENDMDL
MODEL 8
REMARK VINA RESULT:      -7.7      3.317      7.866
REMARK  Name = 
REMARK  4 active torsions:
REMARK  status: ('A' for Active; 'I' for Inactive)
REMARK    1  A    between atoms: C_1  and  C_2
REMARK    2  A    between atoms: C_2  and  C_3
REMARK    3  A    between atoms: C_8  and  C_9
REMARK    4  A    between atoms: C_13  and  C_14
REMARK                            x       y       z     vdW  Elec       q    Type
REMARK                         _______ _______ _______ _____ _____    ______ ____
ROOT
ATOM      1  C   UNL     1      -0.709  12.895  19.099  0.00  0.00    +0.000 C 
ATOM      2  C   UNL     1      -0.473  11.402  19.417  0.00  0.00    +0.000 C 
ATOM      3  C   UNL     1      -1.873  10.771  19.418  0.00  0.00    +0.000 C 
ATOM      4  O   UNL     1       0.255  10.858  18.305  0.00  0.00    +0.000 OA
ATOM      5  C   UNL     1       1.021   9.738  18.508  0.00  0.00    +0.000 A 
ATOM      6  C   UNL     1       1.502   9.173  17.332  0.00  0.00    +0.000 A 
ATOM      7  C   UNL     1       2.241   7.995  17.373  0.00  0.00    +0.000 A 
ATOM      8  C   UNL     1       2.572   7.381  18.591  0.00  0.00    +0.000 A 
ATOM      9  C   UNL     1       2.134   8.008  19.781  0.00  0.00    +0.000 A 
ATOM     10  C   UNL     1       1.321   9.160  19.753  0.00  0.00    +0.000 A 
ATOM     11  C   UNL     1       0.612   9.671  20.995  0.00  0.00    +0.000 C 
ATOM     12  C   UNL     1      -0.562   8.718  21.240  0.00  0.00    +0.000 C 
ATOM     13  O   UNL     1      -0.945   9.002  22.564  0.00  0.00    +0.000 OA
ATOM     14  C   UNL     1       0.250   9.322  23.117  0.00  0.00    +0.000 C 
ATOM     15  N   UNL     1       0.146   9.407  24.454  0.00  0.00    +0.000 N 
ATOM     16  N   UNL     1       1.260   9.576  22.339  0.00  0.00    +0.000 NA
ATOM     17  C   UNL     1       0.329  11.179  20.729  0.00  0.00    +0.000 C 
ATOM     18  C   UNL     1       0.056  12.161  21.921  0.00  0.00    +0.000 C 
ATOM     19  O   UNL     1       1.052  13.092  21.415  0.00  0.00    +0.000 OA
ATOM     20  C   UNL     1       1.678  11.997  20.690  0.00  0.00    +0.000 C 
ATOM     21  H   UNL     1      -0.819   9.426  24.777  0.00  0.00    +0.000 HD
ATOM     22  H   UNL     1       0.692  10.167  24.849  0.00  0.00    +0.000 HD
ENDROOT
BRANCH   8  23
ATOM     23  C   UNL     1       3.267   6.065  18.598  0.00  0.00    +0.000 A 
ATOM     24  C   UNL     1       3.347   5.282  19.761  0.00  0.00    +0.000 A 
ATOM     25  C   UNL     1       4.083   4.094  19.783  0.00  0.00    +0.000 A 
ATOM     26  C   UNL     1       4.734   3.654  18.635  0.00  0.00    +0.000 A 
ATOM     27  C   UNL     1       4.669   4.387  17.446  0.00  0.00    +0.000 A 
ATOM     28  C   UNL     1       3.934   5.589  17.456  0.00  0.00    +0.000 A 
BRANCH  27  29
ATOM     29  C   UNL     1       5.407   3.955  16.201  0.00  0.00    +0.000 C 
ATOM     30  C   UNL     1       5.626   4.913  15.052  0.00  0.00    +0.000 C 
ATOM     31  C   UNL     1       6.781   4.524  15.922  0.00  0.00    +0.000 C 
ENDBRANCH  27  29
ENDBRANCH   8  23
TORSDOF 2
ENDMDL
MODEL 9
REMARK VINA RESULT:      -7.5      3.271      7.831
REMARK  Name = 
REMARK  4 active torsions:
REMARK  status: ('A' for Active; 'I' for Inactive)
REMARK    1  A    between atoms: C_1  and  C_2
REMARK    2  A    between atoms: C_2  and  C_3
REMARK    3  A    between atoms: C_8  and  C_9
REMARK    4  A    between atoms: C_13  and  C_14
REMARK                            x       y       z     vdW  Elec       q    Type
REMARK                         _______ _______ _______ _____ _____    ______ ____
ROOT
ATOM      1  C   UNL     1      -0.896  12.791  19.091  0.00  0.00    +0.000 C 
ATOM      2  C   UNL     1      -0.599  11.314  19.434  0.00  0.00    +0.000 C 
ATOM      3  C   UNL     1      -1.973  10.629  19.457  0.00  0.00    +0.000 C 
ATOM      4  O   UNL     1       0.142  10.779  18.327  0.00  0.00    +0.000 OA
ATOM      5  C   UNL     1       0.953   9.694  18.544  0.00  0.00    +0.000 A 
ATOM      6  C   UNL     1       1.447   9.127  17.374  0.00  0.00    +0.000 A 
ATOM      7  C   UNL     1       2.232   7.980  17.431  0.00  0.00    +0.000 A 
ATOM      8  C   UNL     1       2.596   7.401  18.658  0.00  0.00    +0.000 A 
ATOM      9  C   UNL     1       2.142   8.032  19.840  0.00  0.00    +0.000 A 
ATOM     10  C   UNL     1       1.285   9.151  19.797  0.00  0.00    +0.000 A 
ATOM     11  C   UNL     1       0.565   9.656  21.035  0.00  0.00    +0.000 C 
ATOM     12  C   UNL     1      -0.570   8.662  21.307  0.00  0.00    +0.000 C 
ATOM     13  O   UNL     1      -0.954   8.956  22.627  0.00  0.00    +0.000 OA
ATOM     14  C   UNL     1       0.232   9.332  23.166  0.00  0.00    +0.000 C 
ATOM     15  N   UNL     1       0.134   9.438  24.502  0.00  0.00    +0.000 N 
ATOM     16  N   UNL     1       1.225   9.612  22.375  0.00  0.00    +0.000 NA
ATOM     17  C   UNL     1       0.220  11.147  20.744  0.00  0.00    +0.000 C 
ATOM     18  C   UNL     1      -0.083  12.139  21.920  0.00  0.00    +0.000 C 
ATOM     19  O   UNL     1       0.872  13.099  21.390  0.00  0.00    +0.000 OA
ATOM     20  C   UNL     1       1.536  12.016  20.680  0.00  0.00    +0.000 C 
ATOM     21  H   UNL     1      -0.829   9.425  24.831  0.00  0.00    +0.000 HD
ATOM     22  H   UNL     1       0.652  10.225  24.879  0.00  0.00    +0.000 HD
ENDROOT
BRANCH   8  23
ATOM     23  C   UNL     1       3.342   6.114  18.683  0.00  0.00    +0.000 A 
ATOM     24  C   UNL     1       2.720   4.910  19.053  0.00  0.00    +0.000 A 
ATOM     25  C   UNL     1       3.450   3.724  19.166  0.00  0.00    +0.000 A 
ATOM     26  C   UNL     1       4.813   3.713  18.888  0.00  0.00    +0.000 A 
ATOM     27  C   UNL     1       5.476   4.881  18.496  0.00  0.00    +0.000 A 
ATOM     28  C   UNL     1       4.720   6.066  18.406  0.00  0.00    +0.000 A 
BRANCH  27  29
ATOM     29  C   UNL     1       6.964   4.905  18.237  0.00  0.00    +0.000 C 
ATOM     30  C   UNL     1       7.675   6.192  17.889  0.00  0.00    +0.000 C 
ATOM     31  C   UNL     1       7.878   5.575  19.238  0.00  0.00    +0.000 C 
ENDBRANCH  27  29
ENDBRANCH   8  23
TORSDOF 2
ENDMDL
