MODEL 1
REMARK VINA RESULT:      -6.9      0.000      0.000
REMARK  Name = 
REMARK  8 active torsions:
REMARK  status: ('A' for Active; 'I' for Inactive)
REMARK    1  A    between atoms: C_2  and  C_3
REMARK    2  A    between atoms: C_3  and  C_4
REMARK    3  A    between atoms: N_12  and  C_13
REMARK    4  A    between atoms: C_13  and  C_14
REMARK    5  A    between atoms: CA_16  and  C_17
REMARK    6  A    between atoms: C_17  and  O_18
REMARK    7  A    between atoms: C_19  and  O_20
REMARK    8  A    between atoms: C_21  and  O_22
REMARK                            x       y       z     vdW  Elec       q    Type
REMARK                         _______ _______ _______ _____ _____    ______ ____
ROOT
ATOM      1  C   UNL     1       5.482   7.232  18.102  0.00  0.00    +0.000 C 
ENDROOT
BRANCH   1   2
ATOM      2  C   UNL     1       6.683   6.900  17.195  0.00  0.00    +0.000 C 
ATOM      3  N   UNL     1       6.208   6.131  16.001  0.00  0.00    +0.000 NA
ATOM      4  CA  UNL     1       6.885   4.805  16.045  0.00  0.00    +0.000 C 
ATOM      5  C   UNL     1       7.377   4.624  17.492  0.00  0.00    +0.000 C 
ATOM      6  C   UNL     1       7.780   6.049  17.858  0.00  0.00    +0.000 C 
ATOM      7  H   UNL     1       6.519   6.626  15.162  0.00  0.00    +0.000 HD
BRANCH   5   8
ATOM      8  O   UNL     1       6.388   4.193  18.436  0.00  0.00    +0.000 OA
ATOM      9  H   UNL     1       6.848   3.700  19.149  0.00  0.00    +0.000 HD
ENDBRANCH   5   8
BRANCH   6  10
ATOM     10  O   UNL     1       7.893   6.217  19.261  0.00  0.00    +0.000 OA
ATOM     11  H   UNL     1       7.426   5.447  19.653  0.00  0.00    +0.000 HD
ENDBRANCH   6  10
BRANCH   4  12
ATOM     12  C   UNL     1       5.926   3.714  15.561  0.00  0.00    +0.000 C 
BRANCH  12  13
ATOM     13  O   UNL     1       6.242   3.352  14.214  0.00  0.00    +0.000 OA
ATOM     14  H   UNL     1       5.382   3.367  13.744  0.00  0.00    +0.000 HD
ENDBRANCH  12  13
ENDBRANCH   4  12
ENDBRANCH   1   2
BRANCH   1  17
ATOM     15  O   UNL     1       2.654   7.579  17.904  0.00  0.00    +0.000 OA
ATOM     16  C   UNL     1       3.120   6.445  17.943  0.00  0.00    +0.000 C 
ATOM     17  N   UNL     1       4.469   6.186  18.018  0.00  0.00    +0.000 N 
ATOM     18  H   UNL     1       4.799   5.230  18.091  0.00  0.00    +0.000 HD
BRANCH  16  19
ATOM     19  C   UNL     1       2.248   5.203  17.894  0.00  0.00    +0.000 C 
BRANCH  19  20
ATOM     20  C   UNL     1       2.372   4.328  19.126  0.00  0.00    +0.000 A 
ATOM     21  C   UNL     1       2.019   4.804  20.404  0.00  0.00    +0.000 A 
ATOM     22 CL   UNL     1       1.484   6.427  20.671  0.00  0.00    +0.000 Cl
ATOM     23  C   UNL     1       2.077   3.972  21.529  0.00  0.00    +0.000 A 
ATOM     24  C   UNL     1       2.509   2.655  21.406  0.00  0.00    +0.000 A 
ATOM     25  C   UNL     1       2.900   2.175  20.162  0.00  0.00    +0.000 A 
ATOM     26  C   UNL     1       2.841   3.002  19.034  0.00  0.00    +0.000 A 
ATOM     27 CL   UNL     1       3.354   2.308  17.530  0.00  0.00    +0.000 Cl
ENDBRANCH  19  20
ENDBRANCH  16  19
ENDBRANCH   1  17
TORSDOF 8
ENDMDL
MODEL 2
REMARK VINA RESULT:      -6.9      0.122      1.955
REMARK  Name = 
REMARK  8 active torsions:
REMARK  status: ('A' for Active; 'I' for Inactive)
REMARK    1  A    between atoms: C_2  and  C_3
REMARK    2  A    between atoms: C_3  and  C_4
REMARK    3  A    between atoms: N_12  and  C_13
REMARK    4  A    between atoms: C_13  and  C_14
REMARK    5  A    between atoms: CA_16  and  C_17
REMARK    6  A    between atoms: C_17  and  O_18
REMARK    7  A    between atoms: C_19  and  O_20
REMARK    8  A    between atoms: C_21  and  O_22
REMARK                            x       y       z     vdW  Elec       q    Type
REMARK                         _______ _______ _______ _____ _____    ______ ____
ROOT
ATOM      1  C   UNL     1       5.529   7.258  18.039  0.00  0.00    +0.000 C 
ENDROOT
BRANCH   1   2
ATOM      2  C   UNL     1       6.744   6.867  17.177  0.00  0.00    +0.000 C 
ATOM      3  N   UNL     1       6.279   6.100  15.978  0.00  0.00    +0.000 NA
ATOM      4  CA  UNL     1       6.903   4.750  16.061  0.00  0.00    +0.000 C 
ATOM      5  C   UNL     1       7.341   4.571  17.526  0.00  0.00    +0.000 C 
ATOM      6  C   UNL     1       7.786   5.984  17.887  0.00  0.00    +0.000 C 
ATOM      7  H   UNL     1       6.635   6.571  15.143  0.00  0.00    +0.000 HD
BRANCH   5   8
ATOM      8  O   UNL     1       6.306   4.192  18.443  0.00  0.00    +0.000 OA
ATOM      9  H   UNL     1       6.734   3.900  19.276  0.00  0.00    +0.000 HD
ENDBRANCH   5   8
BRANCH   6  10
ATOM     10  O   UNL     1       7.860   6.168  19.291  0.00  0.00    +0.000 OA
ATOM     11  H   UNL     1       8.089   7.114  19.417  0.00  0.00    +0.000 HD
ENDBRANCH   6  10
BRANCH   4  12
ATOM     12  C   UNL     1       5.918   3.689  15.561  0.00  0.00    +0.000 C 
BRANCH  12  13
ATOM     13  O   UNL     1       6.240   3.324  14.216  0.00  0.00    +0.000 OA
ATOM     14  H   UNL     1       6.294   2.346  14.229  0.00  0.00    +0.000 HD
ENDBRANCH  12  13
ENDBRANCH   4  12
ENDBRANCH   1   2
BRANCH   1  17
ATOM     15  O   UNL     1       2.708   7.692  18.145  0.00  0.00    +0.000 OA
ATOM     16  C   UNL     1       3.137   6.551  18.012  0.00  0.00    +0.000 C 
ATOM     17  N   UNL     1       4.477   6.253  17.932  0.00  0.00    +0.000 N 
ATOM     18  H   UNL     1       4.779   5.288  17.865  0.00  0.00    +0.000 HD
BRANCH  16  19
ATOM     19  C   UNL     1       2.221   5.344  17.903  0.00  0.00    +0.000 C 
BRANCH  19  20
ATOM     20  C   UNL     1       2.317   4.404  19.089  0.00  0.00    +0.000 A 
ATOM     21  C   UNL     1       2.742   3.069  18.936  0.00  0.00    +0.000 A 
ATOM     22 CL   UNL     1       3.119   2.390  17.391  0.00  0.00    +0.000 Cl
ATOM     23  C   UNL     1       2.888   2.225  20.044  0.00  0.00    +0.000 A 
ATOM     24  C   UNL     1       2.593   2.686  21.322  0.00  0.00    +0.000 A 
ATOM     25  C   UNL     1       2.135   3.987  21.493  0.00  0.00    +0.000 A 
ATOM     26  C   UNL     1       1.990   4.836  20.390  0.00  0.00    +0.000 A 
ATOM     27 CL   UNL     1       1.409   6.439  20.710  0.00  0.00    +0.000 Cl
ENDBRANCH  19  20
ENDBRANCH  16  19
ENDBRANCH   1  17
TORSDOF 8
ENDMDL
MODEL 3
REMARK VINA RESULT:      -6.7      0.908      2.317
REMARK  Name = 
REMARK  8 active torsions:
REMARK  status: ('A' for Active; 'I' for Inactive)
REMARK    1  A    between atoms: C_2  and  C_3
REMARK    2  A    between atoms: C_3  and  C_4
REMARK    3  A    between atoms: N_12  and  C_13
REMARK    4  A    between atoms: C_13  and  C_14
REMARK    5  A    between atoms: CA_16  and  C_17
REMARK    6  A    between atoms: C_17  and  O_18
REMARK    7  A    between atoms: C_19  and  O_20
REMARK    8  A    between atoms: C_21  and  O_22
REMARK                            x       y       z     vdW  Elec       q    Type
REMARK                         _______ _______ _______ _____ _____    ______ ____
ROOT
ATOM      1  C   UNL     1       5.640   6.735  17.561  0.00  0.00    +0.000 C 
ENDROOT
BRANCH   1   2
ATOM      2  C   UNL     1       6.889   5.868  17.311  0.00  0.00    +0.000 C 
ATOM      3  N   UNL     1       7.302   5.991  15.877  0.00  0.00    +0.000 NA
ATOM      4  CA  UNL     1       7.209   4.628  15.284  0.00  0.00    +0.000 C 
ATOM      5  C   UNL     1       6.302   3.813  16.224  0.00  0.00    +0.000 C 
ATOM      6  C   UNL     1       6.702   4.366  17.588  0.00  0.00    +0.000 C 
ATOM      7  H   UNL     1       8.280   6.289  15.854  0.00  0.00    +0.000 HD
BRANCH   5   8
ATOM      8  O   UNL     1       4.893   4.021  16.064  0.00  0.00    +0.000 OA
ATOM      9  H   UNL     1       4.443   3.162  16.215  0.00  0.00    +0.000 HD
ENDBRANCH   5   8
BRANCH   6  10
ATOM     10  O   UNL     1       5.735   4.063  18.579  0.00  0.00    +0.000 OA
ATOM     11  H   UNL     1       5.628   4.888  19.100  0.00  0.00    +0.000 HD
ENDBRANCH   6  10
BRANCH   4  12
ATOM     12  C   UNL     1       6.704   4.721  13.841  0.00  0.00    +0.000 C 
BRANCH  12  13
ATOM     13  O   UNL     1       6.248   3.438  13.403  0.00  0.00    +0.000 OA
ATOM     14  H   UNL     1       7.010   3.054  12.921  0.00  0.00    +0.000 HD
ENDBRANCH  12  13
ENDBRANCH   4  12
ENDBRANCH   1   2
BRANCH   1  17
ATOM     15  O   UNL     1       2.950   7.614  17.946  0.00  0.00    +0.000 OA
ATOM     16  C   UNL     1       3.182   6.414  17.836  0.00  0.00    +0.000 C 
ATOM     17  N   UNL     1       4.443   5.905  17.629  0.00  0.00    +0.000 N 
ATOM     18  H   UNL     1       4.584   4.903  17.588  0.00  0.00    +0.000 HD
BRANCH  16  19
ATOM     19  C   UNL     1       2.087   5.364  17.900  0.00  0.00    +0.000 C 
BRANCH  19  20
ATOM     20  C   UNL     1       2.187   4.460  19.113  0.00  0.00    +0.000 A 
ATOM     21  C   UNL     1       2.457   3.083  18.983  0.00  0.00    +0.000 A 
ATOM     22 CL   UNL     1       2.629   2.315  17.443  0.00  0.00    +0.000 Cl
ATOM     23  C   UNL     1       2.611   2.265  20.109  0.00  0.00    +0.000 A 
ATOM     24  C   UNL     1       2.476   2.799  21.387  0.00  0.00    +0.000 A 
ATOM     25  C   UNL     1       2.170   4.145  21.539  0.00  0.00    +0.000 A 
ATOM     26  C   UNL     1       2.020   4.968  20.417  0.00  0.00    +0.000 A 
ATOM     27 CL   UNL     1       1.636   6.633  20.714  0.00  0.00    +0.000 Cl
ENDBRANCH  19  20
ENDBRANCH  16  19
ENDBRANCH   1  17
TORSDOF 8
ENDMDL
MODEL 4
REMARK VINA RESULT:      -6.7      2.858      6.102
REMARK  Name = 
REMARK  8 active torsions:
REMARK  status: ('A' for Active; 'I' for Inactive)
REMARK    1  A    between atoms: C_2  and  C_3
REMARK    2  A    between atoms: C_3  and  C_4
REMARK    3  A    between atoms: N_12  and  C_13
REMARK    4  A    between atoms: C_13  and  C_14
REMARK    5  A    between atoms: CA_16  and  C_17
REMARK    6  A    between atoms: C_17  and  O_18
REMARK    7  A    between atoms: C_19  and  O_20
REMARK    8  A    between atoms: C_21  and  O_22
REMARK                            x       y       z     vdW  Elec       q    Type
REMARK                         _______ _______ _______ _____ _____    ______ ____
ROOT
ATOM      1  C   UNL     1       4.045   2.516  20.490  0.00  0.00    +0.000 C 
ENDROOT
BRANCH   1   2
ATOM      2  C   UNL     1       2.669   2.202  19.873  0.00  0.00    +0.000 C 
ATOM      3  N   UNL     1       2.559   2.868  18.536  0.00  0.00    +0.000 NA
ATOM      4  CA  UNL     1       1.420   3.824  18.622  0.00  0.00    +0.000 C 
ATOM      5  C   UNL     1       1.173   4.059  20.123  0.00  0.00    +0.000 C 
ATOM      6  C   UNL     1       1.462   2.678  20.700  0.00  0.00    +0.000 C 
ATOM      7  H   UNL     1       2.329   2.151  17.843  0.00  0.00    +0.000 HD
BRANCH   5   8
ATOM      8  O   UNL     1       2.055   4.993  20.761  0.00  0.00    +0.000 OA
ATOM      9  H   UNL     1       1.728   5.140  21.674  0.00  0.00    +0.000 HD
ENDBRANCH   5   8
BRANCH   6  10
ATOM     10  O   UNL     1       1.689   2.732  22.099  0.00  0.00    +0.000 OA
ATOM     11  H   UNL     1       2.247   3.526  22.242  0.00  0.00    +0.000 HD
ENDBRANCH   6  10
BRANCH   4  12
ATOM     12  C   UNL     1       1.743   5.093  17.827  0.00  0.00    +0.000 C 
BRANCH  12  13
ATOM     13  O   UNL     1       2.287   6.087  18.699  0.00  0.00    +0.000 OA
ATOM     14  H   UNL     1       1.561   6.297  19.322  0.00  0.00    +0.000 HD
ENDBRANCH  12  13
ENDBRANCH   4  12
ENDBRANCH   1   2
BRANCH   1  17
ATOM     15  O   UNL     1       4.698   5.171  19.666  0.00  0.00    +0.000 OA
ATOM     16  C   UNL     1       5.236   4.218  19.111  0.00  0.00    +0.000 C 
ATOM     17  N   UNL     1       4.995   2.909  19.457  0.00  0.00    +0.000 N 
ATOM     18  H   UNL     1       5.434   2.158  18.936  0.00  0.00    +0.000 HD
BRANCH  16  19
ATOM     19  C   UNL     1       6.244   4.393  17.988  0.00  0.00    +0.000 C 
BRANCH  19  20
ATOM     20  C   UNL     1       6.818   5.794  17.904  0.00  0.00    +0.000 A 
ATOM     21  C   UNL     1       6.341   6.728  16.963  0.00  0.00    +0.000 A 
ATOM     22 CL   UNL     1       5.123   6.332  15.802  0.00  0.00    +0.000 Cl
ATOM     23  C   UNL     1       6.832   8.039  16.932  0.00  0.00    +0.000 A 
ATOM     24  C   UNL     1       7.823   8.439  17.823  0.00  0.00    +0.000 A 
ATOM     25  C   UNL     1       8.337   7.524  18.733  0.00  0.00    +0.000 A 
ATOM     26  C   UNL     1       7.847   6.213  18.771  0.00  0.00    +0.000 A 
ATOM     27 CL   UNL     1       8.556   5.148  19.942  0.00  0.00    +0.000 Cl
ENDBRANCH  19  20
ENDBRANCH  16  19
ENDBRANCH   1  17
TORSDOF 8
ENDMDL
MODEL 5
REMARK VINA RESULT:      -6.6      0.965      1.293
REMARK  Name = 
REMARK  8 active torsions:
REMARK  status: ('A' for Active; 'I' for Inactive)
REMARK    1  A    between atoms: C_2  and  C_3
REMARK    2  A    between atoms: C_3  and  C_4
REMARK    3  A    between atoms: N_12  and  C_13
REMARK    4  A    between atoms: C_13  and  C_14
REMARK    5  A    between atoms: CA_16  and  C_17
REMARK    6  A    between atoms: C_17  and  O_18
REMARK    7  A    between atoms: C_19  and  O_20
REMARK    8  A    between atoms: C_21  and  O_22
REMARK                            x       y       z     vdW  Elec       q    Type
REMARK                         _______ _______ _______ _____ _____    ______ ____
ROOT
ATOM      1  C   UNL     1       5.265   6.865  17.396  0.00  0.00    +0.000 C 
ENDROOT
BRANCH   1   2
ATOM      2  C   UNL     1       6.579   6.064  17.330  0.00  0.00    +0.000 C 
ATOM      3  N   UNL     1       7.150   6.156  15.949  0.00  0.00    +0.000 NA
ATOM      4  CA  UNL     1       7.201   4.768  15.410  0.00  0.00    +0.000 C 
ATOM      5  C   UNL     1       6.236   3.938  16.275  0.00  0.00    +0.000 C 
ATOM      6  C   UNL     1       6.443   4.565  17.650  0.00  0.00    +0.000 C 
ATOM      7  H   UNL     1       8.107   6.510  16.024  0.00  0.00    +0.000 HD
BRANCH   5   8
ATOM      8  O   UNL     1       4.846   4.056  15.946  0.00  0.00    +0.000 OA
ATOM      9  H   UNL     1       4.333   4.000  16.780  0.00  0.00    +0.000 HD
ENDBRANCH   5   8
BRANCH   6  10
ATOM     10  O   UNL     1       5.384   4.243  18.537  0.00  0.00    +0.000 OA
ATOM     11  H   UNL     1       4.572   4.250  17.985  0.00  0.00    +0.000 HD
ENDBRANCH   6  10
BRANCH   4  12
ATOM     12  C   UNL     1       6.864   4.776  13.916  0.00  0.00    +0.000 C 
BRANCH  12  13
ATOM     13  O   UNL     1       6.346   3.501  13.528  0.00  0.00    +0.000 OA
ATOM     14  H   UNL     1       6.936   3.201  12.805  0.00  0.00    +0.000 HD
ENDBRANCH  12  13
ENDBRANCH   4  12
ENDBRANCH   1   2
BRANCH   1  17
ATOM     15  O   UNL     1       2.551   7.594  17.906  0.00  0.00    +0.000 OA
ATOM     16  C   UNL     1       2.847   6.408  17.804  0.00  0.00    +0.000 C 
ATOM     17  N   UNL     1       4.123   5.969  17.540  0.00  0.00    +0.000 N 
ATOM     18  H   UNL     1       4.321   4.975  17.508  0.00  0.00    +0.000 HD
BRANCH  16  19
ATOM     19  C   UNL     1       1.820   5.298  17.942  0.00  0.00    +0.000 C 
BRANCH  19  20
ATOM     20  C   UNL     1       2.036   4.423  19.162  0.00  0.00    +0.000 A 
ATOM     21  C   UNL     1       1.950   4.948  20.467  0.00  0.00    +0.000 A 
ATOM     22 CL   UNL     1       1.660   6.626  20.772  0.00  0.00    +0.000 Cl
ATOM     23  C   UNL     1       2.089   4.123  21.590  0.00  0.00    +0.000 A 
ATOM     24  C   UNL     1       2.337   2.764  21.435  0.00  0.00    +0.000 A 
ATOM     25  C   UNL     1       2.466   2.231  20.159  0.00  0.00    +0.000 A 
ATOM     26  C   UNL     1       2.324   3.050  19.032  0.00  0.00    +0.000 A 
ATOM     27 CL   UNL     1       2.505   2.288  17.485  0.00  0.00    +0.000 Cl
ENDBRANCH  19  20
ENDBRANCH  16  19
ENDBRANCH   1  17
TORSDOF 8
ENDMDL
MODEL 6
REMARK VINA RESULT:      -6.5      1.896      3.304
REMARK  Name = 
REMARK  8 active torsions:
REMARK  status: ('A' for Active; 'I' for Inactive)
REMARK    1  A    between atoms: C_2  and  C_3
REMARK    2  A    between atoms: C_3  and  C_4
REMARK    3  A    between atoms: N_12  and  C_13
REMARK    4  A    between atoms: C_13  and  C_14
REMARK    5  A    between atoms: CA_16  and  C_17
REMARK    6  A    between atoms: C_17  and  O_18
REMARK    7  A    between atoms: C_19  and  O_20
REMARK    8  A    between atoms: C_21  and  O_22
REMARK                            x       y       z     vdW  Elec       q    Type
REMARK                         _______ _______ _______ _____ _____    ______ ____
ROOT
ATOM      1  C   UNL     1       6.816   4.473  17.562  0.00  0.00    +0.000 C 
ENDROOT
BRANCH   1   2
ATOM      2  C   UNL     1       6.624   5.803  18.315  0.00  0.00    +0.000 C 
ATOM      3  N   UNL     1       5.212   5.898  18.806  0.00  0.00    +0.000 NA
ATOM      4  CA  UNL     1       4.609   7.093  18.153  0.00  0.00    +0.000 C 
ATOM      5  C   UNL     1       5.500   7.413  16.939  0.00  0.00    +0.000 C 
ATOM      6  C   UNL     1       6.884   7.066  17.477  0.00  0.00    +0.000 C 
ATOM      7  H   UNL     1       5.238   6.059  19.815  0.00  0.00    +0.000 HD
BRANCH   5   8
ATOM      8  O   UNL     1       5.272   6.612  15.771  0.00  0.00    +0.000 OA
ATOM      9  H   UNL     1       4.314   6.651  15.562  0.00  0.00    +0.000 HD
ENDBRANCH   5   8
BRANCH   6  10
ATOM     10  O   UNL     1       7.826   6.899  16.430  0.00  0.00    +0.000 OA
ATOM     11  H   UNL     1       8.691   7.156  16.816  0.00  0.00    +0.000 HD
ENDBRANCH   6  10
BRANCH   4  12
ATOM     12  C   UNL     1       3.143   6.814  17.806  0.00  0.00    +0.000 C 
BRANCH  12  13
ATOM     13  O   UNL     1       2.313   7.117  18.930  0.00  0.00    +0.000 OA
ATOM     14  H   UNL     1       1.514   6.563  18.805  0.00  0.00    +0.000 HD
ENDBRANCH  12  13
ENDBRANCH   4  12
ENDBRANCH   1   2
BRANCH   1  17
ATOM     15  O   UNL     1       4.328   4.020  16.236  0.00  0.00    +0.000 OA
ATOM     16  C   UNL     1       4.598   3.377  17.245  0.00  0.00    +0.000 C 
ATOM     17  N   UNL     1       5.780   3.516  17.934  0.00  0.00    +0.000 N 
ATOM     18  H   UNL     1       5.935   2.991  18.787  0.00  0.00    +0.000 HD
BRANCH  16  19
ATOM     19  C   UNL     1       3.654   2.340  17.828  0.00  0.00    +0.000 C 
BRANCH  19  20
ATOM     20  C   UNL     1       2.914   2.822  19.061  0.00  0.00    +0.000 A 
ATOM     21  C   UNL     1       1.736   3.589  18.959  0.00  0.00    +0.000 A 
ATOM     22 CL   UNL     1       1.087   4.088  17.436  0.00  0.00    +0.000 Cl
ATOM     23  C   UNL     1       1.024   3.977  20.100  0.00  0.00    +0.000 A 
ATOM     24  C   UNL     1       1.483   3.630  21.366  0.00  0.00    +0.000 A 
ATOM     25  C   UNL     1       2.663   2.908  21.493  0.00  0.00    +0.000 A 
ATOM     26  C   UNL     1       3.377   2.514  20.356  0.00  0.00    +0.000 A 
ATOM     27 CL   UNL     1       4.839   1.620  20.622  0.00  0.00    +0.000 Cl
ENDBRANCH  19  20
ENDBRANCH  16  19
ENDBRANCH   1  17
TORSDOF 8
ENDMDL
MODEL 7
REMARK VINA RESULT:      -6.4      1.466      2.606
REMARK  Name = 
REMARK  8 active torsions:
REMARK  status: ('A' for Active; 'I' for Inactive)
REMARK    1  A    between atoms: C_2  and  C_3
REMARK    2  A    between atoms: C_3  and  C_4
REMARK    3  A    between atoms: N_12  and  C_13
REMARK    4  A    between atoms: C_13  and  C_14
REMARK    5  A    between atoms: CA_16  and  C_17
REMARK    6  A    between atoms: C_17  and  O_18
REMARK    7  A    between atoms: C_19  and  O_20
REMARK    8  A    between atoms: C_21  and  O_22
REMARK                            x       y       z     vdW  Elec       q    Type
REMARK                         _______ _______ _______ _____ _____    ______ ____
ROOT
ATOM      1  C   UNL     1       4.919   4.907  15.634  0.00  0.00    +0.000 C 
ENDROOT
BRANCH   1   2
ATOM      2  C   UNL     1       6.095   4.110  16.228  0.00  0.00    +0.000 C 
ATOM      3  N   UNL     1       5.965   4.065  17.719  0.00  0.00    +0.000 NA
ATOM      4  CA  UNL     1       7.170   4.738  18.278  0.00  0.00    +0.000 C 
ATOM      5  C   UNL     1       7.759   5.581  17.132  0.00  0.00    +0.000 C 
ATOM      6  C   UNL     1       7.489   4.687  15.926  0.00  0.00    +0.000 C 
ATOM      7  H   UNL     1       5.977   3.085  18.009  0.00  0.00    +0.000 HD
BRANCH   5   8
ATOM      8  O   UNL     1       7.119   6.841  16.894  0.00  0.00    +0.000 OA
ATOM      9  H   UNL     1       6.314   6.880  17.454  0.00  0.00    +0.000 HD
ENDBRANCH   5   8
BRANCH   6  10
ATOM     10  O   UNL     1       7.579   5.409  14.709  0.00  0.00    +0.000 OA
ATOM     11  H   UNL     1       8.531   5.393  14.468  0.00  0.00    +0.000 HD
ENDBRANCH   6  10
BRANCH   4  12
ATOM     12  C   UNL     1       6.789   5.542  19.524  0.00  0.00    +0.000 C 
BRANCH  12  13
ATOM     13  O   UNL     1       7.847   5.480  20.484  0.00  0.00    +0.000 OA
ATOM     14  H   UNL     1       8.450   4.786  20.147  0.00  0.00    +0.000 HD
ENDBRANCH  12  13
ENDBRANCH   4  12
ENDBRANCH   1   2
BRANCH   1  17
ATOM     15  O   UNL     1       3.748   6.425  17.750  0.00  0.00    +0.000 OA
ATOM     16  C   UNL     1       3.200   5.394  17.375  0.00  0.00    +0.000 C 
ATOM     17  N   UNL     1       3.683   4.613  16.351  0.00  0.00    +0.000 N 
ATOM     18  H   UNL     1       3.215   3.747  16.110  0.00  0.00    +0.000 HD
BRANCH  16  19
ATOM     19  C   UNL     1       1.913   4.882  17.997  0.00  0.00    +0.000 C 
BRANCH  19  20
ATOM     20  C   UNL     1       2.129   4.111  19.285  0.00  0.00    +0.000 A 
ATOM     21  C   UNL     1       2.032   4.738  20.543  0.00  0.00    +0.000 A 
ATOM     22 CL   UNL     1       1.726   6.432  20.710  0.00  0.00    +0.000 Cl
ATOM     23  C   UNL     1       2.171   4.008  21.729  0.00  0.00    +0.000 A 
ATOM     24  C   UNL     1       2.432   2.642  21.686  0.00  0.00    +0.000 A 
ATOM     25  C   UNL     1       2.571   2.009  20.457  0.00  0.00    +0.000 A 
ATOM     26  C   UNL     1       2.430   2.734  19.268  0.00  0.00    +0.000 A 
ATOM     27 CL   UNL     1       2.625   1.852  17.788  0.00  0.00    +0.000 Cl
ENDBRANCH  19  20
ENDBRANCH  16  19
ENDBRANCH   1  17
TORSDOF 8
ENDMDL
MODEL 8
REMARK VINA RESULT:      -6.4      1.880      3.438
REMARK  Name = 
REMARK  8 active torsions:
REMARK  status: ('A' for Active; 'I' for Inactive)
REMARK    1  A    between atoms: C_2  and  C_3
REMARK    2  A    between atoms: C_3  and  C_4
REMARK    3  A    between atoms: N_12  and  C_13
REMARK    4  A    between atoms: C_13  and  C_14
REMARK    5  A    between atoms: CA_16  and  C_17
REMARK    6  A    between atoms: C_17  and  O_18
REMARK    7  A    between atoms: C_19  and  O_20
REMARK    8  A    between atoms: C_21  and  O_22
REMARK                            x       y       z     vdW  Elec       q    Type
REMARK                         _______ _______ _______ _____ _____    ______ ____
ROOT
ATOM      1  C   UNL     1       6.848   4.530  17.621  0.00  0.00    +0.000 C 
ENDROOT
BRANCH   1   2
ATOM      2  C   UNL     1       6.619   5.870  18.344  0.00  0.00    +0.000 C 
ATOM      3  N   UNL     1       5.196   5.953  18.804  0.00  0.00    +0.000 NA
ATOM      4  CA  UNL     1       4.588   7.125  18.116  0.00  0.00    +0.000 C 
ATOM      5  C   UNL     1       5.498   7.436  16.914  0.00  0.00    +0.000 C 
ATOM      6  C   UNL     1       6.876   7.122  17.487  0.00  0.00    +0.000 C 
ATOM      7  H   UNL     1       5.199   6.133  19.811  0.00  0.00    +0.000 HD
BRANCH   5   8
ATOM      8  O   UNL     1       5.307   6.610  15.759  0.00  0.00    +0.000 OA
ATOM      9  H   UNL     1       5.813   7.007  15.017  0.00  0.00    +0.000 HD
ENDBRANCH   5   8
BRANCH   6  10
ATOM     10  O   UNL     1       7.842   6.950  16.463  0.00  0.00    +0.000 OA
ATOM     11  H   UNL     1       7.495   6.225  15.898  0.00  0.00    +0.000 HD
ENDBRANCH   6  10
BRANCH   4  12
ATOM     12  C   UNL     1       3.134   6.816  17.746  0.00  0.00    +0.000 C 
BRANCH  12  13
ATOM     13  O   UNL     1       2.259   7.294  18.771  0.00  0.00    +0.000 OA
ATOM     14  H   UNL     1       1.377   7.332  18.348  0.00  0.00    +0.000 HD
ENDBRANCH  12  13
ENDBRANCH   4  12
ENDBRANCH   1   2
BRANCH   1  17
ATOM     15  O   UNL     1       4.421   4.048  16.194  0.00  0.00    +0.000 OA
ATOM     16  C   UNL     1       4.648   3.421  17.224  0.00  0.00    +0.000 C 
ATOM     17  N   UNL     1       5.798   3.575  17.962  0.00  0.00    +0.000 N 
ATOM     18  H   UNL     1       5.917   3.064  18.829  0.00  0.00    +0.000 HD
BRANCH  16  19
ATOM     19  C   UNL     1       3.682   2.391  17.780  0.00  0.00    +0.000 C 
BRANCH  19  20
ATOM     20  C   UNL     1       2.944   2.862  19.019  0.00  0.00    +0.000 A 
ATOM     21  C   UNL     1       3.406   2.550  20.313  0.00  0.00    +0.000 A 
ATOM     22 CL   UNL     1       4.799   1.561  20.584  0.00  0.00    +0.000 Cl
ATOM     23  C   UNL     1       2.756   3.041  21.452  0.00  0.00    +0.000 A 
ATOM     24  C   UNL     1       1.620   3.833  21.325  0.00  0.00    +0.000 A 
ATOM     25  C   UNL     1       1.123   4.121  20.060  0.00  0.00    +0.000 A 
ATOM     26  C   UNL     1       1.771   3.637  18.918  0.00  0.00    +0.000 A 
ATOM     27 CL   UNL     1       1.069   4.050  17.387  0.00  0.00    +0.000 Cl
ENDBRANCH  19  20
ENDBRANCH  16  19
ENDBRANCH   1  17
TORSDOF 8
ENDMDL
MODEL 9
REMARK VINA RESULT:      -6.3      2.806      6.185
REMARK  Name = 
REMARK  8 active torsions:
REMARK  status: ('A' for Active; 'I' for Inactive)
REMARK    1  A    between atoms: C_2  and  C_3
REMARK    2  A    between atoms: C_3  and  C_4
REMARK    3  A    between atoms: N_12  and  C_13
REMARK    4  A    between atoms: C_13  and  C_14
REMARK    5  A    between atoms: CA_16  and  C_17
REMARK    6  A    between atoms: C_17  and  O_18
REMARK    7  A    between atoms: C_19  and  O_20
REMARK    8  A    between atoms: C_21  and  O_22
REMARK                            x       y       z     vdW  Elec       q    Type
REMARK                         _______ _______ _______ _____ _____    ______ ____
ROOT
ATOM      1  C   UNL     1       3.455   2.592  19.505  0.00  0.00    +0.000 C 
ENDROOT
BRANCH   1   2
ATOM      2  C   UNL     1       2.155   3.218  18.966  0.00  0.00    +0.000 C 
ATOM      3  N   UNL     1       2.472   4.507  18.273  0.00  0.00    +0.000 NA
ATOM      4  CA  UNL     1       1.751   5.582  19.010  0.00  0.00    +0.000 C 
ATOM      5  C   UNL     1       1.404   4.995  20.390  0.00  0.00    +0.000 C 
ATOM      6  C   UNL     1       1.099   3.544  20.036  0.00  0.00    +0.000 C 
ATOM      7  H   UNL     1       2.097   4.457  17.323  0.00  0.00    +0.000 HD
BRANCH   5   8
ATOM      8  O   UNL     1       2.467   4.996  21.352  0.00  0.00    +0.000 OA
ATOM      9  H   UNL     1       2.420   4.154  21.853  0.00  0.00    +0.000 HD
ENDBRANCH   5   8
BRANCH   6  10
ATOM     10  O   UNL     1       1.138   2.707  21.180  0.00  0.00    +0.000 OA
ATOM     11  H   UNL     1       0.715   1.866  20.901  0.00  0.00    +0.000 HD
ENDBRANCH   6  10
BRANCH   4  12
ATOM     12  C   UNL     1       2.611   6.849  19.059  0.00  0.00    +0.000 C 
BRANCH  12  13
ATOM     13  O   UNL     1       2.260   7.630  20.204  0.00  0.00    +0.000 OA
ATOM     14  H   UNL     1       1.291   7.516  20.296  0.00  0.00    +0.000 HD
ENDBRANCH  12  13
ENDBRANCH   4  12
ENDBRANCH   1   2
BRANCH   1  17
ATOM     15  O   UNL     1       5.131   4.876  19.860  0.00  0.00    +0.000 OA
ATOM     16  C   UNL     1       5.339   4.117  18.919  0.00  0.00    +0.000 C 
ATOM     17  N   UNL     1       4.595   2.985  18.685  0.00  0.00    +0.000 N 
ATOM     18  H   UNL     1       4.781   2.415  17.867  0.00  0.00    +0.000 HD
BRANCH  16  19
ATOM     19  C   UNL     1       6.461   4.345  17.921  0.00  0.00    +0.000 C 
BRANCH  19  20
ATOM     20  C   UNL     1       6.938   5.784  17.866  0.00  0.00    +0.000 A 
ATOM     21  C   UNL     1       6.409   6.698  16.932  0.00  0.00    +0.000 A 
ATOM     22 CL   UNL     1       5.237   6.236  15.748  0.00  0.00    +0.000 Cl
ATOM     23  C   UNL     1       6.808   8.040  16.928  0.00  0.00    +0.000 A 
ATOM     24  C   UNL     1       7.757   8.493  17.838  0.00  0.00    +0.000 A 
ATOM     25  C   UNL     1       8.321   7.602  18.742  0.00  0.00    +0.000 A 
ATOM     26  C   UNL     1       7.923   6.260  18.754  0.00  0.00    +0.000 A 
ATOM     27 CL   UNL     1       8.689   5.228  19.918  0.00  0.00    +0.000 Cl
ENDBRANCH  19  20
ENDBRANCH  16  19
ENDBRANCH   1  17
TORSDOF 8
ENDMDL
