MODEL 1
REMARK VINA RESULT:      -8.0      0.000      0.000
REMARK  Name = 
REMARK  6 active torsions:
REMARK  status: ('A' for Active; 'I' for Inactive)
REMARK    1  A    between atoms: C_1  and  C_2
REMARK    2  A    between atoms: N_10  and  C_11
REMARK    3  A    between atoms: C_11  and  C_12
REMARK    4  A    between atoms: C_12  and  O_14
REMARK    5  A    between atoms: C_17  and  N_18
REMARK    6  A    between atoms: N_18  and  C_19
REMARK                            x       y       z     vdW  Elec       q    Type
REMARK                         _______ _______ _______ _____ _____    ______ ____
ROOT
ATOM      1  C   UNL     1       5.906   5.330  15.177  0.00  0.00    +0.000 C 
ATOM      2  C   UNL     1       5.140   5.165  16.457  0.00  0.00    +0.000 A 
ATOM      3  C   UNL     1       5.258   4.019  17.245  0.00  0.00    +0.000 A 
ATOM      4  C   UNL     1       4.551   3.878  18.452  0.00  0.00    +0.000 A 
ATOM      5  C   UNL     1       3.710   4.928  18.863  0.00  0.00    +0.000 A 
ATOM      6  C   UNL     1       3.569   6.078  18.078  0.00  0.00    +0.000 A 
ATOM      7  C   UNL     1       4.289   6.194  16.873  0.00  0.00    +0.000 A 
ATOM      8  C   UNL     1       2.671   6.943  18.745  0.00  0.00    +0.000 A 
ATOM      9  C   UNL     1       2.298   6.336  19.926  0.00  0.00    +0.000 A 
ATOM     10  N   UNL     1       2.927   5.112  19.998  0.00  0.00    +0.000 N 
ATOM     11  C   UNL     1       1.371   6.937  20.935  0.00  0.00    +0.000 C 
ATOM     12  C   UNL     1       1.225   8.453  20.683  0.00  0.00    +0.000 C 
ATOM     13  C   UNL     1       1.018   8.784  19.178  0.00  0.00    +0.000 C 
ATOM     14  C   UNL     1       2.225   8.309  18.335  0.00  0.00    +0.000 C 
ENDROOT
BRANCH  13  15
ATOM     15  N   UNL     1       0.747  10.222  18.989  0.00  0.00    +0.000 N 
ATOM     16  C   UNL     1       1.806  11.122  18.549  0.00  0.00    +0.000 C 
ATOM     17  C   UNL     1      -0.517  10.599  18.540  0.00  0.00    +0.000 A 
ATOM     18  N   UNL     1      -1.497   9.681  18.446  0.00  0.00    +0.000 NA
ATOM     19  C   UNL     1      -2.709  10.092  18.002  0.00  0.00    +0.000 A 
ATOM     20  C   UNL     1      -2.993  11.385  17.646  0.00  0.00    +0.000 A 
ATOM     21 CL   UNL     1      -4.528  11.873  17.081  0.00  0.00    +0.000 Cl
ATOM     22  C   UNL     1      -1.945  12.258  17.775  0.00  0.00    +0.000 A 
ATOM     23  N   UNL     1      -0.719  11.891  18.210  0.00  0.00    +0.000 NA
ENDBRANCH  13  15
BRANCH  10  24
ATOM     24  C   UNL     1       2.867   4.196  21.135  0.00  0.00    +0.000 C 
BRANCH  24  25
ATOM     25  C   UNL     1       1.629   3.338  21.222  0.00  0.00    +0.000 C 
ATOM     26  O   UNL     1       1.491   2.465  22.071  0.00  0.00    +0.000 OA
BRANCH  25  27
ATOM     27  O   UNL     1       0.702   3.523  20.254  0.00  0.00    +0.000 OA
ATOM     28  H   UNL     1      -0.014   4.152  20.476  0.00  0.00    +0.000 HD
ENDBRANCH  25  27
ENDBRANCH  24  25
ENDBRANCH  10  24
TORSDOF 4
ENDMDL
MODEL 2
REMARK VINA RESULT:      -7.7      1.193      1.320
REMARK  Name = 
REMARK  6 active torsions:
REMARK  status: ('A' for Active; 'I' for Inactive)
REMARK    1  A    between atoms: C_1  and  C_2
REMARK    2  A    between atoms: N_10  and  C_11
REMARK    3  A    between atoms: C_11  and  C_12
REMARK    4  A    between atoms: C_12  and  O_14
REMARK    5  A    between atoms: C_17  and  N_18
REMARK    6  A    between atoms: N_18  and  C_19
REMARK                            x       y       z     vdW  Elec       q    Type
REMARK                         _______ _______ _______ _____ _____    ______ ____
ROOT
ATOM      1  C   UNL     1       6.086   5.143  14.782  0.00  0.00    +0.000 C 
ATOM      2  C   UNL     1       5.248   4.983  16.017  0.00  0.00    +0.000 A 
ATOM      3  C   UNL     1       5.167   3.770  16.703  0.00  0.00    +0.000 A 
ATOM      4  C   UNL     1       4.394   3.633  17.869  0.00  0.00    +0.000 A 
ATOM      5  C   UNL     1       3.692   4.756  18.345  0.00  0.00    +0.000 A 
ATOM      6  C   UNL     1       3.751   5.976  17.662  0.00  0.00    +0.000 A 
ATOM      7  C   UNL     1       4.533   6.087  16.497  0.00  0.00    +0.000 A 
ATOM      8  C   UNL     1       2.956   6.903  18.375  0.00  0.00    +0.000 A 
ATOM      9  C   UNL     1       2.448   6.259  19.485  0.00  0.00    +0.000 A 
ATOM     10  N   UNL     1       2.894   4.955  19.466  0.00  0.00    +0.000 N 
ATOM     11  C   UNL     1       1.572   6.901  20.512  0.00  0.00    +0.000 C 
ATOM     12  C   UNL     1       1.653   8.438  20.393  0.00  0.00    +0.000 C 
ATOM     13  C   UNL     1       1.564   8.921  18.918  0.00  0.00    +0.000 C 
ATOM     14  C   UNL     1       2.727   8.349  18.075  0.00  0.00    +0.000 C 
ENDROOT
BRANCH  13  15
ATOM     15  N   UNL     1       1.507  10.394  18.850  0.00  0.00    +0.000 N 
ATOM     16  C   UNL     1       2.319  11.120  17.881  0.00  0.00    +0.000 C 
ATOM     17  C   UNL     1       0.294  11.020  19.129  0.00  0.00    +0.000 A 
ATOM     18  N   UNL     1      -0.738  10.299  19.605  0.00  0.00    +0.000 NA
ATOM     19  C   UNL     1      -1.899  10.948  19.861  0.00  0.00    +0.000 A 
ATOM     20  C   UNL     1      -2.081  12.292  19.663  0.00  0.00    +0.000 A 
ATOM     21 CL   UNL     1      -3.560  13.083  19.985  0.00  0.00    +0.000 Cl
ATOM     22  C   UNL     1      -0.983  12.954  19.182  0.00  0.00    +0.000 A 
ATOM     23  N   UNL     1       0.193  12.346  18.910  0.00  0.00    +0.000 NA
ENDBRANCH  13  15
BRANCH  10  24
ATOM     24  C   UNL     1       2.654   3.965  20.514  0.00  0.00    +0.000 C 
BRANCH  24  25
ATOM     25  C   UNL     1       1.390   3.154  20.373  0.00  0.00    +0.000 C 
ATOM     26  O   UNL     1       0.847   2.962  19.290  0.00  0.00    +0.000 OA
BRANCH  25  27
ATOM     27  O   UNL     1       0.828   2.711  21.522  0.00  0.00    +0.000 OA
ATOM     28  H   UNL     1      -0.126   2.905  21.622  0.00  0.00    +0.000 HD
ENDBRANCH  25  27
ENDBRANCH  24  25
ENDBRANCH  10  24
TORSDOF 4
ENDMDL
MODEL 3
REMARK VINA RESULT:      -7.6      2.924      4.462
REMARK  Name = 
REMARK  6 active torsions:
REMARK  status: ('A' for Active; 'I' for Inactive)
REMARK    1  A    between atoms: C_1  and  C_2
REMARK    2  A    between atoms: N_10  and  C_11
REMARK    3  A    between atoms: C_11  and  C_12
REMARK    4  A    between atoms: C_12  and  O_14
REMARK    5  A    between atoms: C_17  and  N_18
REMARK    6  A    between atoms: N_18  and  C_19
REMARK                            x       y       z     vdW  Elec       q    Type
REMARK                         _______ _______ _______ _____ _____    ______ ____
ROOT
ATOM      1  C   UNL     1       1.606   2.501  22.134  0.00  0.00    +0.000 C 
ATOM      2  C   UNL     1       2.290   3.252  21.030  0.00  0.00    +0.000 A 
ATOM      3  C   UNL     1       3.267   2.658  20.228  0.00  0.00    +0.000 A 
ATOM      4  C   UNL     1       3.891   3.362  19.185  0.00  0.00    +0.000 A 
ATOM      5  C   UNL     1       3.511   4.696  18.953  0.00  0.00    +0.000 A 
ATOM      6  C   UNL     1       2.544   5.311  19.756  0.00  0.00    +0.000 A 
ATOM      7  C   UNL     1       1.933   4.584  20.795  0.00  0.00    +0.000 A 
ATOM      8  C   UNL     1       2.374   6.633  19.283  0.00  0.00    +0.000 A 
ATOM      9  C   UNL     1       3.206   6.804  18.196  0.00  0.00    +0.000 A 
ATOM     10  N   UNL     1       3.898   5.628  17.996  0.00  0.00    +0.000 N 
ATOM     11  C   UNL     1       3.309   8.061  17.393  0.00  0.00    +0.000 C 
ATOM     12  C   UNL     1       2.095   8.972  17.676  0.00  0.00    +0.000 C 
ATOM     13  C   UNL     1       1.772   9.070  19.193  0.00  0.00    +0.000 C 
ATOM     14  C   UNL     1       1.431   7.680  19.780  0.00  0.00    +0.000 C 
ENDROOT
BRANCH  13  15
ATOM     15  N   UNL     1       0.697  10.051  19.439  0.00  0.00    +0.000 N 
ATOM     16  C   UNL     1      -0.275   9.829  20.502  0.00  0.00    +0.000 C 
ATOM     17  C   UNL     1       0.973  11.398  19.219  0.00  0.00    +0.000 A 
ATOM     18  N   UNL     1       2.134  11.759  18.642  0.00  0.00    +0.000 NA
ATOM     19  C   UNL     1       2.361  13.081  18.449  0.00  0.00    +0.000 A 
ATOM     20  C   UNL     1       1.478  14.067  18.806  0.00  0.00    +0.000 A 
ATOM     21 CL   UNL     1       1.795  15.726  18.559  0.00  0.00    +0.000 Cl
ATOM     22  C   UNL     1       0.320  13.617  19.381  0.00  0.00    +0.000 A 
ATOM     23  N   UNL     1       0.054  12.309  19.596  0.00  0.00    +0.000 NA
ENDBRANCH  13  15
BRANCH  10  24
ATOM     24  C   UNL     1       4.815   5.365  16.888  0.00  0.00    +0.000 C 
BRANCH  24  25
ATOM     25  C   UNL     1       6.284   5.427  17.224  0.00  0.00    +0.000 C 
ATOM     26  O   UNL     1       6.939   6.460  17.127  0.00  0.00    +0.000 OA
BRANCH  25  27
ATOM     27  O   UNL     1       6.873   4.257  17.562  0.00  0.00    +0.000 OA
ATOM     28  H   UNL     1       6.349   3.681  18.155  0.00  0.00    +0.000 HD
ENDBRANCH  25  27
ENDBRANCH  24  25
ENDBRANCH  10  24
TORSDOF 4
ENDMDL
MODEL 4
REMARK VINA RESULT:      -7.4      2.311      3.801
REMARK  Name = 
REMARK  6 active torsions:
REMARK  status: ('A' for Active; 'I' for Inactive)
REMARK    1  A    between atoms: C_1  and  C_2
REMARK    2  A    between atoms: N_10  and  C_11
REMARK    3  A    between atoms: C_11  and  C_12
REMARK    4  A    between atoms: C_12  and  O_14
REMARK    5  A    between atoms: C_17  and  N_18
REMARK    6  A    between atoms: N_18  and  C_19
REMARK                            x       y       z     vdW  Elec       q    Type
REMARK                         _______ _______ _______ _____ _____    ______ ____
ROOT
ATOM      1  C   UNL     1       1.681   2.521  21.901  0.00  0.00    +0.000 C 
ATOM      2  C   UNL     1       2.279   3.397  20.840  0.00  0.00    +0.000 A 
ATOM      3  C   UNL     1       3.216   2.914  19.924  0.00  0.00    +0.000 A 
ATOM      4  C   UNL     1       3.759   3.737  18.923  0.00  0.00    +0.000 A 
ATOM      5  C   UNL     1       3.336   5.077  18.851  0.00  0.00    +0.000 A 
ATOM      6  C   UNL     1       2.409   5.581  19.769  0.00  0.00    +0.000 A 
ATOM      7  C   UNL     1       1.879   4.736  20.763  0.00  0.00    +0.000 A 
ATOM      8  C   UNL     1       2.182   6.939  19.445  0.00  0.00    +0.000 A 
ATOM      9  C   UNL     1       2.941   7.240  18.333  0.00  0.00    +0.000 A 
ATOM     10  N   UNL     1       3.643   6.110  17.973  0.00  0.00    +0.000 N 
ATOM     11  C   UNL     1       2.967   8.575  17.658  0.00  0.00    +0.000 C 
ATOM     12  C   UNL     1       1.754   9.418  18.105  0.00  0.00    +0.000 C 
ATOM     13  C   UNL     1       1.524   9.355  19.641  0.00  0.00    +0.000 C 
ATOM     14  C   UNL     1       1.249   7.904  20.102  0.00  0.00    +0.000 C 
ENDROOT
BRANCH  13  15
ATOM     15  N   UNL     1       0.446  10.276  20.050  0.00  0.00    +0.000 N 
ATOM     16  C   UNL     1       0.741  11.432  20.887  0.00  0.00    +0.000 C 
ATOM     17  C   UNL     1      -0.604  10.495  19.161  0.00  0.00    +0.000 A 
ATOM     18  N   UNL     1      -0.700   9.754  18.041  0.00  0.00    +0.000 NA
ATOM     19  C   UNL     1      -1.736  10.002  17.204  0.00  0.00    +0.000 A 
ATOM     20  C   UNL     1      -2.689  10.960  17.434  0.00  0.00    +0.000 A 
ATOM     21 CL   UNL     1      -3.980  11.258  16.357  0.00  0.00    +0.000 Cl
ATOM     22  C   UNL     1      -2.523  11.666  18.596  0.00  0.00    +0.000 A 
ATOM     23  N   UNL     1      -1.503  11.455  19.457  0.00  0.00    +0.000 NA
ENDBRANCH  13  15
BRANCH  10  24
ATOM     24  C   UNL     1       4.494   5.985  16.791  0.00  0.00    +0.000 C 
BRANCH  24  25
ATOM     25  C   UNL     1       5.966   6.228  17.015  0.00  0.00    +0.000 C 
ATOM     26  O   UNL     1       6.461   7.349  16.983  0.00  0.00    +0.000 OA
BRANCH  25  27
ATOM     27  O   UNL     1       6.740   5.129  17.171  0.00  0.00    +0.000 OA
ATOM     28  H   UNL     1       6.268   4.273  17.108  0.00  0.00    +0.000 HD
ENDBRANCH  25  27
ENDBRANCH  24  25
ENDBRANCH  10  24
TORSDOF 4
ENDMDL
MODEL 5
REMARK VINA RESULT:      -7.3      2.160      2.237
REMARK  Name = 
REMARK  6 active torsions:
REMARK  status: ('A' for Active; 'I' for Inactive)
REMARK    1  A    between atoms: C_1  and  C_2
REMARK    2  A    between atoms: N_10  and  C_11
REMARK    3  A    between atoms: C_11  and  C_12
REMARK    4  A    between atoms: C_12  and  O_14
REMARK    5  A    between atoms: C_17  and  N_18
REMARK    6  A    between atoms: N_18  and  C_19
REMARK                            x       y       z     vdW  Elec       q    Type
REMARK                         _______ _______ _______ _____ _____    ______ ____
ROOT
ATOM      1  C   UNL     1       5.904   5.014  14.704  0.00  0.00    +0.000 C 
ATOM      2  C   UNL     1       5.148   4.743  15.973  0.00  0.00    +0.000 A 
ATOM      3  C   UNL     1       5.137   3.481  16.570  0.00  0.00    +0.000 A 
ATOM      4  C   UNL     1       4.442   3.239  17.767  0.00  0.00    +0.000 A 
ATOM      5  C   UNL     1       3.747   4.304  18.367  0.00  0.00    +0.000 A 
ATOM      6  C   UNL     1       3.736   5.572  17.775  0.00  0.00    +0.000 A 
ATOM      7  C   UNL     1       4.441   5.789  16.575  0.00  0.00    +0.000 A 
ATOM      8  C   UNL     1       2.967   6.423  18.602  0.00  0.00    +0.000 A 
ATOM      9  C   UNL     1       2.544   5.687  19.689  0.00  0.00    +0.000 A 
ATOM     10  N   UNL     1       3.016   4.399  19.546  0.00  0.00    +0.000 N 
ATOM     11  C   UNL     1       1.719   6.228  20.813  0.00  0.00    +0.000 C 
ATOM     12  C   UNL     1       1.759   7.772  20.804  0.00  0.00    +0.000 C 
ATOM     13  C   UNL     1       1.566   8.358  19.377  0.00  0.00    +0.000 C 
ATOM     14  C   UNL     1       2.687   7.880  18.424  0.00  0.00    +0.000 C 
ENDROOT
BRANCH  13  15
ATOM     15  N   UNL     1       1.473   9.831  19.423  0.00  0.00    +0.000 N 
ATOM     16  C   UNL     1       1.611  10.617  18.203  0.00  0.00    +0.000 C 
ATOM     17  C   UNL     1       0.612  10.407  20.354  0.00  0.00    +0.000 A 
ATOM     18  N   UNL     1       0.018   9.636  21.284  0.00  0.00    +0.000 NA
ATOM     19  C   UNL     1      -0.813  10.239  22.169  0.00  0.00    +0.000 A 
ATOM     20  C   UNL     1      -1.081  11.583  22.169  0.00  0.00    +0.000 A 
ATOM     21 CL   UNL     1      -2.142  12.314  23.290  0.00  0.00    +0.000 Cl
ATOM     22  C   UNL     1      -0.435  12.296  21.195  0.00  0.00    +0.000 A 
ATOM     23  N   UNL     1       0.399  11.736  20.291  0.00  0.00    +0.000 NA
ENDBRANCH  13  15
BRANCH  10  24
ATOM     24  C   UNL     1       2.864   3.330  20.530  0.00  0.00    +0.000 C 
BRANCH  24  25
ATOM     25  C   UNL     1       1.444   2.978  20.903  0.00  0.00    +0.000 C 
ATOM     26  O   UNL     1       1.118   2.679  22.046  0.00  0.00    +0.000 OA
BRANCH  25  27
ATOM     27  O   UNL     1       0.552   2.926  19.886  0.00  0.00    +0.000 OA
ATOM     28  H   UNL     1      -0.304   3.367  20.060  0.00  0.00    +0.000 HD
ENDBRANCH  25  27
ENDBRANCH  24  25
ENDBRANCH  10  24
TORSDOF 4
ENDMDL
MODEL 6
REMARK VINA RESULT:      -7.2      2.848      4.331
REMARK  Name = 
REMARK  6 active torsions:
REMARK  status: ('A' for Active; 'I' for Inactive)
REMARK    1  A    between atoms: C_1  and  C_2
REMARK    2  A    between atoms: N_10  and  C_11
REMARK    3  A    between atoms: C_11  and  C_12
REMARK    4  A    between atoms: C_12  and  O_14
REMARK    5  A    between atoms: C_17  and  N_18
REMARK    6  A    between atoms: N_18  and  C_19
REMARK                            x       y       z     vdW  Elec       q    Type
REMARK                         _______ _______ _______ _____ _____    ______ ____
ROOT
ATOM      1  C   UNL     1       1.089   2.394  22.149  0.00  0.00    +0.000 C 
ATOM      2  C   UNL     1       2.044   3.086  21.221  0.00  0.00    +0.000 A 
ATOM      3  C   UNL     1       3.226   2.480  20.791  0.00  0.00    +0.000 A 
ATOM      4  C   UNL     1       4.107   3.128  19.908  0.00  0.00    +0.000 A 
ATOM      5  C   UNL     1       3.775   4.417  19.453  0.00  0.00    +0.000 A 
ATOM      6  C   UNL     1       2.602   5.045  19.886  0.00  0.00    +0.000 A 
ATOM      7  C   UNL     1       1.735   4.374  20.770  0.00  0.00    +0.000 A 
ATOM      8  C   UNL     1       2.542   6.314  19.263  0.00  0.00    +0.000 A 
ATOM      9  C   UNL     1       3.648   6.437  18.448  0.00  0.00    +0.000 A 
ATOM     10  N   UNL     1       4.398   5.286  18.564  0.00  0.00    +0.000 N 
ATOM     11  C   UNL     1       3.946   7.629  17.595  0.00  0.00    +0.000 C 
ATOM     12  C   UNL     1       2.678   8.495  17.433  0.00  0.00    +0.000 C 
ATOM     13  C   UNL     1       1.928   8.700  18.779  0.00  0.00    +0.000 C 
ATOM     14  C   UNL     1       1.468   7.347  19.370  0.00  0.00    +0.000 C 
ENDROOT
BRANCH  13  15
ATOM     15  N   UNL     1       0.802   9.641  18.615  0.00  0.00    +0.000 N 
ATOM     16  C   UNL     1      -0.196   9.423  17.575  0.00  0.00    +0.000 C 
ATOM     17  C   UNL     1       0.284  10.251  19.754  0.00  0.00    +0.000 A 
ATOM     18  N   UNL     1       0.910  10.104  20.937  0.00  0.00    +0.000 NA
ATOM     19  C   UNL     1       0.369  10.715  22.019  0.00  0.00    +0.000 A 
ATOM     20  C   UNL     1      -0.773  11.471  21.977  0.00  0.00    +0.000 A 
ATOM     21 CL   UNL     1      -1.437  12.221  23.360  0.00  0.00    +0.000 Cl
ATOM     22  C   UNL     1      -1.346  11.575  20.738  0.00  0.00    +0.000 A 
ATOM     23  N   UNL     1      -0.843  10.981  19.633  0.00  0.00    +0.000 NA
ENDBRANCH  13  15
BRANCH  10  24
ATOM     24  C   UNL     1       5.602   4.981  17.794  0.00  0.00    +0.000 C 
BRANCH  24  25
ATOM     25  C   UNL     1       6.883   4.896  18.587  0.00  0.00    +0.000 C 
ATOM     26  O   UNL     1       7.022   5.443  19.676  0.00  0.00    +0.000 OA
BRANCH  25  27
ATOM     27  O   UNL     1       7.914   4.249  17.995  0.00  0.00    +0.000 OA
ATOM     28  H   UNL     1       8.758   4.743  17.969  0.00  0.00    +0.000 HD
ENDBRANCH  25  27
ENDBRANCH  24  25
ENDBRANCH  10  24
TORSDOF 4
ENDMDL
MODEL 7
REMARK VINA RESULT:      -7.0      2.537      2.906
REMARK  Name = 
REMARK  6 active torsions:
REMARK  status: ('A' for Active; 'I' for Inactive)
REMARK    1  A    between atoms: C_1  and  C_2
REMARK    2  A    between atoms: N_10  and  C_11
REMARK    3  A    between atoms: C_11  and  C_12
REMARK    4  A    between atoms: C_12  and  O_14
REMARK    5  A    between atoms: C_17  and  N_18
REMARK    6  A    between atoms: N_18  and  C_19
REMARK                            x       y       z     vdW  Elec       q    Type
REMARK                         _______ _______ _______ _____ _____    ______ ____
ROOT
ATOM      1  C   UNL     1       7.053   5.474  13.959  0.00  0.00    +0.000 C 
ATOM      2  C   UNL     1       6.126   4.964  15.023  0.00  0.00    +0.000 A 
ATOM      3  C   UNL     1       6.027   3.606  15.327  0.00  0.00    +0.000 A 
ATOM      4  C   UNL     1       5.169   3.138  16.338  0.00  0.00    +0.000 A 
ATOM      5  C   UNL     1       4.400   4.074  17.053  0.00  0.00    +0.000 A 
ATOM      6  C   UNL     1       4.477   5.438  16.752  0.00  0.00    +0.000 A 
ATOM      7  C   UNL     1       5.344   5.881  15.735  0.00  0.00    +0.000 A 
ATOM      8  C   UNL     1       3.602   6.119  17.630  0.00  0.00    +0.000 A 
ATOM      9  C   UNL     1       3.028   5.183  18.464  0.00  0.00    +0.000 A 
ATOM     10  N   UNL     1       3.511   3.940  18.114  0.00  0.00    +0.000 N 
ATOM     11  C   UNL     1       2.055   5.500  19.555  0.00  0.00    +0.000 C 
ATOM     12  C   UNL     1       2.101   7.008  19.885  0.00  0.00    +0.000 C 
ATOM     13  C   UNL     1       2.113   7.891  18.605  0.00  0.00    +0.000 C 
ATOM     14  C   UNL     1       3.355   7.589  17.734  0.00  0.00    +0.000 C 
ENDROOT
BRANCH  13  15
ATOM     15  N   UNL     1       2.020   9.322  18.954  0.00  0.00    +0.000 N 
ATOM     16  C   UNL     1       2.151  10.343  17.922  0.00  0.00    +0.000 C 
ATOM     17  C   UNL     1       1.163   9.692  19.988  0.00  0.00    +0.000 A 
ATOM     18  N   UNL     1       0.574   8.746  20.742  0.00  0.00    +0.000 NA
ATOM     19  C   UNL     1      -0.253   9.152  21.736  0.00  0.00    +0.000 A 
ATOM     20  C   UNL     1      -0.522  10.467  22.015  0.00  0.00    +0.000 A 
ATOM     21 CL   UNL     1      -1.577  10.949  23.268  0.00  0.00    +0.000 Cl
ATOM     22  C   UNL     1       0.119  11.366  21.206  0.00  0.00    +0.000 A 
ATOM     23  N   UNL     1       0.949  11.006  20.202  0.00  0.00    +0.000 NA
ENDBRANCH  13  15
BRANCH  10  24
ATOM     24  C   UNL     1       3.218   2.691  18.814  0.00  0.00    +0.000 C 
BRANCH  24  25
ATOM     25  C   UNL     1       3.916   2.503  20.138  0.00  0.00    +0.000 C 
ATOM     26  O   UNL     1       5.077   2.116  20.222  0.00  0.00    +0.000 OA
BRANCH  25  27
ATOM     27  O   UNL     1       3.166   2.703  21.246  0.00  0.00    +0.000 OA
ATOM     28  H   UNL     1       2.703   1.910  21.586  0.00  0.00    +0.000 HD
ENDBRANCH  25  27
ENDBRANCH  24  25
ENDBRANCH  10  24
TORSDOF 4
ENDMDL
MODEL 8
REMARK VINA RESULT:      -7.0      3.362      4.618
REMARK  Name = 
REMARK  6 active torsions:
REMARK  status: ('A' for Active; 'I' for Inactive)
REMARK    1  A    between atoms: C_1  and  C_2
REMARK    2  A    between atoms: N_10  and  C_11
REMARK    3  A    between atoms: C_11  and  C_12
REMARK    4  A    between atoms: C_12  and  O_14
REMARK    5  A    between atoms: C_17  and  N_18
REMARK    6  A    between atoms: N_18  and  C_19
REMARK                            x       y       z     vdW  Elec       q    Type
REMARK                         _______ _______ _______ _____ _____    ______ ____
ROOT
ATOM      1  C   UNL     1       2.886   2.174  21.551  0.00  0.00    +0.000 C 
ATOM      2  C   UNL     1       3.198   3.237  20.539  0.00  0.00    +0.000 A 
ATOM      3  C   UNL     1       4.068   3.008  19.471  0.00  0.00    +0.000 A 
ATOM      4  C   UNL     1       4.341   4.003  18.517  0.00  0.00    +0.000 A 
ATOM      5  C   UNL     1       3.714   5.255  18.654  0.00  0.00    +0.000 A 
ATOM      6  C   UNL     1       2.850   5.506  19.725  0.00  0.00    +0.000 A 
ATOM      7  C   UNL     1       2.593   4.492  20.668  0.00  0.00    +0.000 A 
ATOM      8  C   UNL     1       2.379   6.833  19.592  0.00  0.00    +0.000 A 
ATOM      9  C   UNL     1       2.928   7.363  18.443  0.00  0.00    +0.000 A 
ATOM     10  N   UNL     1       3.740   6.406  17.874  0.00  0.00    +0.000 N 
ATOM     11  C   UNL     1       2.661   8.743  17.932  0.00  0.00    +0.000 C 
ATOM     12  C   UNL     1       1.403   9.326  18.612  0.00  0.00    +0.000 C 
ATOM     13  C   UNL     1       1.393   9.075  20.146  0.00  0.00    +0.000 C 
ATOM     14  C   UNL     1       1.406   7.561  20.462  0.00  0.00    +0.000 C 
ENDROOT
BRANCH  13  15
ATOM     15  N   UNL     1       0.250   9.760  20.782  0.00  0.00    +0.000 N 
ATOM     16  C   UNL     1      -0.582   9.061  21.753  0.00  0.00    +0.000 C 
ATOM     17  C   UNL     1       0.361  11.125  21.036  0.00  0.00    +0.000 A 
ATOM     18  N   UNL     1       1.415  11.813  20.558  0.00  0.00    +0.000 NA
ATOM     19  C   UNL     1       1.482  13.139  20.831  0.00  0.00    +0.000 A 
ATOM     20  C   UNL     1       0.540  13.816  21.561  0.00  0.00    +0.000 A 
ATOM     21 CL   UNL     1       0.656  15.486  21.897  0.00  0.00    +0.000 Cl
ATOM     22  C   UNL     1      -0.501  13.046  22.006  0.00  0.00    +0.000 A 
ATOM     23  N   UNL     1      -0.607  11.721  21.761  0.00  0.00    +0.000 NA
ENDBRANCH  13  15
BRANCH  10  24
ATOM     24  C   UNL     1       4.436   6.540  16.595  0.00  0.00    +0.000 C 
BRANCH  24  25
ATOM     25  C   UNL     1       5.940   6.633  16.674  0.00  0.00    +0.000 C 
ATOM     26  O   UNL     1       6.680   5.823  16.126  0.00  0.00    +0.000 OA
BRANCH  25  27
ATOM     27  O   UNL     1       6.440   7.617  17.456  0.00  0.00    +0.000 OA
ATOM     28  H   UNL     1       6.495   8.499  17.035  0.00  0.00    +0.000 HD
ENDBRANCH  25  27
ENDBRANCH  24  25
ENDBRANCH  10  24
TORSDOF 4
ENDMDL
MODEL 9
REMARK VINA RESULT:      -6.9      2.313      2.438
REMARK  Name = 
REMARK  6 active torsions:
REMARK  status: ('A' for Active; 'I' for Inactive)
REMARK    1  A    between atoms: C_1  and  C_2
REMARK    2  A    between atoms: N_10  and  C_11
REMARK    3  A    between atoms: C_11  and  C_12
REMARK    4  A    between atoms: C_12  and  O_14
REMARK    5  A    between atoms: C_17  and  N_18
REMARK    6  A    between atoms: N_18  and  C_19
REMARK                            x       y       z     vdW  Elec       q    Type
REMARK                         _______ _______ _______ _____ _____    ______ ____
ROOT
ATOM      1  C   UNL     1       5.540   6.055  15.379  0.00  0.00    +0.000 C 
ATOM      2  C   UNL     1       4.736   5.778  16.616  0.00  0.00    +0.000 A 
ATOM      3  C   UNL     1       4.707   4.514  17.210  0.00  0.00    +0.000 A 
ATOM      4  C   UNL     1       3.965   4.267  18.378  0.00  0.00    +0.000 A 
ATOM      5  C   UNL     1       3.243   5.328  18.952  0.00  0.00    +0.000 A 
ATOM      6  C   UNL     1       3.250   6.597  18.363  0.00  0.00    +0.000 A 
ATOM      7  C   UNL     1       4.001   6.819  17.193  0.00  0.00    +0.000 A 
ATOM      8  C   UNL     1       2.445   7.443  19.160  0.00  0.00    +0.000 A 
ATOM      9  C   UNL     1       1.982   6.703  20.228  0.00  0.00    +0.000 A 
ATOM     10  N   UNL     1       2.465   5.418  20.102  0.00  0.00    +0.000 N 
ATOM     11  C   UNL     1       1.111   7.238  21.320  0.00  0.00    +0.000 C 
ATOM     12  C   UNL     1       1.145   8.782  21.316  0.00  0.00    +0.000 C 
ATOM     13  C   UNL     1       1.007   9.371  19.884  0.00  0.00    +0.000 C 
ATOM     14  C   UNL     1       2.166   8.900  18.975  0.00  0.00    +0.000 C 
ENDROOT
BRANCH  13  15
ATOM     15  N   UNL     1       0.906  10.843  19.929  0.00  0.00    +0.000 N 
ATOM     16  C   UNL     1       1.044  11.630  18.709  0.00  0.00    +0.000 C 
ATOM     17  C   UNL     1       0.038  11.414  20.856  0.00  0.00    +0.000 A 
ATOM     18  N   UNL     1      -0.556  10.641  21.784  0.00  0.00    +0.000 NA
ATOM     19  C   UNL     1      -1.394  11.239  22.665  0.00  0.00    +0.000 A 
ATOM     20  C   UNL     1      -1.669  12.582  22.664  0.00  0.00    +0.000 A 
ATOM     21 CL   UNL     1      -2.738  13.307  23.781  0.00  0.00    +0.000 Cl
ATOM     22  C   UNL     1      -1.023  13.299  21.693  0.00  0.00    +0.000 A 
ATOM     23  N   UNL     1      -0.182  12.743  20.792  0.00  0.00    +0.000 NA
ENDBRANCH  13  15
BRANCH  10  24
ATOM     24  C   UNL     1       2.278   4.345  21.077  0.00  0.00    +0.000 C 
BRANCH  24  25
ATOM     25  C   UNL     1       1.381   3.213  20.643  0.00  0.00    +0.000 C 
ATOM     26  O   UNL     1       1.763   2.049  20.598  0.00  0.00    +0.000 OA
BRANCH  25  27
ATOM     27  O   UNL     1       0.143   3.557  20.219  0.00  0.00    +0.000 OA
ATOM     28  H   UNL     1      -0.051   4.517  20.229  0.00  0.00    +0.000 HD
ENDBRANCH  25  27
ENDBRANCH  24  25
ENDBRANCH  10  24
TORSDOF 4
ENDMDL
