MODEL 1
REMARK VINA RESULT:      -7.6      0.000      0.000
REMARK  Name = 
REMARK  2 active torsions:
REMARK  status: ('A' for Active; 'I' for Inactive)
REMARK    1  A    between atoms: C_2  and  C_3
REMARK    2  A    between atoms: C_13  and  N_14
REMARK                            x       y       z     vdW  Elec       q    Type
REMARK                         _______ _______ _______ _____ _____    ______ ____
ROOT
ATOM      1  O   UNL     1       1.793   5.551  17.469  0.00  0.00    +0.000 OA
ATOM      2  C   UNL     1       2.655   5.239  18.288  0.00  0.00    +0.000 C 
ATOM      3  N   UNL     1       3.942   5.718  18.252  0.00  0.00    +0.000 N 
ATOM      4  C   UNL     1       4.537   6.584  17.249  0.00  0.00    +0.000 C 
ATOM      5  C   UNL     1       5.853   5.792  17.422  0.00  0.00    +0.000 C 
ATOM      6  C   UNL     1       5.215   5.172  18.699  0.00  0.00    +0.000 C 
ENDROOT
BRANCH   5   7
ATOM      7  N   UNL     1       6.028   4.729  16.396  0.00  0.00    +0.000 NA
ATOM      8  C   UNL     1       7.454   4.686  15.977  0.00  0.00    +0.000 C 
ATOM      9  C   UNL     1       7.764   5.317  14.606  0.00  0.00    +0.000 C 
ATOM     10  C   UNL     1       6.933   4.580  13.594  0.00  0.00    +0.000 A 
ATOM     11  C   UNL     1       7.452   4.070  12.404  0.00  0.00    +0.000 A 
ATOM     12  C   UNL     1       6.638   3.294  11.579  0.00  0.00    +0.000 A 
ATOM     13  C   UNL     1       5.306   3.054  11.929  0.00  0.00    +0.000 A 
ATOM     14  C   UNL     1       4.778   3.589  13.105  0.00  0.00    +0.000 A 
ATOM     15  C   UNL     1       5.594   4.342  13.953  0.00  0.00    +0.000 A 
ATOM     16  C   UNL     1       5.105   4.946  15.253  0.00  0.00    +0.000 C 
ENDBRANCH   5   7
BRANCH   2  17
ATOM     17  C   UNL     1       2.287   4.297  19.370  0.00  0.00    +0.000 A 
ATOM     18  C   UNL     1       2.271   4.787  20.689  0.00  0.00    +0.000 A 
ATOM     19  C   UNL     1       1.959   3.937  21.751  0.00  0.00    +0.000 A 
ATOM     20  C   UNL     1       1.661   2.600  21.492  0.00  0.00    +0.000 A 
ATOM     21  F   UNL     1       1.346   1.786  22.509  0.00  0.00    +0.000 F 
ATOM     22  C   UNL     1       1.711   2.093  20.205  0.00  0.00    +0.000 A 
ATOM     23  C   UNL     1       2.063   2.932  19.142  0.00  0.00    +0.000 A 
ATOM     24 CL   UNL     1       2.318   2.180  17.606  0.00  0.00    +0.000 Cl
ENDBRANCH   2  17
TORSDOF 2
ENDMDL
MODEL 2
REMARK VINA RESULT:      -7.4      3.523      7.632
REMARK  Name = 
REMARK  2 active torsions:
REMARK  status: ('A' for Active; 'I' for Inactive)
REMARK    1  A    between atoms: C_2  and  C_3
REMARK    2  A    between atoms: C_13  and  N_14
REMARK                            x       y       z     vdW  Elec       q    Type
REMARK                         _______ _______ _______ _____ _____    ______ ____
ROOT
ATOM      1  O   UNL     1       8.102   4.740  16.127  0.00  0.00    +0.000 OA
ATOM      2  C   UNL     1       7.044   5.100  15.612  0.00  0.00    +0.000 C 
ATOM      3  N   UNL     1       6.176   5.984  16.204  0.00  0.00    +0.000 N 
ATOM      4  C   UNL     1       6.285   6.585  17.523  0.00  0.00    +0.000 C 
ATOM      5  C   UNL     1       4.748   6.474  17.642  0.00  0.00    +0.000 C 
ATOM      6  C   UNL     1       4.735   6.167  16.117  0.00  0.00    +0.000 C 
ENDROOT
BRANCH   5   7
ATOM      7  N   UNL     1       4.311   5.265  18.390  0.00  0.00    +0.000 NA
ATOM      8  C   UNL     1       3.491   4.407  17.493  0.00  0.00    +0.000 C 
ATOM      9  C   UNL     1       1.971   4.454  17.736  0.00  0.00    +0.000 C 
ATOM     10  C   UNL     1       1.747   4.028  19.160  0.00  0.00    +0.000 A 
ATOM     11  C   UNL     1       0.811   3.064  19.533  0.00  0.00    +0.000 A 
ATOM     12  C   UNL     1       0.754   2.642  20.861  0.00  0.00    +0.000 A 
ATOM     13  C   UNL     1       1.609   3.201  21.814  0.00  0.00    +0.000 A 
ATOM     14  C   UNL     1       2.527   4.187  21.447  0.00  0.00    +0.000 A 
ATOM     15  C   UNL     1       2.612   4.594  20.114  0.00  0.00    +0.000 A 
ATOM     16  C   UNL     1       3.588   5.646  19.630  0.00  0.00    +0.000 C 
ENDBRANCH   5   7
BRANCH   2  17
ATOM     17  C   UNL     1       6.688   4.551  14.283  0.00  0.00    +0.000 A 
ATOM     18  C   UNL     1       5.651   3.602  14.222  0.00  0.00    +0.000 A 
ATOM     19  C   UNL     1       5.293   3.031  13.000  0.00  0.00    +0.000 A 
ATOM     20  C   UNL     1       5.969   3.413  11.841  0.00  0.00    +0.000 A 
ATOM     21  F   UNL     1       5.615   2.877  10.665  0.00  0.00    +0.000 F 
ATOM     22  C   UNL     1       7.017   4.315  11.891  0.00  0.00    +0.000 A 
ATOM     23  C   UNL     1       7.407   4.859  13.120  0.00  0.00    +0.000 A 
ATOM     24 CL   UNL     1       8.856   5.802  13.131  0.00  0.00    +0.000 Cl
ENDBRANCH   2  17
TORSDOF 2
ENDMDL
MODEL 3
REMARK VINA RESULT:      -7.3      3.297      7.613
REMARK  Name = 
REMARK  2 active torsions:
REMARK  status: ('A' for Active; 'I' for Inactive)
REMARK    1  A    between atoms: C_2  and  C_3
REMARK    2  A    between atoms: C_13  and  N_14
REMARK                            x       y       z     vdW  Elec       q    Type
REMARK                         _______ _______ _______ _____ _____    ______ ____
ROOT
ATOM      1  O   UNL     1       7.925   4.518  16.857  0.00  0.00    +0.000 OA
ATOM      2  C   UNL     1       7.180   5.163  16.121  0.00  0.00    +0.000 C 
ATOM      3  N   UNL     1       6.359   6.168  16.567  0.00  0.00    +0.000 N 
ATOM      4  C   UNL     1       6.155   6.602  17.939  0.00  0.00    +0.000 C 
ATOM      5  C   UNL     1       4.671   6.847  17.585  0.00  0.00    +0.000 C 
ATOM      6  C   UNL     1       5.086   6.694  16.094  0.00  0.00    +0.000 C 
ENDROOT
BRANCH   5   7
ATOM      7  N   UNL     1       3.789   5.711  17.968  0.00  0.00    +0.000 NA
ATOM      8  C   UNL     1       2.456   6.240  18.362  0.00  0.00    +0.000 C 
ATOM      9  C   UNL     1       2.175   6.273  19.876  0.00  0.00    +0.000 C 
ATOM     10  C   UNL     1       2.307   4.860  20.371  0.00  0.00    +0.000 A 
ATOM     11  C   UNL     1       1.354   4.240  21.178  0.00  0.00    +0.000 A 
ATOM     12  C   UNL     1       1.497   2.888  21.491  0.00  0.00    +0.000 A 
ATOM     13  C   UNL     1       2.601   2.171  21.023  0.00  0.00    +0.000 A 
ATOM     14  C   UNL     1       3.570   2.799  20.240  0.00  0.00    +0.000 A 
ATOM     15  C   UNL     1       3.420   4.144  19.896  0.00  0.00    +0.000 A 
ATOM     16  C   UNL     1       4.417   4.897  19.039  0.00  0.00    +0.000 C 
ENDBRANCH   5   7
BRANCH   2  17
ATOM     17  C   UNL     1       7.168   4.838  14.675  0.00  0.00    +0.000 A 
ATOM     18  C   UNL     1       8.015   5.578  13.830  0.00  0.00    +0.000 A 
ATOM     19  C   UNL     1       8.024   5.334  12.456  0.00  0.00    +0.000 A 
ATOM     20  C   UNL     1       7.189   4.348  11.931  0.00  0.00    +0.000 A 
ATOM     21  F   UNL     1       7.208   4.102  10.613  0.00  0.00    +0.000 F 
ATOM     22  C   UNL     1       6.322   3.639  12.744  0.00  0.00    +0.000 A 
ATOM     23  C   UNL     1       6.281   3.909  14.116  0.00  0.00    +0.000 A 
ATOM     24 CL   UNL     1       5.024   3.143  15.023  0.00  0.00    +0.000 Cl
ENDBRANCH   2  17
TORSDOF 2
ENDMDL
MODEL 4
REMARK VINA RESULT:      -7.3      8.505     10.704
REMARK  Name = 
REMARK  2 active torsions:
REMARK  status: ('A' for Active; 'I' for Inactive)
REMARK    1  A    between atoms: C_2  and  C_3
REMARK    2  A    between atoms: C_13  and  N_14
REMARK                            x       y       z     vdW  Elec       q    Type
REMARK                         _______ _______ _______ _____ _____    ______ ____
ROOT
ATOM      1  O   UNL     1      -1.422  10.454  19.665  0.00  0.00    +0.000 OA
ATOM      2  C   UNL     1      -0.233  10.635  19.918  0.00  0.00    +0.000 C 
ATOM      3  N   UNL     1       0.238  11.725  20.608  0.00  0.00    +0.000 N 
ATOM      4  C   UNL     1      -0.524  12.867  21.087  0.00  0.00    +0.000 C 
ATOM      5  C   UNL     1       0.695  13.755  20.747  0.00  0.00    +0.000 C 
ATOM      6  C   UNL     1       1.507  12.438  20.590  0.00  0.00    +0.000 C 
ENDROOT
BRANCH   5   7
ATOM      7  N   UNL     1       0.575  14.418  19.421  0.00  0.00    +0.000 NA
ATOM      8  C   UNL     1       1.928  14.547  18.817  0.00  0.00    +0.000 C 
ATOM      9  C   UNL     1       2.549  15.955  18.870  0.00  0.00    +0.000 C 
ATOM     10  C   UNL     1       1.602  16.873  18.150  0.00  0.00    +0.000 A 
ATOM     11  C   UNL     1       2.009  17.774  17.166  0.00  0.00    +0.000 A 
ATOM     12  C   UNL     1       1.048  18.501  16.464  0.00  0.00    +0.000 A 
ATOM     13  C   UNL     1      -0.308  18.347  16.762  0.00  0.00    +0.000 A 
ATOM     14  C   UNL     1      -0.714  17.467  17.767  0.00  0.00    +0.000 A 
ATOM     15  C   UNL     1       0.239  16.712  18.455  0.00  0.00    +0.000 A 
ATOM     16  C   UNL     1      -0.117  15.726  19.548  0.00  0.00    +0.000 C 
ENDBRANCH   5   7
BRANCH   2  17
ATOM     17  C   UNL     1       0.745   9.623  19.455  0.00  0.00    +0.000 A 
ATOM     18  C   UNL     1       1.123   9.648  18.100  0.00  0.00    +0.000 A 
ATOM     19  C   UNL     1       2.020   8.700  17.604  0.00  0.00    +0.000 A 
ATOM     20  C   UNL     1       2.540   7.734  18.464  0.00  0.00    +0.000 A 
ATOM     21  F   UNL     1       3.413   6.833  17.991  0.00  0.00    +0.000 F 
ATOM     22  C   UNL     1       2.148   7.672  19.789  0.00  0.00    +0.000 A 
ATOM     23  C   UNL     1       1.218   8.595  20.282  0.00  0.00    +0.000 A 
ATOM     24 CL   UNL     1       0.616   8.318  21.878  0.00  0.00    +0.000 Cl
ENDBRANCH   2  17
TORSDOF 2
ENDMDL
MODEL 5
REMARK VINA RESULT:      -7.2      8.274     11.395
REMARK  Name = 
REMARK  2 active torsions:
REMARK  status: ('A' for Active; 'I' for Inactive)
REMARK    1  A    between atoms: C_2  and  C_3
REMARK    2  A    between atoms: C_13  and  N_14
REMARK                            x       y       z     vdW  Elec       q    Type
REMARK                         _______ _______ _______ _____ _____    ______ ____
ROOT
ATOM      1  O   UNL     1       0.803  11.782  20.232  0.00  0.00    +0.000 OA
ATOM      2  C   UNL     1       0.515  10.976  19.349  0.00  0.00    +0.000 C 
ATOM      3  N   UNL     1      -0.377  11.245  18.340  0.00  0.00    +0.000 N 
ATOM      4  C   UNL     1      -1.177  12.445  18.161  0.00  0.00    +0.000 C 
ATOM      5  C   UNL     1      -2.314  11.543  17.630  0.00  0.00    +0.000 C 
ATOM      6  C   UNL     1      -1.259  10.403  17.546  0.00  0.00    +0.000 C 
ENDROOT
BRANCH   5   7
ATOM      7  N   UNL     1      -3.320  11.204  18.674  0.00  0.00    +0.000 NA
ATOM      8  C   UNL     1      -4.499  10.569  18.027  0.00  0.00    +0.000 C 
ATOM      9  C   UNL     1      -5.741  11.469  17.879  0.00  0.00    +0.000 C 
ATOM     10  C   UNL     1      -6.121  11.911  19.264  0.00  0.00    +0.000 A 
ATOM     11  C   UNL     1      -7.421  11.831  19.762  0.00  0.00    +0.000 A 
ATOM     12  C   UNL     1      -7.663  12.151  21.098  0.00  0.00    +0.000 A 
ATOM     13  C   UNL     1      -6.616  12.572  21.922  0.00  0.00    +0.000 A 
ATOM     14  C   UNL     1      -5.319  12.680  21.415  0.00  0.00    +0.000 A 
ATOM     15  C   UNL     1      -5.062  12.334  20.087  0.00  0.00    +0.000 A 
ATOM     16  C   UNL     1      -3.684  12.408  19.463  0.00  0.00    +0.000 C 
ENDBRANCH   5   7
BRANCH   2  17
ATOM     17  C   UNL     1       1.163   9.644  19.375  0.00  0.00    +0.000 A 
ATOM     18  C   UNL     1       1.843   9.223  18.218  0.00  0.00    +0.000 A 
ATOM     19  C   UNL     1       2.448   7.966  18.177  0.00  0.00    +0.000 A 
ATOM     20  C   UNL     1       2.376   7.135  19.294  0.00  0.00    +0.000 A 
ATOM     21  F   UNL     1       2.969   5.934  19.261  0.00  0.00    +0.000 F 
ATOM     22  C   UNL     1       1.677   7.518  20.425  0.00  0.00    +0.000 A 
ATOM     23  C   UNL     1       1.034   8.761  20.455  0.00  0.00    +0.000 A 
ATOM     24 CL   UNL     1       0.004   9.072  21.808  0.00  0.00    +0.000 Cl
ENDBRANCH   2  17
TORSDOF 2
ENDMDL
MODEL 6
REMARK VINA RESULT:      -7.1      1.140      1.501
REMARK  Name = 
REMARK  2 active torsions:
REMARK  status: ('A' for Active; 'I' for Inactive)
REMARK    1  A    between atoms: C_2  and  C_3
REMARK    2  A    between atoms: C_13  and  N_14
REMARK                            x       y       z     vdW  Elec       q    Type
REMARK                         _______ _______ _______ _____ _____    ______ ____
ROOT
ATOM      1  O   UNL     1       1.744   5.495  17.313  0.00  0.00    +0.000 OA
ATOM      2  C   UNL     1       2.634   5.263  18.129  0.00  0.00    +0.000 C 
ATOM      3  N   UNL     1       3.900   5.789  18.039  0.00  0.00    +0.000 N 
ATOM      4  C   UNL     1       4.441   6.620  16.976  0.00  0.00    +0.000 C 
ATOM      5  C   UNL     1       5.790   5.890  17.165  0.00  0.00    +0.000 C 
ATOM      6  C   UNL     1       5.203   5.320  18.488  0.00  0.00    +0.000 C 
ENDROOT
BRANCH   5   7
ATOM      7  N   UNL     1       5.987   4.778  16.197  0.00  0.00    +0.000 NA
ATOM      8  C   UNL     1       7.414   4.744  15.777  0.00  0.00    +0.000 C 
ATOM      9  C   UNL     1       7.708   5.307  14.374  0.00  0.00    +0.000 C 
ATOM     10  C   UNL     1       6.893   4.499  13.404  0.00  0.00    +0.000 A 
ATOM     11  C   UNL     1       7.422   3.937  12.243  0.00  0.00    +0.000 A 
ATOM     12  C   UNL     1       6.624   3.101  11.462  0.00  0.00    +0.000 A 
ATOM     13  C   UNL     1       5.299   2.851  11.827  0.00  0.00    +0.000 A 
ATOM     14  C   UNL     1       4.760   3.436  12.974  0.00  0.00    +0.000 A 
ATOM     15  C   UNL     1       5.560   4.251  13.778  0.00  0.00    +0.000 A 
ATOM     16  C   UNL     1       5.059   4.913  15.045  0.00  0.00    +0.000 C 
ENDBRANCH   5   7
BRANCH   2  17
ATOM     17  C   UNL     1       2.326   4.372  19.271  0.00  0.00    +0.000 A 
ATOM     18  C   UNL     1       2.297   2.986  19.032  0.00  0.00    +0.000 A 
ATOM     19  C   UNL     1       1.985   2.101  20.065  0.00  0.00    +0.000 A 
ATOM     20  C   UNL     1       1.705   2.603  21.336  0.00  0.00    +0.000 A 
ATOM     21  F   UNL     1       1.420   1.754  22.332  0.00  0.00    +0.000 F 
ATOM     22  C   UNL     1       1.690   3.966  21.577  0.00  0.00    +0.000 A 
ATOM     23  C   UNL     1       1.963   4.859  20.534  0.00  0.00    +0.000 A 
ATOM     24 CL   UNL     1       1.710   6.537  20.860  0.00  0.00    +0.000 Cl
ENDBRANCH   2  17
TORSDOF 2
ENDMDL
MODEL 7
REMARK VINA RESULT:      -6.9      3.621      7.737
REMARK  Name = 
REMARK  2 active torsions:
REMARK  status: ('A' for Active; 'I' for Inactive)
REMARK    1  A    between atoms: C_2  and  C_3
REMARK    2  A    between atoms: C_13  and  N_14
REMARK                            x       y       z     vdW  Elec       q    Type
REMARK                         _______ _______ _______ _____ _____    ______ ____
ROOT
ATOM      1  O   UNL     1       7.808   4.437  16.411  0.00  0.00    +0.000 OA
ATOM      2  C   UNL     1       7.018   5.015  15.667  0.00  0.00    +0.000 C 
ATOM      3  N   UNL     1       6.240   6.074  16.065  0.00  0.00    +0.000 N 
ATOM      4  C   UNL     1       6.140   6.650  17.396  0.00  0.00    +0.000 C 
ATOM      5  C   UNL     1       4.636   6.881  17.125  0.00  0.00    +0.000 C 
ATOM      6  C   UNL     1       4.941   6.569  15.632  0.00  0.00    +0.000 C 
ENDROOT
BRANCH   5   7
ATOM      7  N   UNL     1       3.775   5.805  17.685  0.00  0.00    +0.000 NA
ATOM      8  C   UNL     1       2.520   6.408  18.208  0.00  0.00    +0.000 C 
ATOM      9  C   UNL     1       2.434   6.540  19.740  0.00  0.00    +0.000 C 
ATOM     10  C   UNL     1       2.583   5.154  20.303  0.00  0.00    +0.000 A 
ATOM     11  C   UNL     1       1.720   4.620  21.259  0.00  0.00    +0.000 A 
ATOM     12  C   UNL     1       1.859   3.284  21.636  0.00  0.00    +0.000 A 
ATOM     13  C   UNL     1       2.871   2.497  21.080  0.00  0.00    +0.000 A 
ATOM     14  C   UNL     1       3.753   3.040  20.144  0.00  0.00    +0.000 A 
ATOM     15  C   UNL     1       3.603   4.368  19.738  0.00  0.00    +0.000 A 
ATOM     16  C   UNL     1       4.507   5.030  18.719  0.00  0.00    +0.000 C 
ENDBRANCH   5   7
BRANCH   2  17
ATOM     17  C   UNL     1       6.898   4.544  14.267  0.00  0.00    +0.000 A 
ATOM     18  C   UNL     1       5.972   3.520  13.997  0.00  0.00    +0.000 A 
ATOM     19  C   UNL     1       5.838   3.019  12.701  0.00  0.00    +0.000 A 
ATOM     20  C   UNL     1       6.627   3.546  11.678  0.00  0.00    +0.000 A 
ATOM     21  F   UNL     1       6.488   3.077  10.431  0.00  0.00    +0.000 F 
ATOM     22  C   UNL     1       7.569   4.526  11.936  0.00  0.00    +0.000 A 
ATOM     23  C   UNL     1       7.736   5.002  13.242  0.00  0.00    +0.000 A 
ATOM     24 CL   UNL     1       9.076   6.058  13.521  0.00  0.00    +0.000 Cl
ENDBRANCH   2  17
TORSDOF 2
ENDMDL
MODEL 8
REMARK VINA RESULT:      -6.7      6.290      9.017
REMARK  Name = 
REMARK  2 active torsions:
REMARK  status: ('A' for Active; 'I' for Inactive)
REMARK    1  A    between atoms: C_2  and  C_3
REMARK    2  A    between atoms: C_13  and  N_14
REMARK                            x       y       z     vdW  Elec       q    Type
REMARK                         _______ _______ _______ _____ _____    ______ ____
ROOT
ATOM      1  O   UNL     1       1.833   8.285  21.315  0.00  0.00    +0.000 OA
ATOM      2  C   UNL     1       1.778   8.012  20.118  0.00  0.00    +0.000 C 
ATOM      3  N   UNL     1       1.624   8.957  19.132  0.00  0.00    +0.000 N 
ATOM      4  C   UNL     1       1.428  10.387  19.298  0.00  0.00    +0.000 C 
ATOM      5  C   UNL     1       0.478  10.344  18.079  0.00  0.00    +0.000 C 
ATOM      6  C   UNL     1       1.030   8.916  17.804  0.00  0.00    +0.000 C 
ENDROOT
BRANCH   5   7
ATOM      7  N   UNL     1      -0.955  10.250  18.465  0.00  0.00    +0.000 NA
ATOM      8  C   UNL     1      -1.732   9.696  17.324  0.00  0.00    +0.000 C 
ATOM      9  C   UNL     1      -2.564  10.718  16.527  0.00  0.00    +0.000 C 
ATOM     10  C   UNL     1      -3.514  11.356  17.501  0.00  0.00    +0.000 A 
ATOM     11  C   UNL     1      -4.880  11.493  17.260  0.00  0.00    +0.000 A 
ATOM     12  C   UNL     1      -5.707  11.987  18.268  0.00  0.00    +0.000 A 
ATOM     13  C   UNL     1      -5.167  12.368  19.499  0.00  0.00    +0.000 A 
ATOM     14  C   UNL     1      -3.794  12.258  19.731  0.00  0.00    +0.000 A 
ATOM     15  C   UNL     1      -2.962  11.736  18.738  0.00  0.00    +0.000 A 
ATOM     16  C   UNL     1      -1.467  11.571  18.912  0.00  0.00    +0.000 C 
ENDBRANCH   5   7
BRANCH   2  17
ATOM     17  C   UNL     1       1.885   6.591  19.715  0.00  0.00    +0.000 A 
ATOM     18  C   UNL     1       1.147   5.644  20.450  0.00  0.00    +0.000 A 
ATOM     19  C   UNL     1       1.232   4.288  20.132  0.00  0.00    +0.000 A 
ATOM     20  C   UNL     1       2.050   3.881  19.079  0.00  0.00    +0.000 A 
ATOM     21  F   UNL     1       2.120   2.581  18.763  0.00  0.00    +0.000 F 
ATOM     22  C   UNL     1       2.812   4.796  18.373  0.00  0.00    +0.000 A 
ATOM     23  C   UNL     1       2.761   6.152  18.714  0.00  0.00    +0.000 A 
ATOM     24 CL   UNL     1       3.901   7.194  17.937  0.00  0.00    +0.000 Cl
ENDBRANCH   2  17
TORSDOF 2
ENDMDL
MODEL 9
REMARK VINA RESULT:      -6.7      5.845      7.750
REMARK  Name = 
REMARK  2 active torsions:
REMARK  status: ('A' for Active; 'I' for Inactive)
REMARK    1  A    between atoms: C_2  and  C_3
REMARK    2  A    between atoms: C_13  and  N_14
REMARK                            x       y       z     vdW  Elec       q    Type
REMARK                         _______ _______ _______ _____ _____    ______ ____
ROOT
ATOM      1  O   UNL     1       1.329  10.888  18.587  0.00  0.00    +0.000 OA
ATOM      2  C   UNL     1       0.418  10.394  19.248  0.00  0.00    +0.000 C 
ATOM      3  N   UNL     1       0.625   9.568  20.325  0.00  0.00    +0.000 N 
ATOM      4  C   UNL     1       1.895   9.072  20.831  0.00  0.00    +0.000 C 
ATOM      5  C   UNL     1       1.184   7.740  21.159  0.00  0.00    +0.000 C 
ATOM      6  C   UNL     1      -0.157   8.490  20.914  0.00  0.00    +0.000 C 
ENDROOT
BRANCH   5   7
ATOM      7  N   UNL     1       1.369   6.709  20.102  0.00  0.00    +0.000 NA
ATOM      8  C   UNL     1       1.204   5.359  20.704  0.00  0.00    +0.000 C 
ATOM      9  C   UNL     1       2.508   4.576  20.949  0.00  0.00    +0.000 C 
ATOM     10  C   UNL     1       3.186   4.438  19.615  0.00  0.00    +0.000 A 
ATOM     11  C   UNL     1       3.677   3.227  19.129  0.00  0.00    +0.000 A 
ATOM     12  C   UNL     1       4.183   3.166  17.830  0.00  0.00    +0.000 A 
ATOM     13  C   UNL     1       4.222   4.314  17.035  0.00  0.00    +0.000 A 
ATOM     14  C   UNL     1       3.757   5.533  17.532  0.00  0.00    +0.000 A 
ATOM     15  C   UNL     1       3.221   5.598  18.821  0.00  0.00    +0.000 A 
ATOM     16  C   UNL     1       2.683   6.875  19.431  0.00  0.00    +0.000 C 
ENDBRANCH   5   7
BRANCH   2  17
ATOM     17  C   UNL     1      -0.978  10.706  18.863  0.00  0.00    +0.000 A 
ATOM     18  C   UNL     1      -1.514  10.045  17.744  0.00  0.00    +0.000 A 
ATOM     19  C   UNL     1      -2.814  10.321  17.320  0.00  0.00    +0.000 A 
ATOM     20  C   UNL     1      -3.578  11.256  18.019  0.00  0.00    +0.000 A 
ATOM     21  F   UNL     1      -4.832  11.511  17.622  0.00  0.00    +0.000 F 
ATOM     22  C   UNL     1      -3.051  11.944  19.098  0.00  0.00    +0.000 A 
ATOM     23  C   UNL     1      -1.734  11.699  19.501  0.00  0.00    +0.000 A 
ATOM     24 CL   UNL     1      -1.081  12.750  20.709  0.00  0.00    +0.000 Cl
ENDBRANCH   2  17
TORSDOF 2
ENDMDL
