MODEL 1
REMARK VINA RESULT:      -7.8      0.000      0.000
REMARK  Name = 
REMARK  7 active torsions:
REMARK  status: ('A' for Active; 'I' for Inactive)
REMARK    1  A    between atoms: C_1  and  C_2
REMARK    2  A    between atoms: C_2  and  S_3
REMARK    3  A    between atoms: S_3  and  N_6
REMARK    4  A    between atoms: N_9  and  C_10
REMARK    5  A    between atoms: C_11  and  C_12
REMARK    6  A    between atoms: N_13  and  C_14
REMARK    7  A    between atoms: N_22  and  C_23
REMARK                            x       y       z     vdW  Elec       q    Type
REMARK                         _______ _______ _______ _____ _____    ______ ____
ROOT
ATOM      1  C   UNL     1       2.490   6.815  19.334  0.00  0.00    +0.000 A 
ATOM      2  C   UNL     1       3.498   6.497  18.490  0.00  0.00    +0.000 A 
ATOM      3  C   UNL     1       4.017   7.498  17.471  0.00  0.00    +0.000 C 
ATOM      4  N   UNL     1       4.020   5.192  18.428  0.00  0.00    +0.000 N 
ATOM      5  C   UNL     1       3.529   4.145  19.231  0.00  0.00    +0.000 A 
ATOM      6  O   UNL     1       3.961   2.990  19.169  0.00  0.00    +0.000 OA
ATOM      7  N   UNL     1       2.542   4.483  20.142  0.00  0.00    +0.000 N 
ATOM      8  C   UNL     1       2.056   3.465  21.057  0.00  0.00    +0.000 C 
ATOM      9  C   UNL     1       1.988   5.738  20.268  0.00  0.00    +0.000 A 
ATOM     10  O   UNL     1       1.121   5.999  21.107  0.00  0.00    +0.000 OA
ENDROOT
BRANCH   1  14
ATOM     11  N   UNL     1       0.058  10.352  19.638  0.00  0.00    +0.000 NA
ATOM     12  C   UNL     1       0.267   9.652  18.318  0.00  0.00    +0.000 C 
ATOM     13  C   UNL     1       1.630   8.922  18.260  0.00  0.00    +0.000 C 
ATOM     14  N   UNL     1       1.851   8.059  19.450  0.00  0.00    +0.000 N 
ATOM     15  C   UNL     1       1.541   8.680  20.750  0.00  0.00    +0.000 C 
ATOM     16  C   UNL     1       0.148   9.331  20.735  0.00  0.00    +0.000 C 
BRANCH  11  17
ATOM     17  S   UNL     1       0.989  11.763  19.896  0.00  0.00    +0.000 S 
ATOM     18  O   UNL     1       1.925  11.902  18.797  0.00  0.00    +0.000 OA
ATOM     19  O   UNL     1       1.438  11.780  21.268  0.00  0.00    +0.000 OA
BRANCH  17  21
ATOM     20  C   UNL     1      -0.397  13.417  18.257  0.00  0.00    +0.000 C 
ATOM     21  C   UNL     1      -0.239  13.051  19.725  0.00  0.00    +0.000 C 
ENDBRANCH  17  21
ENDBRANCH  11  17
ENDBRANCH   1  14
BRANCH   4  22
ATOM     22  C   UNL     1       5.072   4.840  17.513  0.00  0.00    +0.000 A 
ATOM     23  C   UNL     1       4.766   4.404  16.217  0.00  0.00    +0.000 A 
ATOM     24  C   UNL     1       5.788   4.084  15.321  0.00  0.00    +0.000 A 
ATOM     25  C   UNL     1       7.120   4.195  15.713  0.00  0.00    +0.000 A 
ATOM     26  C   UNL     1       7.435   4.618  17.002  0.00  0.00    +0.000 A 
ATOM     27  C   UNL     1       6.415   4.929  17.903  0.00  0.00    +0.000 A 
ENDBRANCH   4  22
TORSDOF 4
ENDMDL
MODEL 2
REMARK VINA RESULT:      -7.7      0.316      1.019
REMARK  Name = 
REMARK  7 active torsions:
REMARK  status: ('A' for Active; 'I' for Inactive)
REMARK    1  A    between atoms: C_1  and  C_2
REMARK    2  A    between atoms: C_2  and  S_3
REMARK    3  A    between atoms: S_3  and  N_6
REMARK    4  A    between atoms: N_9  and  C_10
REMARK    5  A    between atoms: C_11  and  C_12
REMARK    6  A    between atoms: N_13  and  C_14
REMARK    7  A    between atoms: N_22  and  C_23
REMARK                            x       y       z     vdW  Elec       q    Type
REMARK                         _______ _______ _______ _____ _____    ______ ____
ROOT
ATOM      1  C   UNL     1       2.475   6.909  19.309  0.00  0.00    +0.000 A 
ATOM      2  C   UNL     1       3.483   6.570  18.472  0.00  0.00    +0.000 A 
ATOM      3  C   UNL     1       3.996   7.543  17.424  0.00  0.00    +0.000 C 
ATOM      4  N   UNL     1       4.008   5.266  18.446  0.00  0.00    +0.000 N 
ATOM      5  C   UNL     1       3.524   4.241  19.280  0.00  0.00    +0.000 A 
ATOM      6  O   UNL     1       3.959   3.086  19.251  0.00  0.00    +0.000 OA
ATOM      7  N   UNL     1       2.537   4.601  20.184  0.00  0.00    +0.000 N 
ATOM      8  C   UNL     1       2.057   3.609  21.129  0.00  0.00    +0.000 C 
ATOM      9  C   UNL     1       1.979   5.858  20.275  0.00  0.00    +0.000 A 
ATOM     10  O   UNL     1       1.113   6.140  21.109  0.00  0.00    +0.000 OA
ENDROOT
BRANCH   1  14
ATOM     11  N   UNL     1       0.032  10.445  19.523  0.00  0.00    +0.000 NA
ATOM     12  C   UNL     1       0.229   9.702  18.225  0.00  0.00    +0.000 C 
ATOM     13  C   UNL     1       1.594   8.976  18.175  0.00  0.00    +0.000 C 
ATOM     14  N   UNL     1       1.833   8.154  19.391  0.00  0.00    +0.000 N 
ATOM     15  C   UNL     1       1.536   8.817  20.674  0.00  0.00    +0.000 C 
ATOM     16  C   UNL     1       0.139   9.461  20.653  0.00  0.00    +0.000 C 
BRANCH  11  17
ATOM     17  S   UNL     1       0.960  11.867  19.723  0.00  0.00    +0.000 S 
ATOM     18  O   UNL     1       1.948  11.924  18.662  0.00  0.00    +0.000 OA
ATOM     19  O   UNL     1       1.346  11.981  21.110  0.00  0.00    +0.000 OA
BRANCH  17  21
ATOM     20  C   UNL     1      -1.646  12.608  19.676  0.00  0.00    +0.000 C 
ATOM     21  C   UNL     1      -0.249  13.144  19.403  0.00  0.00    +0.000 C 
ENDBRANCH  17  21
ENDBRANCH  11  17
ENDBRANCH   1  14
BRANCH   4  22
ATOM     22  C   UNL     1       5.059   4.891  17.539  0.00  0.00    +0.000 A 
ATOM     23  C   UNL     1       6.402   5.005  17.925  0.00  0.00    +0.000 A 
ATOM     24  C   UNL     1       7.422   4.620  17.054  0.00  0.00    +0.000 A 
ATOM     25  C   UNL     1       7.109   4.119  15.792  0.00  0.00    +0.000 A 
ATOM     26  C   UNL     1       5.779   4.011  15.394  0.00  0.00    +0.000 A 
ATOM     27  C   UNL     1       4.758   4.405  16.260  0.00  0.00    +0.000 A 
ENDBRANCH   4  22
TORSDOF 4
ENDMDL
MODEL 3
REMARK VINA RESULT:      -7.3      0.971      1.140
REMARK  Name = 
REMARK  7 active torsions:
REMARK  status: ('A' for Active; 'I' for Inactive)
REMARK    1  A    between atoms: C_1  and  C_2
REMARK    2  A    between atoms: C_2  and  S_3
REMARK    3  A    between atoms: S_3  and  N_6
REMARK    4  A    between atoms: N_9  and  C_10
REMARK    5  A    between atoms: C_11  and  C_12
REMARK    6  A    between atoms: N_13  and  C_14
REMARK    7  A    between atoms: N_22  and  C_23
REMARK                            x       y       z     vdW  Elec       q    Type
REMARK                         _______ _______ _______ _____ _____    ______ ____
ROOT
ATOM      1  C   UNL     1       2.446   7.103  19.195  0.00  0.00    +0.000 A 
ATOM      2  C   UNL     1       3.463   6.701  18.398  0.00  0.00    +0.000 A 
ATOM      3  C   UNL     1       3.971   7.580  17.268  0.00  0.00    +0.000 C 
ATOM      4  N   UNL     1       4.004   5.407  18.495  0.00  0.00    +0.000 N 
ATOM      5  C   UNL     1       3.526   4.457  19.416  0.00  0.00    +0.000 A 
ATOM      6  O   UNL     1       3.975   3.309  19.496  0.00  0.00    +0.000 OA
ATOM      7  N   UNL     1       2.529   4.886  20.278  0.00  0.00    +0.000 N 
ATOM      8  C   UNL     1       2.054   3.979  21.307  0.00  0.00    +0.000 C 
ATOM      9  C   UNL     1       1.956   6.139  20.250  0.00  0.00    +0.000 A 
ATOM     10  O   UNL     1       1.081   6.486  21.050  0.00  0.00    +0.000 OA
ENDROOT
BRANCH   1  14
ATOM     11  N   UNL     1      -0.035  10.619  19.175  0.00  0.00    +0.000 NA
ATOM     12  C   UNL     1      -0.028   9.655  18.015  0.00  0.00    +0.000 C 
ATOM     13  C   UNL     1       1.333   8.932  17.872  0.00  0.00    +0.000 C 
ATOM     14  N   UNL     1       1.788   8.342  19.158  0.00  0.00    +0.000 N 
ATOM     15  C   UNL     1       1.682   9.225  20.334  0.00  0.00    +0.000 C 
ATOM     16  C   UNL     1       0.282   9.855  20.428  0.00  0.00    +0.000 C 
BRANCH  11  17
ATOM     17  S   UNL     1       0.871  12.054  18.964  0.00  0.00    +0.000 S 
ATOM     18  O   UNL     1       0.015  13.051  18.350  0.00  0.00    +0.000 OA
ATOM     19  O   UNL     1       2.154  11.716  18.395  0.00  0.00    +0.000 OA
BRANCH  17  21
ATOM     20  C   UNL     1       2.362  13.489  20.714  0.00  0.00    +0.000 C 
ATOM     21  C   UNL     1       1.159  12.560  20.655  0.00  0.00    +0.000 C 
ENDBRANCH  17  21
ENDBRANCH  11  17
ENDBRANCH   1  14
BRANCH   4  22
ATOM     22  C   UNL     1       5.065   4.963  17.632  0.00  0.00    +0.000 A 
ATOM     23  C   UNL     1       4.773   4.407  16.379  0.00  0.00    +0.000 A 
ATOM     24  C   UNL     1       5.804   3.997  15.531  0.00  0.00    +0.000 A 
ATOM     25  C   UNL     1       7.132   4.138  15.929  0.00  0.00    +0.000 A 
ATOM     26  C   UNL     1       7.433   4.680  17.176  0.00  0.00    +0.000 A 
ATOM     27  C   UNL     1       6.404   5.081  18.029  0.00  0.00    +0.000 A 
ENDBRANCH   4  22
TORSDOF 4
ENDMDL
MODEL 4
REMARK VINA RESULT:      -7.3      1.161      1.658
REMARK  Name = 
REMARK  7 active torsions:
REMARK  status: ('A' for Active; 'I' for Inactive)
REMARK    1  A    between atoms: C_1  and  C_2
REMARK    2  A    between atoms: C_2  and  S_3
REMARK    3  A    between atoms: S_3  and  N_6
REMARK    4  A    between atoms: N_9  and  C_10
REMARK    5  A    between atoms: C_11  and  C_12
REMARK    6  A    between atoms: N_13  and  C_14
REMARK    7  A    between atoms: N_22  and  C_23
REMARK                            x       y       z     vdW  Elec       q    Type
REMARK                         _______ _______ _______ _____ _____    ______ ____
ROOT
ATOM      1  C   UNL     1       2.450   7.020  19.270  0.00  0.00    +0.000 A 
ATOM      2  C   UNL     1       3.466   6.635  18.464  0.00  0.00    +0.000 A 
ATOM      3  C   UNL     1       3.968   7.534  17.347  0.00  0.00    +0.000 C 
ATOM      4  N   UNL     1       4.012   5.341  18.538  0.00  0.00    +0.000 N 
ATOM      5  C   UNL     1       3.540   4.374  19.445  0.00  0.00    +0.000 A 
ATOM      6  O   UNL     1       3.993   3.227  19.503  0.00  0.00    +0.000 OA
ATOM      7  N   UNL     1       2.545   4.786  20.317  0.00  0.00    +0.000 N 
ATOM      8  C   UNL     1       2.076   3.859  21.332  0.00  0.00    +0.000 C 
ATOM      9  C   UNL     1       1.967   6.037  20.311  0.00  0.00    +0.000 A 
ATOM     10  O   UNL     1       1.094   6.367  21.119  0.00  0.00    +0.000 OA
ENDROOT
BRANCH   1  14
ATOM     11  N   UNL     1       0.918  11.040  19.310  0.00  0.00    +0.000 NA
ATOM     12  C   UNL     1       1.352  10.351  20.579  0.00  0.00    +0.000 C 
ATOM     13  C   UNL     1       1.181   8.816  20.492  0.00  0.00    +0.000 C 
ATOM     14  N   UNL     1       1.789   8.257  19.256  0.00  0.00    +0.000 N 
ATOM     15  C   UNL     1       1.476   8.982  18.011  0.00  0.00    +0.000 C 
ATOM     16  C   UNL     1       1.728  10.491  18.171  0.00  0.00    +0.000 C 
BRANCH  11  17
ATOM     17  S   UNL     1      -0.768  11.098  19.025  0.00  0.00    +0.000 S 
ATOM     18  O   UNL     1      -1.445  11.214  20.302  0.00  0.00    +0.000 OA
ATOM     19  O   UNL     1      -1.117  10.059  18.084  0.00  0.00    +0.000 OA
BRANCH  17  21
ATOM     20  C   UNL     1      -0.107  13.721  18.875  0.00  0.00    +0.000 C 
ATOM     21  C   UNL     1      -0.945  12.661  18.177  0.00  0.00    +0.000 C 
ENDBRANCH  17  21
ENDBRANCH  11  17
ENDBRANCH   1  14
BRANCH   4  22
ATOM     22  C   UNL     1       5.072   4.915  17.664  0.00  0.00    +0.000 A 
ATOM     23  C   UNL     1       4.777   4.358  16.412  0.00  0.00    +0.000 A 
ATOM     24  C   UNL     1       5.806   3.965  15.554  0.00  0.00    +0.000 A 
ATOM     25  C   UNL     1       7.136   4.125  15.941  0.00  0.00    +0.000 A 
ATOM     26  C   UNL     1       7.440   4.668  17.186  0.00  0.00    +0.000 A 
ATOM     27  C   UNL     1       6.412   5.052  18.049  0.00  0.00    +0.000 A 
ENDBRANCH   4  22
TORSDOF 4
ENDMDL
MODEL 5
REMARK VINA RESULT:      -7.1      0.904      1.019
REMARK  Name = 
REMARK  7 active torsions:
REMARK  status: ('A' for Active; 'I' for Inactive)
REMARK    1  A    between atoms: C_1  and  C_2
REMARK    2  A    between atoms: C_2  and  S_3
REMARK    3  A    between atoms: S_3  and  N_6
REMARK    4  A    between atoms: N_9  and  C_10
REMARK    5  A    between atoms: C_11  and  C_12
REMARK    6  A    between atoms: N_13  and  C_14
REMARK    7  A    between atoms: N_22  and  C_23
REMARK                            x       y       z     vdW  Elec       q    Type
REMARK                         _______ _______ _______ _____ _____    ______ ____
ROOT
ATOM      1  C   UNL     1       2.448   6.920  19.370  0.00  0.00    +0.000 A 
ATOM      2  C   UNL     1       3.455   6.579  18.533  0.00  0.00    +0.000 A 
ATOM      3  C   UNL     1       3.947   7.538  17.462  0.00  0.00    +0.000 C 
ATOM      4  N   UNL     1       3.998   5.282  18.530  0.00  0.00    +0.000 N 
ATOM      5  C   UNL     1       3.533   4.267  19.387  0.00  0.00    +0.000 A 
ATOM      6  O   UNL     1       3.985   3.118  19.378  0.00  0.00    +0.000 OA
ATOM      7  N   UNL     1       2.548   4.632  20.291  0.00  0.00    +0.000 N 
ATOM      8  C   UNL     1       2.088   3.652  21.258  0.00  0.00    +0.000 C 
ATOM      9  C   UNL     1       1.973   5.882  20.361  0.00  0.00    +0.000 A 
ATOM     10  O   UNL     1       1.109   6.169  21.194  0.00  0.00    +0.000 OA
ENDROOT
BRANCH   1  14
ATOM     11  N   UNL     1      -0.038  10.432  19.464  0.00  0.00    +0.000 NA
ATOM     12  C   UNL     1       0.296   9.738  18.166  0.00  0.00    +0.000 C 
ATOM     13  C   UNL     1       1.666   9.023  18.229  0.00  0.00    +0.000 C 
ATOM     14  N   UNL     1       1.789   8.158  19.431  0.00  0.00    +0.000 N 
ATOM     15  C   UNL     1       1.358   8.771  20.701  0.00  0.00    +0.000 C 
ATOM     16  C   UNL     1      -0.035   9.408  20.563  0.00  0.00    +0.000 C 
BRANCH  11  17
ATOM     17  S   UNL     1       0.852  11.851  19.808  0.00  0.00    +0.000 S 
ATOM     18  O   UNL     1       1.575  11.650  21.049  0.00  0.00    +0.000 OA
ATOM     19  O   UNL     1      -0.007  12.997  19.619  0.00  0.00    +0.000 OA
BRANCH  17  21
ATOM     20  C   UNL     1       2.348  13.299  18.073  0.00  0.00    +0.000 C 
ATOM     21  C   UNL     1       2.052  11.864  18.482  0.00  0.00    +0.000 C 
ENDBRANCH  17  21
ENDBRANCH  11  17
ENDBRANCH   1  14
BRANCH   4  22
ATOM     22  C   UNL     1       5.048   4.903  17.623  0.00  0.00    +0.000 A 
ATOM     23  C   UNL     1       4.739   4.415  16.346  0.00  0.00    +0.000 A 
ATOM     24  C   UNL     1       5.758   4.069  15.457  0.00  0.00    +0.000 A 
ATOM     25  C   UNL     1       7.092   4.206  15.837  0.00  0.00    +0.000 A 
ATOM     26  C   UNL     1       7.410   4.681  17.107  0.00  0.00    +0.000 A 
ATOM     27  C   UNL     1       6.393   5.018  18.001  0.00  0.00    +0.000 A 
ENDBRANCH   4  22
TORSDOF 4
ENDMDL
MODEL 6
REMARK VINA RESULT:      -7.0      1.294      1.951
REMARK  Name = 
REMARK  7 active torsions:
REMARK  status: ('A' for Active; 'I' for Inactive)
REMARK    1  A    between atoms: C_1  and  C_2
REMARK    2  A    between atoms: C_2  and  S_3
REMARK    3  A    between atoms: S_3  and  N_6
REMARK    4  A    between atoms: N_9  and  C_10
REMARK    5  A    between atoms: C_11  and  C_12
REMARK    6  A    between atoms: N_13  and  C_14
REMARK    7  A    between atoms: N_22  and  C_23
REMARK                            x       y       z     vdW  Elec       q    Type
REMARK                         _______ _______ _______ _____ _____    ______ ____
ROOT
ATOM      1  C   UNL     1       2.412   6.957  19.363  0.00  0.00    +0.000 A 
ATOM      2  C   UNL     1       3.420   6.625  18.525  0.00  0.00    +0.000 A 
ATOM      3  C   UNL     1       3.888   7.581  17.440  0.00  0.00    +0.000 C 
ATOM      4  N   UNL     1       3.989   5.339  18.535  0.00  0.00    +0.000 N 
ATOM      5  C   UNL     1       3.549   4.326  19.406  0.00  0.00    +0.000 A 
ATOM      6  O   UNL     1       4.023   3.186  19.408  0.00  0.00    +0.000 OA
ATOM      7  N   UNL     1       2.561   4.682  20.311  0.00  0.00    +0.000 N 
ATOM      8  C   UNL     1       2.125   3.705  21.292  0.00  0.00    +0.000 C 
ATOM      9  C   UNL     1       1.962   5.922  20.369  0.00  0.00    +0.000 A 
ATOM     10  O   UNL     1       1.097   6.201  21.204  0.00  0.00    +0.000 OA
ENDROOT
BRANCH   1  14
ATOM     11  N   UNL     1       0.815  10.949  19.537  0.00  0.00    +0.000 NA
ATOM     12  C   UNL     1       1.410  10.286  20.754  0.00  0.00    +0.000 C 
ATOM     13  C   UNL     1       1.260   8.747  20.706  0.00  0.00    +0.000 C 
ATOM     14  N   UNL     1       1.728   8.182  19.414  0.00  0.00    +0.000 N 
ATOM     15  C   UNL     1       1.256   8.883  18.206  0.00  0.00    +0.000 C 
ATOM     16  C   UNL     1       1.495  10.398  18.317  0.00  0.00    +0.000 C 
BRANCH  11  17
ATOM     17  S   UNL     1      -0.893  10.972  19.454  0.00  0.00    +0.000 S 
ATOM     18  O   UNL     1      -1.405  11.557  20.678  0.00  0.00    +0.000 OA
ATOM     19  O   UNL     1      -1.355   9.684  18.991  0.00  0.00    +0.000 OA
BRANCH  17  21
ATOM     20  C   UNL     1      -2.247  11.601  17.192  0.00  0.00    +0.000 C 
ATOM     21  C   UNL     1      -1.183  12.143  18.135  0.00  0.00    +0.000 C 
ENDBRANCH  17  21
ENDBRANCH  11  17
ENDBRANCH   1  14
BRANCH   4  22
ATOM     22  C   UNL     1       5.042   4.971  17.627  0.00  0.00    +0.000 A 
ATOM     23  C   UNL     1       6.384   5.114  18.004  0.00  0.00    +0.000 A 
ATOM     24  C   UNL     1       7.407   4.735  17.132  0.00  0.00    +0.000 A 
ATOM     25  C   UNL     1       7.096   4.211  15.879  0.00  0.00    +0.000 A 
ATOM     26  C   UNL     1       5.766   4.075  15.489  0.00  0.00    +0.000 A 
ATOM     27  C   UNL     1       4.743   4.463  16.356  0.00  0.00    +0.000 A 
ENDBRANCH   4  22
TORSDOF 4
ENDMDL
MODEL 7
REMARK VINA RESULT:      -7.0      7.997      9.742
REMARK  Name = 
REMARK  7 active torsions:
REMARK  status: ('A' for Active; 'I' for Inactive)
REMARK    1  A    between atoms: C_1  and  C_2
REMARK    2  A    between atoms: C_2  and  S_3
REMARK    3  A    between atoms: S_3  and  N_6
REMARK    4  A    between atoms: N_9  and  C_10
REMARK    5  A    between atoms: C_11  and  C_12
REMARK    6  A    between atoms: N_13  and  C_14
REMARK    7  A    between atoms: N_22  and  C_23
REMARK                            x       y       z     vdW  Elec       q    Type
REMARK                         _______ _______ _______ _____ _____    ______ ____
ROOT
ATOM      1  C   UNL     1      -4.095  12.816  21.027  0.00  0.00    +0.000 A 
ATOM      2  C   UNL     1      -3.585  12.296  19.887  0.00  0.00    +0.000 A 
ATOM      3  C   UNL     1      -2.153  12.580  19.465  0.00  0.00    +0.000 C 
ATOM      4  N   UNL     1      -4.389  11.581  18.982  0.00  0.00    +0.000 N 
ATOM      5  C   UNL     1      -5.763  11.366  19.201  0.00  0.00    +0.000 A 
ATOM      6  O   UNL     1      -6.486  10.762  18.403  0.00  0.00    +0.000 OA
ATOM      7  N   UNL     1      -6.274  11.841  20.398  0.00  0.00    +0.000 N 
ATOM      8  C   UNL     1      -7.665  11.576  20.720  0.00  0.00    +0.000 C 
ATOM      9  C   UNL     1      -5.548  12.541  21.337  0.00  0.00    +0.000 A 
ATOM     10  O   UNL     1      -6.041  12.931  22.400  0.00  0.00    +0.000 OA
ENDROOT
BRANCH   1  14
ATOM     11  N   UNL     1      -1.575  15.181  23.590  0.00  0.00    +0.000 NA
ATOM     12  C   UNL     1      -1.355  13.698  23.421  0.00  0.00    +0.000 C 
ATOM     13  C   UNL     1      -2.670  12.952  23.097  0.00  0.00    +0.000 C 
ATOM     14  N   UNL     1      -3.412  13.590  21.977  0.00  0.00    +0.000 N 
ATOM     15  C   UNL     1      -3.541  15.056  22.057  0.00  0.00    +0.000 C 
ATOM     16  C   UNL     1      -2.179  15.718  22.325  0.00  0.00    +0.000 C 
BRANCH  11  17
ATOM     17  S   UNL     1      -2.373  15.664  25.024  0.00  0.00    +0.000 S 
ATOM     18  O   UNL     1      -3.201  14.564  25.481  0.00  0.00    +0.000 OA
ATOM     19  O   UNL     1      -2.925  16.984  24.828  0.00  0.00    +0.000 OA
BRANCH  17  21
ATOM     20  C   UNL     1      -0.859  17.280  26.585  0.00  0.00    +0.000 C 
ATOM     21  C   UNL     1      -1.010  15.825  26.169  0.00  0.00    +0.000 C 
ENDBRANCH  17  21
ENDBRANCH  11  17
ENDBRANCH   1  14
BRANCH   4  22
ATOM     22  C   UNL     1      -3.860  11.050  17.755  0.00  0.00    +0.000 A 
ATOM     23  C   UNL     1      -4.217  11.620  16.525  0.00  0.00    +0.000 A 
ATOM     24  C   UNL     1      -3.685  11.119  15.335  0.00  0.00    +0.000 A 
ATOM     25  C   UNL     1      -2.797  10.046  15.365  0.00  0.00    +0.000 A 
ATOM     26  C   UNL     1      -2.444   9.465  16.581  0.00  0.00    +0.000 A 
ATOM     27  C   UNL     1      -2.982   9.958  17.770  0.00  0.00    +0.000 A 
ENDBRANCH   4  22
TORSDOF 4
ENDMDL
MODEL 8
REMARK VINA RESULT:      -6.9      9.062     10.691
REMARK  Name = 
REMARK  7 active torsions:
REMARK  status: ('A' for Active; 'I' for Inactive)
REMARK    1  A    between atoms: C_1  and  C_2
REMARK    2  A    between atoms: C_2  and  S_3
REMARK    3  A    between atoms: S_3  and  N_6
REMARK    4  A    between atoms: N_9  and  C_10
REMARK    5  A    between atoms: C_11  and  C_12
REMARK    6  A    between atoms: N_13  and  C_14
REMARK    7  A    between atoms: N_22  and  C_23
REMARK                            x       y       z     vdW  Elec       q    Type
REMARK                         _______ _______ _______ _____ _____    ______ ____
ROOT
ATOM      1  C   UNL     1       8.660  14.040  23.195  0.00  0.00    +0.000 A 
ATOM      2  C   UNL     1       9.062  13.340  22.110  0.00  0.00    +0.000 A 
ATOM      3  C   UNL     1       8.631  11.898  21.900  0.00  0.00    +0.000 C 
ATOM      4  N   UNL     1       9.997  13.868  21.201  0.00  0.00    +0.000 N 
ATOM      5  C   UNL     1      10.568  15.144  21.362  0.00  0.00    +0.000 A 
ATOM      6  O   UNL     1      11.407  15.609  20.585  0.00  0.00    +0.000 OA
ATOM      7  N   UNL     1      10.109  15.890  22.436  0.00  0.00    +0.000 N 
ATOM      8  C   UNL     1      10.598  17.246  22.606  0.00  0.00    +0.000 C 
ATOM      9  C   UNL     1       9.191  15.446  23.363  0.00  0.00    +0.000 A 
ATOM     10  O   UNL     1       8.797  16.152  24.296  0.00  0.00    +0.000 OA
ENDROOT
BRANCH   1  14
ATOM     11  N   UNL     1       6.035  13.204  26.500  0.00  0.00    +0.000 NA
ATOM     12  C   UNL     1       7.533  13.235  26.674  0.00  0.00    +0.000 C 
ATOM     13  C   UNL     1       8.275  12.842  25.375  0.00  0.00    +0.000 C 
ATOM     14  N   UNL     1       7.781  13.606  24.198  0.00  0.00    +0.000 N 
ATOM     15  C   UNL     1       6.315  13.691  24.068  0.00  0.00    +0.000 C 
ATOM     16  C   UNL     1       5.667  14.142  25.387  0.00  0.00    +0.000 C 
BRANCH  11  17
ATOM     17  S   UNL     1       5.324  11.652  26.391  0.00  0.00    +0.000 S 
ATOM     18  O   UNL     1       5.512  11.155  25.041  0.00  0.00    +0.000 OA
ATOM     19  O   UNL     1       4.013  11.696  26.996  0.00  0.00    +0.000 OA
BRANCH  17  21
ATOM     20  C   UNL     1       5.540   9.646  28.200  0.00  0.00    +0.000 C 
ATOM     21  C   UNL     1       6.373  10.689  27.471  0.00  0.00    +0.000 C 
ENDBRANCH  17  21
ENDBRANCH  11  17
ENDBRANCH   1  14
BRANCH   4  22
ATOM     22  C   UNL     1      10.451  13.118  20.061  0.00  0.00    +0.000 A 
ATOM     23  C   UNL     1      11.574  12.286  20.163  0.00  0.00    +0.000 A 
ATOM     24  C   UNL     1      12.002  11.540  19.063  0.00  0.00    +0.000 A 
ATOM     25  C   UNL     1      11.311  11.620  17.855  0.00  0.00    +0.000 A 
ATOM     26  C   UNL     1      10.200  12.451  17.740  0.00  0.00    +0.000 A 
ATOM     27  C   UNL     1       9.777  13.205  18.835  0.00  0.00    +0.000 A 
ENDBRANCH   4  22
TORSDOF 4
ENDMDL
MODEL 9
REMARK VINA RESULT:      -6.9      1.366      1.894
REMARK  Name = 
REMARK  7 active torsions:
REMARK  status: ('A' for Active; 'I' for Inactive)
REMARK    1  A    between atoms: C_1  and  C_2
REMARK    2  A    between atoms: C_2  and  S_3
REMARK    3  A    between atoms: S_3  and  N_6
REMARK    4  A    between atoms: N_9  and  C_10
REMARK    5  A    between atoms: C_11  and  C_12
REMARK    6  A    between atoms: N_13  and  C_14
REMARK    7  A    between atoms: N_22  and  C_23
REMARK                            x       y       z     vdW  Elec       q    Type
REMARK                         _______ _______ _______ _____ _____    ______ ____
ROOT
ATOM      1  C   UNL     1       2.526   6.528  19.224  0.00  0.00    +0.000 A 
ATOM      2  C   UNL     1       3.532   6.302  18.349  0.00  0.00    +0.000 A 
ATOM      3  C   UNL     1       4.034   7.400  17.426  0.00  0.00    +0.000 C 
ATOM      4  N   UNL     1       4.067   5.015  18.161  0.00  0.00    +0.000 N 
ATOM      5  C   UNL     1       3.592   3.892  18.864  0.00  0.00    +0.000 A 
ATOM      6  O   UNL     1       4.036   2.753  18.692  0.00  0.00    +0.000 OA
ATOM      7  N   UNL     1       2.607   4.131  19.809  0.00  0.00    +0.000 N 
ATOM      8  C   UNL     1       2.137   3.027  20.626  0.00  0.00    +0.000 C 
ATOM      9  C   UNL     1       2.041   5.363  20.055  0.00  0.00    +0.000 A 
ATOM     10  O   UNL     1       1.177   5.534  20.920  0.00  0.00    +0.000 OA
ENDROOT
BRANCH   1  14
ATOM     11  N   UNL     1       1.032  10.502  19.930  0.00  0.00    +0.000 NA
ATOM     12  C   UNL     1       1.753   9.729  21.007  0.00  0.00    +0.000 C 
ATOM     13  C   UNL     1       1.571   8.202  20.843  0.00  0.00    +0.000 C 
ATOM     14  N   UNL     1       1.875   7.749  19.460  0.00  0.00    +0.000 N 
ATOM     15  C   UNL     1       1.278   8.558  18.382  0.00  0.00    +0.000 C 
ATOM     16  C   UNL     1       1.556  10.055  18.595  0.00  0.00    +0.000 C 
BRANCH  11  17
ATOM     17  S   UNL     1      -0.673  10.545  20.050  0.00  0.00    +0.000 S 
ATOM     18  O   UNL     1      -1.109   9.387  20.808  0.00  0.00    +0.000 OA
ATOM     19  O   UNL     1      -1.225  10.838  18.748  0.00  0.00    +0.000 OA
BRANCH  17  21
ATOM     20  C   UNL     1      -1.098  11.565  22.524  0.00  0.00    +0.000 C 
ATOM     21  C   UNL     1      -0.934  11.988  21.072  0.00  0.00    +0.000 C 
ENDBRANCH  17  21
ENDBRANCH  11  17
ENDBRANCH   1  14
BRANCH   4  22
ATOM     22  C   UNL     1       5.117   4.762  17.212  0.00  0.00    +0.000 A 
ATOM     23  C   UNL     1       4.807   4.412  15.891  0.00  0.00    +0.000 A 
ATOM     24  C   UNL     1       5.825   4.188  14.962  0.00  0.00    +0.000 A 
ATOM     25  C   UNL     1       7.159   4.312  15.347  0.00  0.00    +0.000 A 
ATOM     26  C   UNL     1       7.478   4.649  16.660  0.00  0.00    +0.000 A 
ATOM     27  C   UNL     1       6.462   4.863  17.591  0.00  0.00    +0.000 A 
ENDBRANCH   4  22
TORSDOF 4
ENDMDL
