MODEL 1
REMARK VINA RESULT:      -9.2      0.000      0.000
REMARK  Name = 
REMARK  12 active torsions:
REMARK  status: ('A' for Active; 'I' for Inactive)
REMARK    1  A    between atoms: C_1  and  C_2
REMARK    2  A    between atoms: C_4  and  N_5
REMARK    3  A    between atoms: C_6  and  C_8
REMARK    4  A    between atoms: C_8  and  C_9
REMARK    5  A    between atoms: C_8  and  O_10
REMARK    6  A    between atoms: C_8  and  C_11
REMARK    7  A    between atoms: C_19  and  C_20
REMARK    8  A    between atoms: C_23  and  N_24
REMARK    9  A    between atoms: C_25  and  C_26
REMARK   10  A    between atoms: N_28  and  C_29
REMARK   11  A    between atoms: C_29  and  C_30
REMARK   12  A    between atoms: C_29  and  C_31
REMARK                            x       y       z     vdW  Elec       q    Type
REMARK                         _______ _______ _______ _____ _____    ______ ____
ROOT
ATOM      1  C   UNL     1       0.728   8.508  21.628  0.00  0.00    +0.000 C 
ATOM      2  C   UNL     1       1.315   8.407  20.239  0.00  0.00    +0.000 A 
ATOM      3  C   UNL     1       2.216   7.338  20.030  0.00  0.00    +0.000 A 
ATOM      4  C   UNL     1       2.783   7.060  18.793  0.00  0.00    +0.000 A 
ATOM      5  C   UNL     1       2.506   7.926  17.742  0.00  0.00    +0.000 A 
ATOM      6  C   UNL     1       1.637   9.016  17.932  0.00  0.00    +0.000 A 
ATOM      7  C   UNL     1       1.005   9.286  19.176  0.00  0.00    +0.000 A 
ENDROOT
BRANCH   7   8
ATOM      8  C   UNL     1       0.069  10.438  19.286  0.00  0.00    +0.000 A 
ATOM      9  C   UNL     1       0.348  11.573  20.047  0.00  0.00    +0.000 A 
ATOM     10  N   UNL     1      -0.476  12.646  20.203  0.00  0.00    +0.000 NA
ATOM     11  C   UNL     1      -1.653  12.635  19.547  0.00  0.00    +0.000 A 
ATOM     12  C   UNL     1      -2.035  11.583  18.721  0.00  0.00    +0.000 A 
ATOM     13  C   UNL     1      -1.177  10.473  18.646  0.00  0.00    +0.000 A 
BRANCH  12  14
ATOM     14  C   UNL     1      -3.287  11.521  17.911  0.00  0.00    +0.000 C 
ATOM     15  O   UNL     1      -3.222  11.495  16.684  0.00  0.00    +0.000 OA
ATOM     16  N   UNL     1      -4.486  11.502  18.587  0.00  0.00    +0.000 N 
ATOM     17  H   UNL     1      -4.467  11.810  19.558  0.00  0.00    +0.000 HD
BRANCH  16  18
ATOM     18  C   UNL     1      -5.762  11.490  17.888  0.00  0.00    +0.000 C 
ATOM     19  C   UNL     1      -6.769  10.638  18.652  0.00  0.00    +0.000 C 
ATOM     20  C   UNL     1      -6.279  12.912  17.703  0.00  0.00    +0.000 C 
ENDBRANCH  16  18
ENDBRANCH  12  14
BRANCH  11  21
ATOM     21  N   UNL     1      -2.461  13.746  19.818  0.00  0.00    +0.000 N 
ATOM     22  H   UNL     1      -3.403  13.366  19.922  0.00  0.00    +0.000 HD
ATOM     23  H   UNL     1      -2.437  14.376  19.017  0.00  0.00    +0.000 HD
ENDBRANCH  11  21
ENDBRANCH   7   8
BRANCH   4  24
ATOM     24  N   UNL     1       3.615   5.937  18.573  0.00  0.00    +0.000 N 
ATOM     25  C   UNL     1       3.203   4.598  18.584  0.00  0.00    +0.000 C 
ATOM     26  O   UNL     1       2.043   4.223  18.763  0.00  0.00    +0.000 OA
ATOM     27  H   UNL     1       4.579   6.095  18.293  0.00  0.00    +0.000 HD
BRANCH  25  28
ATOM     28  C   UNL     1       4.330   3.576  18.284  0.00  0.00    +0.000 C 
ATOM     29  C   UNL     1       3.697   2.223  17.916  0.00  0.00    +0.000 C 
BRANCH  28  30
ATOM     30  C   UNL     1       5.261   4.027  17.157  0.00  0.00    +0.000 A 
ATOM     31  C   UNL     1       4.805   4.026  15.825  0.00  0.00    +0.000 A 
ATOM     32  C   UNL     1       5.632   4.432  14.776  0.00  0.00    +0.000 A 
ATOM     33  C   UNL     1       6.932   4.854  15.036  0.00  0.00    +0.000 A 
ATOM     34  C   UNL     1       7.394   4.897  16.349  0.00  0.00    +0.000 A 
ATOM     35  C   UNL     1       6.562   4.502  17.402  0.00  0.00    +0.000 A 
ENDBRANCH  28  30
BRANCH  28  36
ATOM     36  O   UNL     1       5.102   3.409  19.487  0.00  0.00    +0.000 OA
ATOM     37  H   UNL     1       4.554   3.749  20.217  0.00  0.00    +0.000 HD
ENDBRANCH  28  36
ENDBRANCH  25  28
ENDBRANCH   4  24
TORSDOF 8
ENDMDL
MODEL 2
REMARK VINA RESULT:      -8.8      1.279      1.837
REMARK  Name = 
REMARK  12 active torsions:
REMARK  status: ('A' for Active; 'I' for Inactive)
REMARK    1  A    between atoms: C_1  and  C_2
REMARK    2  A    between atoms: C_4  and  N_5
REMARK    3  A    between atoms: C_6  and  C_8
REMARK    4  A    between atoms: C_8  and  C_9
REMARK    5  A    between atoms: C_8  and  O_10
REMARK    6  A    between atoms: C_8  and  C_11
REMARK    7  A    between atoms: C_19  and  C_20
REMARK    8  A    between atoms: C_23  and  N_24
REMARK    9  A    between atoms: C_25  and  C_26
REMARK   10  A    between atoms: N_28  and  C_29
REMARK   11  A    between atoms: C_29  and  C_30
REMARK   12  A    between atoms: C_29  and  C_31
REMARK                            x       y       z     vdW  Elec       q    Type
REMARK                         _______ _______ _______ _____ _____    ______ ____
ROOT
ATOM      1  C   UNL     1       1.782  10.254  17.863  0.00  0.00    +0.000 C 
ATOM      2  C   UNL     1       1.684   9.155  18.895  0.00  0.00    +0.000 A 
ATOM      3  C   UNL     1       2.382   7.964  18.593  0.00  0.00    +0.000 A 
ATOM      4  C   UNL     1       2.456   6.889  19.469  0.00  0.00    +0.000 A 
ATOM      5  C   UNL     1       1.740   6.971  20.658  0.00  0.00    +0.000 A 
ATOM      6  C   UNL     1       1.011   8.132  20.969  0.00  0.00    +0.000 A 
ATOM      7  C   UNL     1       0.967   9.264  20.110  0.00  0.00    +0.000 A 
ENDROOT
BRANCH   7   8
ATOM      8  C   UNL     1       0.202  10.471  20.527  0.00  0.00    +0.000 A 
ATOM      9  C   UNL     1       0.661  11.363  21.496  0.00  0.00    +0.000 A 
ATOM     10  N   UNL     1      -0.002  12.470  21.933  0.00  0.00    +0.000 NA
ATOM     11  C   UNL     1      -1.192  12.753  21.368  0.00  0.00    +0.000 A 
ATOM     12  C   UNL     1      -1.743  11.968  20.360  0.00  0.00    +0.000 A 
ATOM     13  C   UNL     1      -1.049  10.804  19.992  0.00  0.00    +0.000 A 
BRANCH  12  14
ATOM     14  C   UNL     1      -3.020  12.246  19.638  0.00  0.00    +0.000 C 
ATOM     15  O   UNL     1      -3.782  13.116  20.055  0.00  0.00    +0.000 OA
ATOM     16  N   UNL     1      -3.299  11.496  18.518  0.00  0.00    +0.000 N 
ATOM     17  H   UNL     1      -2.776  10.628  18.409  0.00  0.00    +0.000 HD
BRANCH  16  18
ATOM     18  C   UNL     1      -4.537  11.658  17.773  0.00  0.00    +0.000 C 
ATOM     19  C   UNL     1      -4.325  11.273  16.314  0.00  0.00    +0.000 C 
ATOM     20  C   UNL     1      -5.648  10.825  18.403  0.00  0.00    +0.000 C 
ENDBRANCH  16  18
ENDBRANCH  12  14
BRANCH  11  21
ATOM     21  N   UNL     1      -1.831  13.868  21.923  0.00  0.00    +0.000 N 
ATOM     22  H   UNL     1      -1.078  14.527  22.128  0.00  0.00    +0.000 HD
ATOM     23  H   UNL     1      -2.284  13.591  22.793  0.00  0.00    +0.000 HD
ENDBRANCH  11  21
ENDBRANCH   7   8
BRANCH   4  24
ATOM     24  N   UNL     1       3.229   5.736  19.196  0.00  0.00    +0.000 N 
ATOM     25  C   UNL     1       2.770   4.572  18.566  0.00  0.00    +0.000 C 
ATOM     26  O   UNL     1       1.625   4.411  18.140  0.00  0.00    +0.000 OA
ATOM     27  H   UNL     1       4.228   5.767  19.382  0.00  0.00    +0.000 HD
BRANCH  25  28
ATOM     28  C   UNL     1       3.849   3.476  18.373  0.00  0.00    +0.000 C 
ATOM     29  C   UNL     1       3.189   2.218  17.784  0.00  0.00    +0.000 C 
BRANCH  28  30
ATOM     30  C   UNL     1       4.998   3.923  17.467  0.00  0.00    +0.000 A 
ATOM     31  C   UNL     1       4.793   4.043  16.079  0.00  0.00    +0.000 A 
ATOM     32  C   UNL     1       5.823   4.447  15.227  0.00  0.00    +0.000 A 
ATOM     33  C   UNL     1       7.079   4.747  15.744  0.00  0.00    +0.000 A 
ATOM     34  C   UNL     1       7.296   4.670  17.117  0.00  0.00    +0.000 A 
ATOM     35  C   UNL     1       6.262   4.276  17.973  0.00  0.00    +0.000 A 
ENDBRANCH  28  30
BRANCH  28  36
ATOM     36  O   UNL     1       4.380   3.151  19.670  0.00  0.00    +0.000 OA
ATOM     37  H   UNL     1       5.309   2.894  19.534  0.00  0.00    +0.000 HD
ENDBRANCH  28  36
ENDBRANCH  25  28
ENDBRANCH   4  24
TORSDOF 8
ENDMDL
MODEL 3
REMARK VINA RESULT:      -8.7      1.244      1.443
REMARK  Name = 
REMARK  12 active torsions:
REMARK  status: ('A' for Active; 'I' for Inactive)
REMARK    1  A    between atoms: C_1  and  C_2
REMARK    2  A    between atoms: C_4  and  N_5
REMARK    3  A    between atoms: C_6  and  C_8
REMARK    4  A    between atoms: C_8  and  C_9
REMARK    5  A    between atoms: C_8  and  O_10
REMARK    6  A    between atoms: C_8  and  C_11
REMARK    7  A    between atoms: C_19  and  C_20
REMARK    8  A    between atoms: C_23  and  N_24
REMARK    9  A    between atoms: C_25  and  C_26
REMARK   10  A    between atoms: N_28  and  C_29
REMARK   11  A    between atoms: C_29  and  C_30
REMARK   12  A    between atoms: C_29  and  C_31
REMARK                            x       y       z     vdW  Elec       q    Type
REMARK                         _______ _______ _______ _____ _____    ______ ____
ROOT
ATOM      1  C   UNL     1       0.767   9.079  21.763  0.00  0.00    +0.000 C 
ATOM      2  C   UNL     1       1.208   8.889  20.331  0.00  0.00    +0.000 A 
ATOM      3  C   UNL     1       1.888   7.681  20.053  0.00  0.00    +0.000 A 
ATOM      4  C   UNL     1       2.291   7.320  18.774  0.00  0.00    +0.000 A 
ATOM      5  C   UNL     1       2.082   8.230  17.745  0.00  0.00    +0.000 A 
ATOM      6  C   UNL     1       1.435   9.452  18.001  0.00  0.00    +0.000 A 
ATOM      7  C   UNL     1       0.967   9.818  19.292  0.00  0.00    +0.000 A 
ENDROOT
BRANCH   7   8
ATOM      8  C   UNL     1       0.259  11.115  19.474  0.00  0.00    +0.000 A 
ATOM      9  C   UNL     1       0.925  12.336  19.572  0.00  0.00    +0.000 A 
ATOM     10  N   UNL     1       0.334  13.549  19.760  0.00  0.00    +0.000 NA
ATOM     11  C   UNL     1      -1.011  13.589  19.830  0.00  0.00    +0.000 A 
ATOM     12  C   UNL     1      -1.796  12.448  19.704  0.00  0.00    +0.000 A 
ATOM     13  C   UNL     1      -1.134  11.216  19.576  0.00  0.00    +0.000 A 
BRANCH  12  14
ATOM     14  C   UNL     1      -3.289  12.413  19.705  0.00  0.00    +0.000 C 
ATOM     15  O   UNL     1      -3.907  12.701  20.727  0.00  0.00    +0.000 OA
ATOM     16  N   UNL     1      -3.921  12.044  18.539  0.00  0.00    +0.000 N 
ATOM     17  H   UNL     1      -3.354  11.555  17.848  0.00  0.00    +0.000 HD
BRANCH  16  18
ATOM     18  C   UNL     1      -5.369  11.933  18.452  0.00  0.00    +0.000 C 
ATOM     19  C   UNL     1      -5.871  12.618  17.186  0.00  0.00    +0.000 C 
ATOM     20  C   UNL     1      -5.792  10.469  18.487  0.00  0.00    +0.000 C 
ENDBRANCH  16  18
ENDBRANCH  12  14
BRANCH  11  21
ATOM     21  N   UNL     1      -1.526  14.864  20.090  0.00  0.00    +0.000 N 
ATOM     22  H   UNL     1      -0.733  15.401  20.445  0.00  0.00    +0.000 HD
ATOM     23  H   UNL     1      -2.238  14.793  20.815  0.00  0.00    +0.000 HD
ENDBRANCH  11  21
ENDBRANCH   7   8
BRANCH   4  24
ATOM     24  N   UNL     1       2.893   6.070  18.491  0.00  0.00    +0.000 N 
ATOM     25  C   UNL     1       3.040   5.009  19.394  0.00  0.00    +0.000 C 
ATOM     26  O   UNL     1       2.633   5.017  20.558  0.00  0.00    +0.000 OA
ATOM     27  H   UNL     1       3.170   5.871  17.534  0.00  0.00    +0.000 HD
BRANCH  25  28
ATOM     28  C   UNL     1       3.715   3.747  18.799  0.00  0.00    +0.000 C 
ATOM     29  C   UNL     1       2.694   2.992  17.932  0.00  0.00    +0.000 C 
BRANCH  28  30
ATOM     30  C   UNL     1       4.955   4.071  17.962  0.00  0.00    +0.000 A 
ATOM     31  C   UNL     1       4.944   3.844  16.573  0.00  0.00    +0.000 A 
ATOM     32  C   UNL     1       6.060   4.130  15.784  0.00  0.00    +0.000 A 
ATOM     33  C   UNL     1       7.210   4.654  16.367  0.00  0.00    +0.000 A 
ATOM     34  C   UNL     1       7.232   4.919  17.733  0.00  0.00    +0.000 A 
ATOM     35  C   UNL     1       6.110   4.645  18.522  0.00  0.00    +0.000 A 
ENDBRANCH  28  30
BRANCH  28  36
ATOM     36  O   UNL     1       4.102   2.899  19.895  0.00  0.00    +0.000 OA
ATOM     37  H   UNL     1       4.817   3.363  20.366  0.00  0.00    +0.000 HD
ENDBRANCH  28  36
ENDBRANCH  25  28
ENDBRANCH   4  24
TORSDOF 8
ENDMDL
MODEL 4
REMARK VINA RESULT:      -8.6      2.378      3.860
REMARK  Name = 
REMARK  12 active torsions:
REMARK  status: ('A' for Active; 'I' for Inactive)
REMARK    1  A    between atoms: C_1  and  C_2
REMARK    2  A    between atoms: C_4  and  N_5
REMARK    3  A    between atoms: C_6  and  C_8
REMARK    4  A    between atoms: C_8  and  C_9
REMARK    5  A    between atoms: C_8  and  O_10
REMARK    6  A    between atoms: C_8  and  C_11
REMARK    7  A    between atoms: C_19  and  C_20
REMARK    8  A    between atoms: C_23  and  N_24
REMARK    9  A    between atoms: C_25  and  C_26
REMARK   10  A    between atoms: N_28  and  C_29
REMARK   11  A    between atoms: C_29  and  C_30
REMARK   12  A    between atoms: C_29  and  C_31
REMARK                            x       y       z     vdW  Elec       q    Type
REMARK                         _______ _______ _______ _____ _____    ______ ____
ROOT
ATOM      1  C   UNL     1       0.734   8.837  21.878  0.00  0.00    +0.000 C 
ATOM      2  C   UNL     1       1.272   8.688  20.474  0.00  0.00    +0.000 A 
ATOM      3  C   UNL     1       2.040   7.527  20.230  0.00  0.00    +0.000 A 
ATOM      4  C   UNL     1       2.541   7.204  18.976  0.00  0.00    +0.000 A 
ATOM      5  C   UNL     1       2.340   8.111  17.942  0.00  0.00    +0.000 A 
ATOM      6  C   UNL     1       1.606   9.289  18.166  0.00  0.00    +0.000 A 
ATOM      7  C   UNL     1       1.039   9.613  19.429  0.00  0.00    +0.000 A 
ENDROOT
BRANCH   7   8
ATOM      8  C   UNL     1       0.244  10.862  19.576  0.00  0.00    +0.000 A 
ATOM      9  C   UNL     1      -1.140  10.866  19.748  0.00  0.00    +0.000 A 
ATOM     10  N   UNL     1      -1.922  11.975  19.867  0.00  0.00    +0.000 NA
ATOM     11  C   UNL     1      -1.314  13.178  19.847  0.00  0.00    +0.000 A 
ATOM     12  C   UNL     1       0.065  13.312  19.724  0.00  0.00    +0.000 A 
ATOM     13  C   UNL     1       0.817  12.140  19.540  0.00  0.00    +0.000 A 
BRANCH  12  14
ATOM     14  C   UNL     1       0.822  14.599  19.757  0.00  0.00    +0.000 C 
ATOM     15  O   UNL     1       0.792  15.300  20.766  0.00  0.00    +0.000 OA
ATOM     16  N   UNL     1       1.529  14.955  18.631  0.00  0.00    +0.000 N 
ATOM     17  H   UNL     1       1.275  14.481  17.765  0.00  0.00    +0.000 HD
BRANCH  16  18
ATOM     18  C   UNL     1       2.259  16.210  18.547  0.00  0.00    +0.000 C 
ATOM     19  C   UNL     1       3.479  16.046  17.649  0.00  0.00    +0.000 C 
ATOM     20  C   UNL     1       1.348  17.320  18.035  0.00  0.00    +0.000 C 
ENDBRANCH  16  18
ENDBRANCH  12  14
BRANCH  11  21
ATOM     21  N   UNL     1      -2.200  14.260  19.909  0.00  0.00    +0.000 N 
ATOM     22  H   UNL     1      -2.506  14.404  18.946  0.00  0.00    +0.000 HD
ATOM     23  H   UNL     1      -1.694  15.084  20.230  0.00  0.00    +0.000 HD
ENDBRANCH  11  21
ENDBRANCH   7   8
BRANCH   4  24
ATOM     24  N   UNL     1       3.234   5.996  18.722  0.00  0.00    +0.000 N 
ATOM     25  C   UNL     1       2.663   4.810  18.241  0.00  0.00    +0.000 C 
ATOM     26  O   UNL     1       1.474   4.673  17.949  0.00  0.00    +0.000 OA
ATOM     27  H   UNL     1       4.246   5.992  18.803  0.00  0.00    +0.000 HD
BRANCH  25  28
ATOM     28  C   UNL     1       3.671   3.651  18.031  0.00  0.00    +0.000 C 
ATOM     29  C   UNL     1       2.948   2.473  17.355  0.00  0.00    +0.000 C 
BRANCH  28  30
ATOM     30  C   UNL     1       4.883   4.057  17.191  0.00  0.00    +0.000 A 
ATOM     31  C   UNL     1       6.124   4.289  17.815  0.00  0.00    +0.000 A 
ATOM     32  C   UNL     1       7.248   4.661  17.074  0.00  0.00    +0.000 A 
ATOM     33  C   UNL     1       7.157   4.805  15.694  0.00  0.00    +0.000 A 
ATOM     34  C   UNL     1       5.949   4.548  15.051  0.00  0.00    +0.000 A 
ATOM     35  C   UNL     1       4.826   4.163  15.790  0.00  0.00    +0.000 A 
ENDBRANCH  28  30
BRANCH  28  36
ATOM     36  O   UNL     1       4.125   3.225  19.329  0.00  0.00    +0.000 OA
ATOM     37  H   UNL     1       5.085   3.083  19.253  0.00  0.00    +0.000 HD
ENDBRANCH  28  36
ENDBRANCH  25  28
ENDBRANCH   4  24
TORSDOF 8
ENDMDL
MODEL 5
REMARK VINA RESULT:      -8.6      2.229      3.824
REMARK  Name = 
REMARK  12 active torsions:
REMARK  status: ('A' for Active; 'I' for Inactive)
REMARK    1  A    between atoms: C_1  and  C_2
REMARK    2  A    between atoms: C_4  and  N_5
REMARK    3  A    between atoms: C_6  and  C_8
REMARK    4  A    between atoms: C_8  and  C_9
REMARK    5  A    between atoms: C_8  and  O_10
REMARK    6  A    between atoms: C_8  and  C_11
REMARK    7  A    between atoms: C_19  and  C_20
REMARK    8  A    between atoms: C_23  and  N_24
REMARK    9  A    between atoms: C_25  and  C_26
REMARK   10  A    between atoms: N_28  and  C_29
REMARK   11  A    between atoms: C_29  and  C_30
REMARK   12  A    between atoms: C_29  and  C_31
REMARK                            x       y       z     vdW  Elec       q    Type
REMARK                         _______ _______ _______ _____ _____    ______ ____
ROOT
ATOM      1  C   UNL     1       0.911   8.942  21.828  0.00  0.00    +0.000 C 
ATOM      2  C   UNL     1       1.347   8.740  20.395  0.00  0.00    +0.000 A 
ATOM      3  C   UNL     1       2.115   7.580  20.145  0.00  0.00    +0.000 A 
ATOM      4  C   UNL     1       2.529   7.210  18.872  0.00  0.00    +0.000 A 
ATOM      5  C   UNL     1       2.236   8.068  17.818  0.00  0.00    +0.000 A 
ATOM      6  C   UNL     1       1.500   9.245  18.046  0.00  0.00    +0.000 A 
ATOM      7  C   UNL     1       1.022   9.614  19.332  0.00  0.00    +0.000 A 
ENDROOT
BRANCH   7   8
ATOM      8  C   UNL     1       0.218  10.858  19.485  0.00  0.00    +0.000 A 
ATOM      9  C   UNL     1      -1.069  10.869  20.023  0.00  0.00    +0.000 A 
ATOM     10  N   UNL     1      -1.858  11.969  20.168  0.00  0.00    +0.000 NA
ATOM     11  C   UNL     1      -1.354  13.160  19.789  0.00  0.00    +0.000 A 
ATOM     12  C   UNL     1      -0.067  13.293  19.276  0.00  0.00    +0.000 A 
ATOM     13  C   UNL     1       0.681  12.119  19.088  0.00  0.00    +0.000 A 
BRANCH  12  14
ATOM     14  C   UNL     1       0.590  14.578  18.894  0.00  0.00    +0.000 C 
ATOM     15  O   UNL     1      -0.097  15.551  18.593  0.00  0.00    +0.000 OA
ATOM     16  N   UNL     1       1.966  14.616  18.889  0.00  0.00    +0.000 N 
ATOM     17  H   UNL     1       2.447  13.718  18.868  0.00  0.00    +0.000 HD
BRANCH  16  18
ATOM     18  C   UNL     1       2.700  15.806  18.486  0.00  0.00    +0.000 C 
ATOM     19  C   UNL     1       3.313  16.481  19.708  0.00  0.00    +0.000 C 
ATOM     20  C   UNL     1       3.772  15.446  17.464  0.00  0.00    +0.000 C 
ENDBRANCH  16  18
ENDBRANCH  12  14
BRANCH  11  21
ATOM     21  N   UNL     1      -2.257  14.222  19.912  0.00  0.00    +0.000 N 
ATOM     22  H   UNL     1      -2.004  14.870  19.166  0.00  0.00    +0.000 HD
ATOM     23  H   UNL     1      -2.115  14.674  20.815  0.00  0.00    +0.000 HD
ENDBRANCH  11  21
ENDBRANCH   7   8
BRANCH   4  24
ATOM     24  N   UNL     1       3.222   6.002  18.618  0.00  0.00    +0.000 N 
ATOM     25  C   UNL     1       2.676   4.714  18.692  0.00  0.00    +0.000 C 
ATOM     26  O   UNL     1       1.500   4.465  18.964  0.00  0.00    +0.000 OA
ATOM     27  H   UNL     1       4.173   6.054  18.265  0.00  0.00    +0.000 HD
BRANCH  25  28
ATOM     28  C   UNL     1       3.666   3.575  18.335  0.00  0.00    +0.000 C 
ATOM     29  C   UNL     1       2.910   2.473  17.573  0.00  0.00    +0.000 C 
BRANCH  28  30
ATOM     30  C   UNL     1       4.851   4.055  17.495  0.00  0.00    +0.000 A 
ATOM     31  C   UNL     1       4.713   4.199  16.102  0.00  0.00    +0.000 A 
ATOM     32  C   UNL     1       5.778   4.635  15.310  0.00  0.00    +0.000 A 
ATOM     33  C   UNL     1       7.002   4.942  15.895  0.00  0.00    +0.000 A 
ATOM     34  C   UNL     1       7.152   4.841  17.275  0.00  0.00    +0.000 A 
ATOM     35  C   UNL     1       6.083   4.416  18.071  0.00  0.00    +0.000 A 
ENDBRANCH  28  30
BRANCH  28  36
ATOM     36  O   UNL     1       4.162   3.023  19.567  0.00  0.00    +0.000 OA
ATOM     37  H   UNL     1       5.109   2.846  19.430  0.00  0.00    +0.000 HD
ENDBRANCH  28  36
ENDBRANCH  25  28
ENDBRANCH   4  24
TORSDOF 8
ENDMDL
MODEL 6
REMARK VINA RESULT:      -8.6      1.227      1.636
REMARK  Name = 
REMARK  12 active torsions:
REMARK  status: ('A' for Active; 'I' for Inactive)
REMARK    1  A    between atoms: C_1  and  C_2
REMARK    2  A    between atoms: C_4  and  N_5
REMARK    3  A    between atoms: C_6  and  C_8
REMARK    4  A    between atoms: C_8  and  C_9
REMARK    5  A    between atoms: C_8  and  O_10
REMARK    6  A    between atoms: C_8  and  C_11
REMARK    7  A    between atoms: C_19  and  C_20
REMARK    8  A    between atoms: C_23  and  N_24
REMARK    9  A    between atoms: C_25  and  C_26
REMARK   10  A    between atoms: N_28  and  C_29
REMARK   11  A    between atoms: C_29  and  C_30
REMARK   12  A    between atoms: C_29  and  C_31
REMARK                            x       y       z     vdW  Elec       q    Type
REMARK                         _______ _______ _______ _____ _____    ______ ____
ROOT
ATOM      1  C   UNL     1       0.921   8.687  21.866  0.00  0.00    +0.000 C 
ATOM      2  C   UNL     1       1.309   8.662  20.405  0.00  0.00    +0.000 A 
ATOM      3  C   UNL     1       1.967   7.491  19.965  0.00  0.00    +0.000 A 
ATOM      4  C   UNL     1       2.320   7.278  18.639  0.00  0.00    +0.000 A 
ATOM      5  C   UNL     1       2.082   8.302  17.731  0.00  0.00    +0.000 A 
ATOM      6  C   UNL     1       1.457   9.490  18.150  0.00  0.00    +0.000 A 
ATOM      7  C   UNL     1       1.039   9.707  19.491  0.00  0.00    +0.000 A 
ENDROOT
BRANCH   7   8
ATOM      8  C   UNL     1       0.351  10.977  19.847  0.00  0.00    +0.000 A 
ATOM      9  C   UNL     1       1.028  12.102  20.317  0.00  0.00    +0.000 A 
ATOM     10  N   UNL     1       0.451  13.282  20.679  0.00  0.00    +0.000 NA
ATOM     11  C   UNL     1      -0.885  13.394  20.549  0.00  0.00    +0.000 A 
ATOM     12  C   UNL     1      -1.674  12.361  20.051  0.00  0.00    +0.000 A 
ATOM     13  C   UNL     1      -1.037  11.145  19.754  0.00  0.00    +0.000 A 
BRANCH  12  14
ATOM     14  C   UNL     1      -3.147  12.425  19.815  0.00  0.00    +0.000 C 
ATOM     15  O   UNL     1      -3.883  12.911  20.670  0.00  0.00    +0.000 OA
ATOM     16  N   UNL     1      -3.627  11.920  18.628  0.00  0.00    +0.000 N 
ATOM     17  H   UNL     1      -3.008  11.293  18.116  0.00  0.00    +0.000 HD
BRANCH  16  18
ATOM     18  C   UNL     1      -5.049  11.893  18.324  0.00  0.00    +0.000 C 
ATOM     19  C   UNL     1      -5.274  12.197  16.847  0.00  0.00    +0.000 C 
ATOM     20  C   UNL     1      -5.647  10.543  18.703  0.00  0.00    +0.000 C 
ENDBRANCH  16  18
ENDBRANCH  12  14
BRANCH  11  21
ATOM     21  N   UNL     1      -1.397  14.615  21.005  0.00  0.00    +0.000 N 
ATOM     22  H   UNL     1      -2.303  14.383  21.414  0.00  0.00    +0.000 HD
ATOM     23  H   UNL     1      -1.535  15.235  20.207  0.00  0.00    +0.000 HD
ENDBRANCH  11  21
ENDBRANCH   7   8
BRANCH   4  24
ATOM     24  N   UNL     1       2.900   6.067  18.192  0.00  0.00    +0.000 N 
ATOM     25  C   UNL     1       3.360   5.027  19.011  0.00  0.00    +0.000 C 
ATOM     26  O   UNL     1       3.293   5.023  20.242  0.00  0.00    +0.000 OA
ATOM     27  H   UNL     1       2.912   5.874  17.195  0.00  0.00    +0.000 HD
BRANCH  25  28
ATOM     28  C   UNL     1       3.924   3.804  18.243  0.00  0.00    +0.000 C 
ATOM     29  C   UNL     1       2.780   3.125  17.471  0.00  0.00    +0.000 C 
BRANCH  28  30
ATOM     30  C   UNL     1       5.047   4.175  17.272  0.00  0.00    +0.000 A 
ATOM     31  C   UNL     1       6.262   4.686  17.766  0.00  0.00    +0.000 A 
ATOM     32  C   UNL     1       7.305   5.033  16.904  0.00  0.00    +0.000 A 
ATOM     33  C   UNL     1       7.157   4.871  15.531  0.00  0.00    +0.000 A 
ATOM     34  C   UNL     1       5.978   4.335  15.022  0.00  0.00    +0.000 A 
ATOM     35  C   UNL     1       4.937   3.976  15.884  0.00  0.00    +0.000 A 
ENDBRANCH  28  30
BRANCH  28  36
ATOM     36  O   UNL     1       4.436   2.875  19.215  0.00  0.00    +0.000 OA
ATOM     37  H   UNL     1       4.555   2.027  18.751  0.00  0.00    +0.000 HD
ENDBRANCH  28  36
ENDBRANCH  25  28
ENDBRANCH   4  24
TORSDOF 8
ENDMDL
MODEL 7
REMARK VINA RESULT:      -8.4      2.371      3.902
REMARK  Name = 
REMARK  12 active torsions:
REMARK  status: ('A' for Active; 'I' for Inactive)
REMARK    1  A    between atoms: C_1  and  C_2
REMARK    2  A    between atoms: C_4  and  N_5
REMARK    3  A    between atoms: C_6  and  C_8
REMARK    4  A    between atoms: C_8  and  C_9
REMARK    5  A    between atoms: C_8  and  O_10
REMARK    6  A    between atoms: C_8  and  C_11
REMARK    7  A    between atoms: C_19  and  C_20
REMARK    8  A    between atoms: C_23  and  N_24
REMARK    9  A    between atoms: C_25  and  C_26
REMARK   10  A    between atoms: N_28  and  C_29
REMARK   11  A    between atoms: C_29  and  C_30
REMARK   12  A    between atoms: C_29  and  C_31
REMARK                            x       y       z     vdW  Elec       q    Type
REMARK                         _______ _______ _______ _____ _____    ______ ____
ROOT
ATOM      1  C   UNL     1       0.915   8.620  21.578  0.00  0.00    +0.000 C 
ATOM      2  C   UNL     1       1.381   8.572  20.142  0.00  0.00    +0.000 A 
ATOM      3  C   UNL     1       2.112   7.421  19.771  0.00  0.00    +0.000 A 
ATOM      4  C   UNL     1       2.544   7.188  18.472  0.00  0.00    +0.000 A 
ATOM      5  C   UNL     1       2.311   8.175  17.522  0.00  0.00    +0.000 A 
ATOM      6  C   UNL     1       1.613   9.345  17.873  0.00  0.00    +0.000 A 
ATOM      7  C   UNL     1       1.115   9.579  19.183  0.00  0.00    +0.000 A 
ENDROOT
BRANCH   7   8
ATOM      8  C   UNL     1       0.354  10.826  19.466  0.00  0.00    +0.000 A 
ATOM      9  C   UNL     1      -0.856  10.837  20.160  0.00  0.00    +0.000 A 
ATOM     10  N   UNL     1      -1.606  11.941  20.430  0.00  0.00    +0.000 NA
ATOM     11  C   UNL     1      -1.135  13.136  20.021  0.00  0.00    +0.000 A 
ATOM     12  C   UNL     1       0.080  13.269  19.357  0.00  0.00    +0.000 A 
ATOM     13  C   UNL     1       0.782  12.093  19.048  0.00  0.00    +0.000 A 
BRANCH  12  14
ATOM     14  C   UNL     1       0.703  14.557  18.929  0.00  0.00    +0.000 C 
ATOM     15  O   UNL     1      -0.010  15.505  18.610  0.00  0.00    +0.000 OA
ATOM     16  N   UNL     1       2.078  14.625  18.905  0.00  0.00    +0.000 N 
ATOM     17  H   UNL     1       2.578  13.738  18.903  0.00  0.00    +0.000 HD
BRANCH  16  18
ATOM     18  C   UNL     1       2.780  15.819  18.458  0.00  0.00    +0.000 C 
ATOM     19  C   UNL     1       3.242  16.634  19.660  0.00  0.00    +0.000 C 
ATOM     20  C   UNL     1       3.958  15.439  17.568  0.00  0.00    +0.000 C 
ENDBRANCH  16  18
ENDBRANCH  12  14
BRANCH  11  21
ATOM     21  N   UNL     1      -2.001  14.204  20.283  0.00  0.00    +0.000 N 
ATOM     22  H   UNL     1      -2.379  14.014  21.212  0.00  0.00    +0.000 HD
ATOM     23  H   UNL     1      -2.758  14.191  19.600  0.00  0.00    +0.000 HD
ENDBRANCH  11  21
ENDBRANCH   7   8
BRANCH   4  24
ATOM     24  N   UNL     1       3.198   5.992  18.091  0.00  0.00    +0.000 N 
ATOM     25  C   UNL     1       4.265   5.390  18.771  0.00  0.00    +0.000 C 
ATOM     26  O   UNL     1       4.760   5.816  19.817  0.00  0.00    +0.000 OA
ATOM     27  H   UNL     1       2.821   5.460  17.312  0.00  0.00    +0.000 HD
BRANCH  25  28
ATOM     28  C   UNL     1       4.767   4.067  18.138  0.00  0.00    +0.000 C 
ATOM     29  C   UNL     1       3.564   3.143  17.886  0.00  0.00    +0.000 C 
BRANCH  28  30
ATOM     30  C   UNL     1       5.530   4.282  16.829  0.00  0.00    +0.000 A 
ATOM     31  C   UNL     1       4.881   4.077  15.596  0.00  0.00    +0.000 A 
ATOM     32  C   UNL     1       5.552   4.265  14.386  0.00  0.00    +0.000 A 
ATOM     33  C   UNL     1       6.883   4.668  14.381  0.00  0.00    +0.000 A 
ATOM     34  C   UNL     1       7.535   4.911  15.587  0.00  0.00    +0.000 A 
ATOM     35  C   UNL     1       6.861   4.734  16.800  0.00  0.00    +0.000 A 
ENDBRANCH  28  30
BRANCH  28  36
ATOM     36  O   UNL     1       5.642   3.431  19.087  0.00  0.00    +0.000 OA
ATOM     37  H   UNL     1       6.396   4.034  19.216  0.00  0.00    +0.000 HD
ENDBRANCH  28  36
ENDBRANCH  25  28
ENDBRANCH   4  24
TORSDOF 8
ENDMDL
MODEL 8
REMARK VINA RESULT:      -8.4      1.822      2.982
REMARK  Name = 
REMARK  12 active torsions:
REMARK  status: ('A' for Active; 'I' for Inactive)
REMARK    1  A    between atoms: C_1  and  C_2
REMARK    2  A    between atoms: C_4  and  N_5
REMARK    3  A    between atoms: C_6  and  C_8
REMARK    4  A    between atoms: C_8  and  C_9
REMARK    5  A    between atoms: C_8  and  O_10
REMARK    6  A    between atoms: C_8  and  C_11
REMARK    7  A    between atoms: C_19  and  C_20
REMARK    8  A    between atoms: C_23  and  N_24
REMARK    9  A    between atoms: C_25  and  C_26
REMARK   10  A    between atoms: N_28  and  C_29
REMARK   11  A    between atoms: C_29  and  C_30
REMARK   12  A    between atoms: C_29  and  C_31
REMARK                            x       y       z     vdW  Elec       q    Type
REMARK                         _______ _______ _______ _____ _____    ______ ____
ROOT
ATOM      1  C   UNL     1       0.589   9.397  21.877  0.00  0.00    +0.000 C 
ATOM      2  C   UNL     1       1.032   9.229  20.442  0.00  0.00    +0.000 A 
ATOM      3  C   UNL     1       1.758   8.050  20.157  0.00  0.00    +0.000 A 
ATOM      4  C   UNL     1       2.170   7.710  18.875  0.00  0.00    +0.000 A 
ATOM      5  C   UNL     1       1.921   8.615  17.850  0.00  0.00    +0.000 A 
ATOM      6  C   UNL     1       1.228   9.810  18.113  0.00  0.00    +0.000 A 
ATOM      7  C   UNL     1       0.751  10.153  19.408  0.00  0.00    +0.000 A 
ENDROOT
BRANCH   7   8
ATOM      8  C   UNL     1      -0.007  11.420  19.598  0.00  0.00    +0.000 A 
ATOM      9  C   UNL     1       0.613  12.663  19.724  0.00  0.00    +0.000 A 
ATOM     10  N   UNL     1      -0.025  13.851  19.921  0.00  0.00    +0.000 NA
ATOM     11  C   UNL     1      -1.372  13.840  19.970  0.00  0.00    +0.000 A 
ATOM     12  C   UNL     1      -2.113  12.673  19.815  0.00  0.00    +0.000 A 
ATOM     13  C   UNL     1      -1.404  11.468  19.679  0.00  0.00    +0.000 A 
BRANCH  12  14
ATOM     14  C   UNL     1      -3.603  12.584  19.792  0.00  0.00    +0.000 C 
ATOM     15  O   UNL     1      -4.247  12.838  20.806  0.00  0.00    +0.000 OA
ATOM     16  N   UNL     1      -4.203  12.207  18.612  0.00  0.00    +0.000 N 
ATOM     17  H   UNL     1      -3.608  11.747  17.924  0.00  0.00    +0.000 HD
BRANCH  16  18
ATOM     18  C   UNL     1      -5.645  12.045  18.500  0.00  0.00    +0.000 C 
ATOM     19  C   UNL     1      -6.141  12.661  17.198  0.00  0.00    +0.000 C 
ATOM     20  C   UNL     1      -6.021  10.570  18.586  0.00  0.00    +0.000 C 
ENDBRANCH  16  18
ENDBRANCH  12  14
BRANCH  11  21
ATOM     21  N   UNL     1      -1.937  15.092  20.240  0.00  0.00    +0.000 N 
ATOM     22  H   UNL     1      -1.764  15.645  19.400  0.00  0.00    +0.000 HD
ATOM     23  H   UNL     1      -1.447  15.513  21.029  0.00  0.00    +0.000 HD
ENDBRANCH  11  21
ENDBRANCH   7   8
BRANCH   4  24
ATOM     24  N   UNL     1       2.819   6.486  18.585  0.00  0.00    +0.000 N 
ATOM     25  C   UNL     1       4.018   6.344  17.874  0.00  0.00    +0.000 C 
ATOM     26  O   UNL     1       4.684   7.280  17.428  0.00  0.00    +0.000 OA
ATOM     27  H   UNL     1       2.449   5.633  18.993  0.00  0.00    +0.000 HD
BRANCH  25  28
ATOM     28  C   UNL     1       4.511   4.881  17.731  0.00  0.00    +0.000 C 
ATOM     29  C   UNL     1       5.895   4.750  18.388  0.00  0.00    +0.000 C 
BRANCH  28  30
ATOM     30  C   UNL     1       3.552   3.864  18.353  0.00  0.00    +0.000 A 
ATOM     31  C   UNL     1       3.732   3.452  19.687  0.00  0.00    +0.000 A 
ATOM     32  C   UNL     1       2.874   2.525  20.282  0.00  0.00    +0.000 A 
ATOM     33  C   UNL     1       1.812   1.994  19.557  0.00  0.00    +0.000 A 
ATOM     34  C   UNL     1       1.592   2.412  18.247  0.00  0.00    +0.000 A 
ATOM     35  C   UNL     1       2.445   3.349  17.655  0.00  0.00    +0.000 A 
ENDBRANCH  28  30
BRANCH  28  36
ATOM     36  O   UNL     1       4.641   4.598  16.326  0.00  0.00    +0.000 OA
ATOM     37  H   UNL     1       4.966   5.416  15.908  0.00  0.00    +0.000 HD
ENDBRANCH  28  36
ENDBRANCH  25  28
ENDBRANCH   4  24
TORSDOF 8
ENDMDL
MODEL 9
REMARK VINA RESULT:      -8.3      2.266      3.811
REMARK  Name = 
REMARK  12 active torsions:
REMARK  status: ('A' for Active; 'I' for Inactive)
REMARK    1  A    between atoms: C_1  and  C_2
REMARK    2  A    between atoms: C_4  and  N_5
REMARK    3  A    between atoms: C_6  and  C_8
REMARK    4  A    between atoms: C_8  and  C_9
REMARK    5  A    between atoms: C_8  and  O_10
REMARK    6  A    between atoms: C_8  and  C_11
REMARK    7  A    between atoms: C_19  and  C_20
REMARK    8  A    between atoms: C_23  and  N_24
REMARK    9  A    between atoms: C_25  and  C_26
REMARK   10  A    between atoms: N_28  and  C_29
REMARK   11  A    between atoms: C_29  and  C_30
REMARK   12  A    between atoms: C_29  and  C_31
REMARK                            x       y       z     vdW  Elec       q    Type
REMARK                         _______ _______ _______ _____ _____    ______ ____
ROOT
ATOM      1  C   UNL     1       0.864   8.423  21.727  0.00  0.00    +0.000 C 
ATOM      2  C   UNL     1       1.435   8.376  20.329  0.00  0.00    +0.000 A 
ATOM      3  C   UNL     1       2.251   7.260  20.036  0.00  0.00    +0.000 A 
ATOM      4  C   UNL     1       2.789   7.029  18.776  0.00  0.00    +0.000 A 
ATOM      5  C   UNL     1       2.573   7.986  17.792  0.00  0.00    +0.000 A 
ATOM      6  C   UNL     1       1.790   9.122  18.067  0.00  0.00    +0.000 A 
ATOM      7  C   UNL     1       1.186   9.350  19.333  0.00  0.00    +0.000 A 
ENDROOT
BRANCH   7   8
ATOM      8  C   UNL     1       0.341  10.558  19.535  0.00  0.00    +0.000 A 
ATOM      9  C   UNL     1      -0.997  10.622  19.148  0.00  0.00    +0.000 A 
ATOM     10  N   UNL     1      -1.813  11.704  19.287  0.00  0.00    +0.000 NA
ATOM     11  C   UNL     1      -1.302  12.805  19.873  0.00  0.00    +0.000 A 
ATOM     12  C   UNL     1       0.006  12.859  20.343  0.00  0.00    +0.000 A 
ATOM     13  C   UNL     1       0.823  11.738  20.117  0.00  0.00    +0.000 A 
BRANCH  12  14
ATOM     14  C   UNL     1       0.629  14.011  21.059  0.00  0.00    +0.000 C 
ATOM     15  O   UNL     1       0.649  14.030  22.287  0.00  0.00    +0.000 OA
ATOM     16  N   UNL     1       1.158  15.028  20.296  0.00  0.00    +0.000 N 
ATOM     17  H   UNL     1       0.853  15.076  19.325  0.00  0.00    +0.000 HD
BRANCH  16  18
ATOM     18  C   UNL     1       1.744  16.216  20.899  0.00  0.00    +0.000 C 
ATOM     19  C   UNL     1       3.255  16.053  21.014  0.00  0.00    +0.000 C 
ATOM     20  C   UNL     1       1.387  17.454  20.085  0.00  0.00    +0.000 C 
ENDBRANCH  16  18
ENDBRANCH  12  14
BRANCH  11  21
ATOM     21  N   UNL     1      -2.189  13.887  19.913  0.00  0.00    +0.000 N 
ATOM     22  H   UNL     1      -1.672  14.633  20.380  0.00  0.00    +0.000 HD
ATOM     23  H   UNL     1      -2.998  13.631  20.478  0.00  0.00    +0.000 HD
ENDBRANCH  11  21
ENDBRANCH   7   8
BRANCH   4  24
ATOM     24  N   UNL     1       3.532   5.865  18.469  0.00  0.00    +0.000 N 
ATOM     25  C   UNL     1       3.186   4.555  18.824  0.00  0.00    +0.000 C 
ATOM     26  O   UNL     1       2.163   4.241  19.435  0.00  0.00    +0.000 OA
ATOM     27  H   UNL     1       4.343   5.953  17.863  0.00  0.00    +0.000 HD
BRANCH  25  28
ATOM     28  C   UNL     1       4.177   3.470  18.328  0.00  0.00    +0.000 C 
ATOM     29  C   UNL     1       3.381   2.286  17.754  0.00  0.00    +0.000 C 
BRANCH  28  30
ATOM     30  C   UNL     1       5.152   3.991  17.271  0.00  0.00    +0.000 A 
ATOM     31  C   UNL     1       4.758   4.053  15.921  0.00  0.00    +0.000 A 
ATOM     32  C   UNL     1       5.626   4.523  14.933  0.00  0.00    +0.000 A 
ATOM     33  C   UNL     1       6.906   4.948  15.275  0.00  0.00    +0.000 A 
ATOM     34  C   UNL     1       7.306   4.929  16.608  0.00  0.00    +0.000 A 
ATOM     35  C   UNL     1       6.433   4.469  17.599  0.00  0.00    +0.000 A 
ENDBRANCH  28  30
BRANCH  28  36
ATOM     36  O   UNL     1       4.928   3.010  19.466  0.00  0.00    +0.000 OA
ATOM     37  H   UNL     1       4.289   2.584  20.066  0.00  0.00    +0.000 HD
ENDBRANCH  28  36
ENDBRANCH  25  28
ENDBRANCH   4  24
TORSDOF 8
ENDMDL
