MODEL 1
REMARK VINA RESULT:      -8.3      0.000      0.000
REMARK  Name = 
REMARK  8 active torsions:
REMARK  status: ('A' for Active; 'I' for Inactive)
REMARK    1  A    between atoms: C_1  and  O_2
REMARK    2  A    between atoms: O_2  and  C_3
REMARK    3  A    between atoms: C_6  and  C_7
REMARK    4  A    between atoms: C_11  and  S_12
REMARK    5  A    between atoms: S_12  and  N_15
REMARK    6  A    between atoms: N_15  and  C_16
REMARK    7  A    between atoms: C_21  and  S_22
REMARK    8  A    between atoms: S_22  and  N_23
REMARK                            x       y       z     vdW  Elec       q    Type
REMARK                         _______ _______ _______ _____ _____    ______ ____
ROOT
ATOM      1  S   UNL     1       5.985   5.491  15.773  0.00  0.00    +0.000 S 
ATOM      2  O   UNL     1       5.360   6.611  15.099  0.00  0.00    +0.000 OA
ATOM      3  O   UNL     1       6.845   4.569  15.065  0.00  0.00    +0.000 OA
ENDROOT
BRANCH   1   8
ATOM      4  C   UNL     1       8.057   8.002  18.242  0.00  0.00    +0.000 A 
ATOM      5  C   UNL     1       8.471   7.087  19.234  0.00  0.00    +0.000 A 
ATOM      6  C   UNL     1       8.116   5.737  19.190  0.00  0.00    +0.000 A 
ATOM      7  C   UNL     1       7.335   5.259  18.145  0.00  0.00    +0.000 A 
ATOM      8  C   UNL     1       6.899   6.142  17.153  0.00  0.00    +0.000 A 
ATOM      9  C   UNL     1       7.255   7.500  17.195  0.00  0.00    +0.000 A 
BRANCH   4  13
ATOM     10  C   UNL     1       9.111  12.117  18.485  0.00  0.00    +0.000 A 
ATOM     11  N   UNL     1       8.238  11.724  17.530  0.00  0.00    +0.000 NA
ATOM     12  C   UNL     1       7.971  10.397  17.459  0.00  0.00    +0.000 A 
ATOM     13  C   UNL     1       8.511   9.413  18.295  0.00  0.00    +0.000 A 
ATOM     14  C   UNL     1       9.458   9.866  19.227  0.00  0.00    +0.000 A 
ATOM     15  C   UNL     1       9.774  11.225  19.321  0.00  0.00    +0.000 A 
ATOM     16 CL   UNL     1      10.908  11.742  20.511  0.00  0.00    +0.000 Cl
BRANCH  10  18
ATOM     17  C   UNL     1      10.292  13.953  17.699  0.00  0.00    +0.000 C 
ATOM     18  O   UNL     1       9.337  13.468  18.640  0.00  0.00    +0.000 OA
ENDBRANCH  10  18
ENDBRANCH   4  13
ENDBRANCH   1   8
BRANCH   1  19
ATOM     19  N   UNL     1       4.717   4.625  16.514  0.00  0.00    +0.000 N 
ATOM     20  H   UNL     1       5.121   3.751  16.884  0.00  0.00    +0.000 HD
BRANCH  19  21
ATOM     21  C   UNL     1       3.940   5.334  17.502  0.00  0.00    +0.000 A 
ATOM     22  C   UNL     1       3.783   6.707  17.328  0.00  0.00    +0.000 A 
ATOM     23  C   UNL     1       2.992   7.403  18.228  0.00  0.00    +0.000 A 
ATOM     24  N   UNL     1       2.364   6.828  19.275  0.00  0.00    +0.000 NA
ATOM     25  C   UNL     1       2.567   5.503  19.456  0.00  0.00    +0.000 A 
ATOM     26  C   UNL     1       3.363   4.734  18.627  0.00  0.00    +0.000 A 
BRANCH  26  27
ATOM     27  S   UNL     1       3.551   3.037  18.996  0.00  0.00    +0.000 S 
ATOM     28  O   UNL     1       2.909   2.736  20.251  0.00  0.00    +0.000 OA
ATOM     29  O   UNL     1       3.277   2.301  17.779  0.00  0.00    +0.000 OA
BRANCH  27  30
ATOM     30  N   UNL     1       5.194   2.905  19.270  0.00  0.00    +0.000 NA
ATOM     31  H   UNL     1       5.421   2.163  19.931  0.00  0.00    +0.000 HD
ATOM     32  H   UNL     1       5.737   2.879  18.402  0.00  0.00    +0.000 HD
ENDBRANCH  27  30
ENDBRANCH  26  27
ENDBRANCH  19  21
ENDBRANCH   1  19
TORSDOF 7
ENDMDL
MODEL 2
REMARK VINA RESULT:      -8.1      4.493      6.676
REMARK  Name = 
REMARK  8 active torsions:
REMARK  status: ('A' for Active; 'I' for Inactive)
REMARK    1  A    between atoms: C_1  and  O_2
REMARK    2  A    between atoms: O_2  and  C_3
REMARK    3  A    between atoms: C_6  and  C_7
REMARK    4  A    between atoms: C_11  and  S_12
REMARK    5  A    between atoms: S_12  and  N_15
REMARK    6  A    between atoms: N_15  and  C_16
REMARK    7  A    between atoms: C_21  and  S_22
REMARK    8  A    between atoms: S_22  and  N_23
REMARK                            x       y       z     vdW  Elec       q    Type
REMARK                         _______ _______ _______ _____ _____    ______ ____
ROOT
ATOM      1  S   UNL     1       3.715   3.037  17.613  0.00  0.00    +0.000 S 
ATOM      2  O   UNL     1       3.609   1.605  17.804  0.00  0.00    +0.000 OA
ATOM      3  O   UNL     1       3.236   3.674  16.405  0.00  0.00    +0.000 OA
ENDROOT
BRANCH   1   8
ATOM      4  C   UNL     1       2.037   5.831  20.078  0.00  0.00    +0.000 A 
ATOM      5  C   UNL     1       1.832   5.048  21.234  0.00  0.00    +0.000 A 
ATOM      6  C   UNL     1       2.161   3.691  21.278  0.00  0.00    +0.000 A 
ATOM      7  C   UNL     1       2.712   3.075  20.161  0.00  0.00    +0.000 A 
ATOM      8  C   UNL     1       2.918   3.820  18.996  0.00  0.00    +0.000 A 
ATOM      9  C   UNL     1       2.587   5.185  18.951  0.00  0.00    +0.000 A 
BRANCH   4  13
ATOM     10  C   UNL     1       0.969   9.947  19.953  0.00  0.00    +0.000 A 
ATOM     11  N   UNL     1       1.579   9.400  18.877  0.00  0.00    +0.000 NA
ATOM     12  C   UNL     1       1.946   8.099  18.982  0.00  0.00    +0.000 A 
ATOM     13  C   UNL     1       1.734   7.282  20.099  0.00  0.00    +0.000 A 
ATOM     14  C   UNL     1       1.153   7.916  21.208  0.00  0.00    +0.000 A 
ATOM     15  C   UNL     1       0.775   9.260  21.147  0.00  0.00    +0.000 A 
ATOM     16 CL   UNL     1       0.024   9.985  22.518  0.00  0.00    +0.000 Cl
BRANCH  10  18
ATOM     17  C   UNL     1      -0.631  11.323  18.989  0.00  0.00    +0.000 C 
ATOM     18  O   UNL     1       0.505  11.241  19.846  0.00  0.00    +0.000 OA
ENDBRANCH  10  18
ENDBRANCH   4  13
ENDBRANCH   1   8
BRANCH   1  19
ATOM     19  N   UNL     1       5.360   3.419  17.838  0.00  0.00    +0.000 N 
ATOM     20  H   UNL     1       5.834   2.554  18.141  0.00  0.00    +0.000 HD
BRANCH  19  21
ATOM     21  C   UNL     1       6.034   4.059  16.734  0.00  0.00    +0.000 A 
ATOM     22  C   UNL     1       5.797   3.551  15.459  0.00  0.00    +0.000 A 
ATOM     23  C   UNL     1       6.384   4.183  14.375  0.00  0.00    +0.000 A 
ATOM     24  N   UNL     1       7.181   5.267  14.480  0.00  0.00    +0.000 NA
ATOM     25  C   UNL     1       7.439   5.717  15.729  0.00  0.00    +0.000 A 
ATOM     26  C   UNL     1       6.922   5.132  16.871  0.00  0.00    +0.000 A 
BRANCH  26  27
ATOM     27  S   UNL     1       7.358   5.808  18.421  0.00  0.00    +0.000 S 
ATOM     28  O   UNL     1       8.136   4.853  19.170  0.00  0.00    +0.000 OA
ATOM     29  O   UNL     1       7.801   7.167  18.187  0.00  0.00    +0.000 OA
BRANCH  27  30
ATOM     30  N   UNL     1       5.883   5.919  19.198  0.00  0.00    +0.000 NA
ATOM     31  H   UNL     1       5.106   6.034  18.548  0.00  0.00    +0.000 HD
ATOM     32  H   UNL     1       5.747   5.178  19.892  0.00  0.00    +0.000 HD
ENDBRANCH  27  30
ENDBRANCH  26  27
ENDBRANCH  19  21
ENDBRANCH   1  19
TORSDOF 7
ENDMDL
MODEL 3
REMARK VINA RESULT:      -8.1      6.528      9.795
REMARK  Name = 
REMARK  8 active torsions:
REMARK  status: ('A' for Active; 'I' for Inactive)
REMARK    1  A    between atoms: C_1  and  O_2
REMARK    2  A    between atoms: O_2  and  C_3
REMARK    3  A    between atoms: C_6  and  C_7
REMARK    4  A    between atoms: C_11  and  S_12
REMARK    5  A    between atoms: S_12  and  N_15
REMARK    6  A    between atoms: N_15  and  C_16
REMARK    7  A    between atoms: C_21  and  S_22
REMARK    8  A    between atoms: S_22  and  N_23
REMARK                            x       y       z     vdW  Elec       q    Type
REMARK                         _______ _______ _______ _____ _____    ______ ____
ROOT
ATOM      1  S   UNL     1       0.236  10.382  21.091  0.00  0.00    +0.000 S 
ATOM      2  O   UNL     1      -0.464   9.403  21.897  0.00  0.00    +0.000 OA
ATOM      3  O   UNL     1       1.180  11.307  21.678  0.00  0.00    +0.000 OA
ENDROOT
BRANCH   1   8
ATOM      4  C   UNL     1       2.139   7.468  18.950  0.00  0.00    +0.000 A 
ATOM      5  C   UNL     1       2.522   8.209  17.811  0.00  0.00    +0.000 A 
ATOM      6  C   UNL     1       2.195   9.559  17.661  0.00  0.00    +0.000 A 
ATOM      7  C   UNL     1       1.474  10.212  18.653  0.00  0.00    +0.000 A 
ATOM      8  C   UNL     1       1.070   9.503  19.789  0.00  0.00    +0.000 A 
ATOM      9  C   UNL     1       1.398   8.146  19.941  0.00  0.00    +0.000 A 
BRANCH   4  13
ATOM     10  C   UNL     1       3.616   3.505  19.410  0.00  0.00    +0.000 A 
ATOM     11  N   UNL     1       3.962   4.204  18.306  0.00  0.00    +0.000 NA
ATOM     12  C   UNL     1       3.427   5.443  18.178  0.00  0.00    +0.000 A 
ATOM     13  C   UNL     1       2.565   6.055  19.096  0.00  0.00    +0.000 A 
ATOM     14  C   UNL     1       2.190   5.263  20.192  0.00  0.00    +0.000 A 
ATOM     15  C   UNL     1       2.706   3.974  20.352  0.00  0.00    +0.000 A 
ATOM     16 CL   UNL     1       2.253   3.055  21.737  0.00  0.00    +0.000 Cl
BRANCH  10  18
ATOM     17  C   UNL     1       3.768   1.314  18.661  0.00  0.00    +0.000 C 
ATOM     18  O   UNL     1       4.211   2.278  19.613  0.00  0.00    +0.000 OA
ENDBRANCH  10  18
ENDBRANCH   4  13
ENDBRANCH   1   8
BRANCH   1  19
ATOM     19  N   UNL     1      -0.972  11.256  20.264  0.00  0.00    +0.000 N 
ATOM     20  H   UNL     1      -1.746  10.601  20.076  0.00  0.00    +0.000 HD
BRANCH  19  21
ATOM     21  C   UNL     1      -1.424  12.479  20.883  0.00  0.00    +0.000 A 
ATOM     22  C   UNL     1      -2.234  12.364  22.010  0.00  0.00    +0.000 A 
ATOM     23  C   UNL     1      -2.633  13.521  22.659  0.00  0.00    +0.000 A 
ATOM     24  N   UNL     1      -2.286  14.763  22.260  0.00  0.00    +0.000 NA
ATOM     25  C   UNL     1      -1.540  14.857  21.136  0.00  0.00    +0.000 A 
ATOM     26  C   UNL     1      -1.121  13.759  20.406  0.00  0.00    +0.000 A 
BRANCH  26  27
ATOM     27  S   UNL     1      -0.178  14.033  18.961  0.00  0.00    +0.000 S 
ATOM     28  O   UNL     1      -0.374  15.385  18.499  0.00  0.00    +0.000 OA
ATOM     29  O   UNL     1       1.134  13.466  19.191  0.00  0.00    +0.000 OA
BRANCH  27  30
ATOM     30  N   UNL     1      -0.931  13.045  17.843  0.00  0.00    +0.000 NA
ATOM     31  H   UNL     1      -0.693  12.062  17.967  0.00  0.00    +0.000 HD
ATOM     32  H   UNL     1      -1.936  13.231  17.768  0.00  0.00    +0.000 HD
ENDBRANCH  27  30
ENDBRANCH  26  27
ENDBRANCH  19  21
ENDBRANCH   1  19
TORSDOF 7
ENDMDL
MODEL 4
REMARK VINA RESULT:      -8.1      6.247      9.534
REMARK  Name = 
REMARK  8 active torsions:
REMARK  status: ('A' for Active; 'I' for Inactive)
REMARK    1  A    between atoms: C_1  and  O_2
REMARK    2  A    between atoms: O_2  and  C_3
REMARK    3  A    between atoms: C_6  and  C_7
REMARK    4  A    between atoms: C_11  and  S_12
REMARK    5  A    between atoms: S_12  and  N_15
REMARK    6  A    between atoms: N_15  and  C_16
REMARK    7  A    between atoms: C_21  and  S_22
REMARK    8  A    between atoms: S_22  and  N_23
REMARK                            x       y       z     vdW  Elec       q    Type
REMARK                         _______ _______ _______ _____ _____    ______ ____
ROOT
ATOM      1  S   UNL     1       0.195   9.778  21.456  0.00  0.00    +0.000 S 
ATOM      2  O   UNL     1      -0.757   8.758  21.846  0.00  0.00    +0.000 OA
ATOM      3  O   UNL     1       1.197  10.266  22.378  0.00  0.00    +0.000 OA
ENDROOT
BRANCH   1   8
ATOM      4  C   UNL     1       2.364   7.495  18.852  0.00  0.00    +0.000 A 
ATOM      5  C   UNL     1       2.472   8.393  17.769  0.00  0.00    +0.000 A 
ATOM      6  C   UNL     1       1.882   9.659  17.794  0.00  0.00    +0.000 A 
ATOM      7  C   UNL     1       1.166  10.068  18.912  0.00  0.00    +0.000 A 
ATOM      8  C   UNL     1       1.031   9.198  19.998  0.00  0.00    +0.000 A 
ATOM      9  C   UNL     1       1.623   7.925  19.974  0.00  0.00    +0.000 A 
BRANCH   4  13
ATOM     10  C   UNL     1       4.117   3.621  18.720  0.00  0.00    +0.000 A 
ATOM     11  N   UNL     1       3.486   4.012  19.850  0.00  0.00    +0.000 NA
ATOM     12  C   UNL     1       2.987   5.272  19.864  0.00  0.00    +0.000 A 
ATOM     13  C   UNL     1       3.061   6.187  18.807  0.00  0.00    +0.000 A 
ATOM     14  C   UNL     1       3.779   5.753  17.682  0.00  0.00    +0.000 A 
ATOM     15  C   UNL     1       4.324   4.467  17.635  0.00  0.00    +0.000 A 
ATOM     16 CL   UNL     1       5.159   3.961  16.216  0.00  0.00    +0.000 Cl
BRANCH  10  18
ATOM     17  C   UNL     1       3.474   1.404  18.488  0.00  0.00    +0.000 C 
ATOM     18  O   UNL     1       4.558   2.317  18.642  0.00  0.00    +0.000 OA
ENDBRANCH  10  18
ENDBRANCH   4  13
ENDBRANCH   1   8
BRANCH   1  19
ATOM     19  N   UNL     1      -0.732  11.089  20.884  0.00  0.00    +0.000 N 
ATOM     20  H   UNL     1      -1.578  10.693  20.445  0.00  0.00    +0.000 HD
BRANCH  19  21
ATOM     21  C   UNL     1      -1.039  12.129  21.836  0.00  0.00    +0.000 A 
ATOM     22  C   UNL     1      -2.043  11.869  22.766  0.00  0.00    +0.000 A 
ATOM     23  C   UNL     1      -2.318  12.826  23.729  0.00  0.00    +0.000 A 
ATOM     24  N   UNL     1      -1.670  14.007  23.819  0.00  0.00    +0.000 NA
ATOM     25  C   UNL     1      -0.732  14.262  22.878  0.00  0.00    +0.000 A 
ATOM     26  C   UNL     1      -0.413  13.379  21.863  0.00  0.00    +0.000 A 
BRANCH  26  27
ATOM     27  S   UNL     1       0.806  13.853  20.704  0.00  0.00    +0.000 S 
ATOM     28  O   UNL     1       0.391  13.476  19.376  0.00  0.00    +0.000 OA
ATOM     29  O   UNL     1       1.221  15.198  21.043  0.00  0.00    +0.000 OA
BRANCH  27  30
ATOM     30  N   UNL     1       2.086  12.851  21.094  0.00  0.00    +0.000 NA
ATOM     31  H   UNL     1       2.932  13.371  21.323  0.00  0.00    +0.000 HD
ATOM     32  H   UNL     1       1.831  12.135  21.780  0.00  0.00    +0.000 HD
ENDBRANCH  27  30
ENDBRANCH  26  27
ENDBRANCH  19  21
ENDBRANCH   1  19
TORSDOF 7
ENDMDL
MODEL 5
REMARK VINA RESULT:      -8.1      5.390      7.710
REMARK  Name = 
REMARK  8 active torsions:
REMARK  status: ('A' for Active; 'I' for Inactive)
REMARK    1  A    between atoms: C_1  and  O_2
REMARK    2  A    between atoms: O_2  and  C_3
REMARK    3  A    between atoms: C_6  and  C_7
REMARK    4  A    between atoms: C_11  and  S_12
REMARK    5  A    between atoms: S_12  and  N_15
REMARK    6  A    between atoms: N_15  and  C_16
REMARK    7  A    between atoms: C_21  and  S_22
REMARK    8  A    between atoms: S_22  and  N_23
REMARK                            x       y       z     vdW  Elec       q    Type
REMARK                         _______ _______ _______ _____ _____    ______ ____
ROOT
ATOM      1  S   UNL     1       2.462   6.019  19.551  0.00  0.00    +0.000 S 
ATOM      2  O   UNL     1       3.867   5.973  19.903  0.00  0.00    +0.000 OA
ATOM      3  O   UNL     1       1.451   5.440  20.408  0.00  0.00    +0.000 OA
ENDROOT
BRANCH   1   8
ATOM      4  C   UNL     1       0.828   9.743  19.948  0.00  0.00    +0.000 A 
ATOM      5  C   UNL     1       1.251  10.328  18.735  0.00  0.00    +0.000 A 
ATOM      6  C   UNL     1       2.042   9.636  17.815  0.00  0.00    +0.000 A 
ATOM      7  C   UNL     1       2.431   8.329  18.080  0.00  0.00    +0.000 A 
ATOM      8  C   UNL     1       2.037   7.724  19.278  0.00  0.00    +0.000 A 
ATOM      9  C   UNL     1       1.243   8.418  20.204  0.00  0.00    +0.000 A 
BRANCH   4  13
ATOM     10  C   UNL     1      -1.507  12.013  22.685  0.00  0.00    +0.000 A 
ATOM     11  N   UNL     1      -0.735  11.012  23.163  0.00  0.00    +0.000 NA
ATOM     12  C   UNL     1      -0.048  10.284  22.249  0.00  0.00    +0.000 A 
ATOM     13  C   UNL     1      -0.064  10.493  20.865  0.00  0.00    +0.000 A 
ATOM     14  C   UNL     1      -0.929  11.504  20.417  0.00  0.00    +0.000 A 
ATOM     15  C   UNL     1      -1.667  12.266  21.327  0.00  0.00    +0.000 A 
ATOM     16 CL   UNL     1      -2.681  13.527  20.735  0.00  0.00    +0.000 Cl
BRANCH  10  18
ATOM     17  C   UNL     1      -3.426  12.307  23.955  0.00  0.00    +0.000 C 
ATOM     18  O   UNL     1      -2.149  12.827  23.594  0.00  0.00    +0.000 OA
ENDBRANCH  10  18
ENDBRANCH   4  13
ENDBRANCH   1   8
BRANCH   1  19
ATOM     19  N   UNL     1       2.348   5.330  17.996  0.00  0.00    +0.000 N 
ATOM     20  H   UNL     1       1.877   6.021  17.392  0.00  0.00    +0.000 HD
BRANCH  19  21
ATOM     21  C   UNL     1       3.572   4.833  17.416  0.00  0.00    +0.000 A 
ATOM     22  C   UNL     1       4.358   5.740  16.709  0.00  0.00    +0.000 A 
ATOM     23  C   UNL     1       5.568   5.305  16.192  0.00  0.00    +0.000 A 
ATOM     24  N   UNL     1       6.032   4.045  16.329  0.00  0.00    +0.000 NA
ATOM     25  C   UNL     1       5.234   3.166  16.977  0.00  0.00    +0.000 A 
ATOM     26  C   UNL     1       3.998   3.503  17.499  0.00  0.00    +0.000 A 
BRANCH  26  27
ATOM     27  S   UNL     1       3.065   2.258  18.293  0.00  0.00    +0.000 S 
ATOM     28  O   UNL     1       1.691   2.327  17.862  0.00  0.00    +0.000 OA
ATOM     29  O   UNL     1       3.843   1.038  18.238  0.00  0.00    +0.000 OA
BRANCH  27  30
ATOM     30  N   UNL     1       3.077   2.755  19.888  0.00  0.00    +0.000 NA
ATOM     31  H   UNL     1       2.564   3.623  20.031  0.00  0.00    +0.000 HD
ATOM     32  H   UNL     1       2.826   2.003  20.537  0.00  0.00    +0.000 HD
ENDBRANCH  27  30
ENDBRANCH  26  27
ENDBRANCH  19  21
ENDBRANCH   1  19
TORSDOF 7
ENDMDL
MODEL 6
REMARK VINA RESULT:      -8.0      6.539      9.589
REMARK  Name = 
REMARK  8 active torsions:
REMARK  status: ('A' for Active; 'I' for Inactive)
REMARK    1  A    between atoms: C_1  and  O_2
REMARK    2  A    between atoms: O_2  and  C_3
REMARK    3  A    between atoms: C_6  and  C_7
REMARK    4  A    between atoms: C_11  and  S_12
REMARK    5  A    between atoms: S_12  and  N_15
REMARK    6  A    between atoms: N_15  and  C_16
REMARK    7  A    between atoms: C_21  and  S_22
REMARK    8  A    between atoms: S_22  and  N_23
REMARK                            x       y       z     vdW  Elec       q    Type
REMARK                         _______ _______ _______ _____ _____    ______ ____
ROOT
ATOM      1  S   UNL     1       0.788  10.549  21.458  0.00  0.00    +0.000 S 
ATOM      2  O   UNL     1       1.099   9.786  22.650  0.00  0.00    +0.000 OA
ATOM      3  O   UNL     1       1.283  11.896  21.274  0.00  0.00    +0.000 OA
ENDROOT
BRANCH   1   8
ATOM      4  C   UNL     1       2.104   7.470  19.116  0.00  0.00    +0.000 A 
ATOM      5  C   UNL     1       2.265   8.146  17.887  0.00  0.00    +0.000 A 
ATOM      6  C   UNL     1       1.957   9.501  17.741  0.00  0.00    +0.000 A 
ATOM      7  C   UNL     1       1.482  10.225  18.828  0.00  0.00    +0.000 A 
ATOM      8  C   UNL     1       1.302   9.582  20.057  0.00  0.00    +0.000 A 
ATOM      9  C   UNL     1       1.610   8.220  20.204  0.00  0.00    +0.000 A 
BRANCH   4  13
ATOM     10  C   UNL     1       3.502   3.476  19.548  0.00  0.00    +0.000 A 
ATOM     11  N   UNL     1       3.976   4.224  18.527  0.00  0.00    +0.000 NA
ATOM     12  C   UNL     1       3.465   5.473  18.399  0.00  0.00    +0.000 A 
ATOM     13  C   UNL     1       2.504   6.048  19.240  0.00  0.00    +0.000 A 
ATOM     14  C   UNL     1       2.002   5.207  20.245  0.00  0.00    +0.000 A 
ATOM     15  C   UNL     1       2.491   3.907  20.399  0.00  0.00    +0.000 A 
ATOM     16 CL   UNL     1       1.877   2.926  21.676  0.00  0.00    +0.000 Cl
BRANCH  10  18
ATOM     17  C   UNL     1       3.739   1.325  18.709  0.00  0.00    +0.000 C 
ATOM     18  O   UNL     1       4.065   2.234  19.757  0.00  0.00    +0.000 OA
ENDBRANCH  10  18
ENDBRANCH   4  13
ENDBRANCH   1   8
BRANCH   1  19
ATOM     19  N   UNL     1      -0.912  10.550  21.334  0.00  0.00    +0.000 N 
ATOM     20  H   UNL     1      -1.268   9.886  22.039  0.00  0.00    +0.000 HD
BRANCH  19  21
ATOM     21  C   UNL     1      -1.566  11.834  21.405  0.00  0.00    +0.000 A 
ATOM     22  C   UNL     1      -1.556  12.489  22.635  0.00  0.00    +0.000 A 
ATOM     23  C   UNL     1      -2.124  13.750  22.718  0.00  0.00    +0.000 A 
ATOM     24  N   UNL     1      -2.695  14.386  21.673  0.00  0.00    +0.000 NA
ATOM     25  C   UNL     1      -2.738  13.715  20.499  0.00  0.00    +0.000 A 
ATOM     26  C   UNL     1      -2.224  12.442  20.331  0.00  0.00    +0.000 A 
BRANCH  26  27
ATOM     27  S   UNL     1      -2.370  11.689  18.762  0.00  0.00    +0.000 S 
ATOM     28  O   UNL     1      -1.806  10.363  18.801  0.00  0.00    +0.000 OA
ATOM     29  O   UNL     1      -3.710  11.956  18.281  0.00  0.00    +0.000 OA
BRANCH  27  30
ATOM     30  N   UNL     1      -1.338  12.606  17.821  0.00  0.00    +0.000 NA
ATOM     31  H   UNL     1      -1.059  12.126  16.966  0.00  0.00    +0.000 HD
ATOM     32  H   UNL     1      -1.680  13.561  17.677  0.00  0.00    +0.000 HD
ENDBRANCH  27  30
ENDBRANCH  26  27
ENDBRANCH  19  21
ENDBRANCH   1  19
TORSDOF 7
ENDMDL
MODEL 7
REMARK VINA RESULT:      -7.9      4.529      6.830
REMARK  Name = 
REMARK  8 active torsions:
REMARK  status: ('A' for Active; 'I' for Inactive)
REMARK    1  A    between atoms: C_1  and  O_2
REMARK    2  A    between atoms: O_2  and  C_3
REMARK    3  A    between atoms: C_6  and  C_7
REMARK    4  A    between atoms: C_11  and  S_12
REMARK    5  A    between atoms: S_12  and  N_15
REMARK    6  A    between atoms: N_15  and  C_16
REMARK    7  A    between atoms: C_21  and  S_22
REMARK    8  A    between atoms: S_22  and  N_23
REMARK                            x       y       z     vdW  Elec       q    Type
REMARK                         _______ _______ _______ _____ _____    ______ ____
ROOT
ATOM      1  S   UNL     1       4.381   3.686  17.982  0.00  0.00    +0.000 S 
ATOM      2  O   UNL     1       5.698   3.719  18.586  0.00  0.00    +0.000 OA
ATOM      3  O   UNL     1       3.835   2.466  17.428  0.00  0.00    +0.000 OA
ENDROOT
BRANCH   1   8
ATOM      4  C   UNL     1       1.999   6.169  20.186  0.00  0.00    +0.000 A 
ATOM      5  C   UNL     1       1.561   5.270  21.182  0.00  0.00    +0.000 A 
ATOM      6  C   UNL     1       1.943   3.927  21.187  0.00  0.00    +0.000 A 
ATOM      7  C   UNL     1       2.784   3.441  20.194  0.00  0.00    +0.000 A 
ATOM      8  C   UNL     1       3.227   4.304  19.186  0.00  0.00    +0.000 A 
ATOM      9  C   UNL     1       2.844   5.655  19.179  0.00  0.00    +0.000 A 
BRANCH   4  13
ATOM     10  C   UNL     1       0.711  10.224  20.208  0.00  0.00    +0.000 A 
ATOM     11  N   UNL     1       1.316   9.740  19.101  0.00  0.00    +0.000 NA
ATOM     12  C   UNL     1       1.755   8.458  19.158  0.00  0.00    +0.000 A 
ATOM     13  C   UNL     1       1.620   7.601  20.257  0.00  0.00    +0.000 A 
ATOM     14  C   UNL     1       1.041   8.173  21.400  0.00  0.00    +0.000 A 
ATOM     15  C   UNL     1       0.591   9.496  21.387  0.00  0.00    +0.000 A 
ATOM     16 CL   UNL     1      -0.155  10.142  22.799  0.00  0.00    +0.000 Cl
BRANCH  10  18
ATOM     17  C   UNL     1      -1.137  11.487  19.597  0.00  0.00    +0.000 C 
ATOM     18  O   UNL     1       0.176  11.494  20.152  0.00  0.00    +0.000 OA
ENDBRANCH  10  18
ENDBRANCH   4  13
ENDBRANCH   1   8
BRANCH   1  19
ATOM     19  N   UNL     1       4.386   4.898  16.784  0.00  0.00    +0.000 N 
ATOM     20  H   UNL     1       4.259   5.802  17.265  0.00  0.00    +0.000 HD
BRANCH  19  21
ATOM     21  C   UNL     1       5.511   4.909  15.879  0.00  0.00    +0.000 A 
ATOM     22  C   UNL     1       5.498   3.991  14.832  0.00  0.00    +0.000 A 
ATOM     23  C   UNL     1       6.535   4.019  13.914  0.00  0.00    +0.000 A 
ATOM     24  N   UNL     1       7.568   4.886  13.976  0.00  0.00    +0.000 NA
ATOM     25  C   UNL     1       7.589   5.738  15.026  0.00  0.00    +0.000 A 
ATOM     26  C   UNL     1       6.613   5.761  16.006  0.00  0.00    +0.000 A 
BRANCH  26  27
ATOM     27  S   UNL     1       6.781   6.903  17.317  0.00  0.00    +0.000 S 
ATOM     28  O   UNL     1       7.813   7.860  17.004  0.00  0.00    +0.000 OA
ATOM     29  O   UNL     1       5.446   7.295  17.719  0.00  0.00    +0.000 OA
BRANCH  27  30
ATOM     30  N   UNL     1       7.386   5.953  18.552  0.00  0.00    +0.000 NA
ATOM     31  H   UNL     1       6.987   6.190  19.459  0.00  0.00    +0.000 HD
ATOM     32  H   UNL     1       7.362   4.954  18.327  0.00  0.00    +0.000 HD
ENDBRANCH  27  30
ENDBRANCH  26  27
ENDBRANCH  19  21
ENDBRANCH   1  19
TORSDOF 7
ENDMDL
MODEL 8
REMARK VINA RESULT:      -7.9      4.598      6.808
REMARK  Name = 
REMARK  8 active torsions:
REMARK  status: ('A' for Active; 'I' for Inactive)
REMARK    1  A    between atoms: C_1  and  O_2
REMARK    2  A    between atoms: O_2  and  C_3
REMARK    3  A    between atoms: C_6  and  C_7
REMARK    4  A    between atoms: C_11  and  S_12
REMARK    5  A    between atoms: S_12  and  N_15
REMARK    6  A    between atoms: N_15  and  C_16
REMARK    7  A    between atoms: C_21  and  S_22
REMARK    8  A    between atoms: S_22  and  N_23
REMARK                            x       y       z     vdW  Elec       q    Type
REMARK                         _______ _______ _______ _____ _____    ______ ____
ROOT
ATOM      1  S   UNL     1       3.164   3.389  17.531  0.00  0.00    +0.000 S 
ATOM      2  O   UNL     1       4.086   2.328  17.885  0.00  0.00    +0.000 OA
ATOM      3  O   UNL     1       2.033   3.148  16.662  0.00  0.00    +0.000 OA
ENDROOT
BRANCH   1   8
ATOM      4  C   UNL     1       1.788   6.026  20.333  0.00  0.00    +0.000 A 
ATOM      5  C   UNL     1       1.759   5.186  21.468  0.00  0.00    +0.000 A 
ATOM      6  C   UNL     1       2.116   3.838  21.401  0.00  0.00    +0.000 A 
ATOM      7  C   UNL     1       2.520   3.287  20.192  0.00  0.00    +0.000 A 
ATOM      8  C   UNL     1       2.550   4.089  19.046  0.00  0.00    +0.000 A 
ATOM      9  C   UNL     1       2.190   5.445  19.112  0.00  0.00    +0.000 A 
BRANCH   4  13
ATOM     10  C   UNL     1       0.659  10.123  20.519  0.00  0.00    +0.000 A 
ATOM     11  N   UNL     1       1.290   9.672  19.412  0.00  0.00    +0.000 NA
ATOM     12  C   UNL     1       1.675   8.372  19.419  0.00  0.00    +0.000 A 
ATOM     13  C   UNL     1       1.462   7.466  20.465  0.00  0.00    +0.000 A 
ATOM     14  C   UNL     1       0.858   8.002  21.613  0.00  0.00    +0.000 A 
ATOM     15  C   UNL     1       0.461   9.342  21.652  0.00  0.00    +0.000 A 
ATOM     16 CL   UNL     1      -0.318   9.944  23.066  0.00  0.00    +0.000 Cl
BRANCH  10  18
ATOM     17  C   UNL     1      -0.862  11.581  19.546  0.00  0.00    +0.000 C 
ATOM     18  O   UNL     1       0.176  11.415  20.509  0.00  0.00    +0.000 OA
ENDBRANCH  10  18
ENDBRANCH   4  13
ENDBRANCH   1   8
BRANCH   1  19
ATOM     19  N   UNL     1       4.121   4.640  16.879  0.00  0.00    +0.000 N 
ATOM     20  H   UNL     1       3.545   5.496  16.882  0.00  0.00    +0.000 HD
BRANCH  19  21
ATOM     21  C   UNL     1       5.417   4.845  17.481  0.00  0.00    +0.000 A 
ATOM     22  C   UNL     1       5.461   5.007  18.863  0.00  0.00    +0.000 A 
ATOM     23  C   UNL     1       6.697   5.146  19.474  0.00  0.00    +0.000 A 
ATOM     24  N   UNL     1       7.869   5.139  18.805  0.00  0.00    +0.000 NA
ATOM     25  C   UNL     1       7.804   5.029  17.458  0.00  0.00    +0.000 A 
ATOM     26  C   UNL     1       6.614   4.917  16.761  0.00  0.00    +0.000 A 
BRANCH  26  27
ATOM     27  S   UNL     1       6.681   4.804  15.019  0.00  0.00    +0.000 S 
ATOM     28  O   UNL     1       7.946   5.307  14.545  0.00  0.00    +0.000 OA
ATOM     29  O   UNL     1       6.170   3.500  14.654  0.00  0.00    +0.000 OA
BRANCH  27  30
ATOM     30  N   UNL     1       5.529   5.915  14.539  0.00  0.00    +0.000 NA
ATOM     31  H   UNL     1       4.659   5.473  14.245  0.00  0.00    +0.000 HD
ATOM     32  H   UNL     1       5.410   6.676  15.214  0.00  0.00    +0.000 HD
ENDBRANCH  27  30
ENDBRANCH  26  27
ENDBRANCH  19  21
ENDBRANCH   1  19
TORSDOF 7
ENDMDL
MODEL 9
REMARK VINA RESULT:      -7.8      6.229      9.545
REMARK  Name = 
REMARK  8 active torsions:
REMARK  status: ('A' for Active; 'I' for Inactive)
REMARK    1  A    between atoms: C_1  and  O_2
REMARK    2  A    between atoms: O_2  and  C_3
REMARK    3  A    between atoms: C_6  and  C_7
REMARK    4  A    between atoms: C_11  and  S_12
REMARK    5  A    between atoms: S_12  and  N_15
REMARK    6  A    between atoms: N_15  and  C_16
REMARK    7  A    between atoms: C_21  and  S_22
REMARK    8  A    between atoms: S_22  and  N_23
REMARK                            x       y       z     vdW  Elec       q    Type
REMARK                         _______ _______ _______ _____ _____    ______ ____
ROOT
ATOM      1  S   UNL     1       0.392   9.665  21.428  0.00  0.00    +0.000 S 
ATOM      2  O   UNL     1      -0.612   8.726  21.884  0.00  0.00    +0.000 OA
ATOM      3  O   UNL     1       1.432  10.146  22.311  0.00  0.00    +0.000 OA
ENDROOT
BRANCH   1   8
ATOM      4  C   UNL     1       2.396   7.117  18.940  0.00  0.00    +0.000 A 
ATOM      5  C   UNL     1       2.541   7.944  17.805  0.00  0.00    +0.000 A 
ATOM      6  C   UNL     1       2.023   9.240  17.762  0.00  0.00    +0.000 A 
ATOM      7  C   UNL     1       1.345   9.753  18.861  0.00  0.00    +0.000 A 
ATOM      8  C   UNL     1       1.175   8.955  19.998  0.00  0.00    +0.000 A 
ATOM      9  C   UNL     1       1.695   7.652  20.042  0.00  0.00    +0.000 A 
BRANCH   4  13
ATOM     10  C   UNL     1       4.242   3.299  19.275  0.00  0.00    +0.000 A 
ATOM     11  N   UNL     1       5.019   4.404  19.324  0.00  0.00    +0.000 NA
ATOM     12  C   UNL     1       4.394   5.595  19.162  0.00  0.00    +0.000 A 
ATOM     13  C   UNL     1       3.019   5.772  18.965  0.00  0.00    +0.000 A 
ATOM     14  C   UNL     1       2.268   4.591  18.861  0.00  0.00    +0.000 A 
ATOM     15  C   UNL     1       2.878   3.341  19.005  0.00  0.00    +0.000 A 
ATOM     16 CL   UNL     1       1.909   1.919  18.916  0.00  0.00    +0.000 Cl
BRANCH  10  18
ATOM     17  C   UNL     1       4.769   1.734  20.905  0.00  0.00    +0.000 C 
ATOM     18  O   UNL     1       4.834   2.078  19.524  0.00  0.00    +0.000 OA
ENDBRANCH  10  18
ENDBRANCH   4  13
ENDBRANCH   1   8
BRANCH   1  19
ATOM     19  N   UNL     1      -0.465  10.993  20.789  0.00  0.00    +0.000 N 
ATOM     20  H   UNL     1      -1.370  10.634  20.448  0.00  0.00    +0.000 HD
BRANCH  19  21
ATOM     21  C   UNL     1      -0.617  12.140  21.651  0.00  0.00    +0.000 A 
ATOM     22  C   UNL     1      -1.475  12.013  22.741  0.00  0.00    +0.000 A 
ATOM     23  C   UNL     1      -1.594  13.078  23.618  0.00  0.00    +0.000 A 
ATOM     24  N   UNL     1      -0.927  14.244  23.478  0.00  0.00    +0.000 NA
ATOM     25  C   UNL     1      -0.136  14.367  22.388  0.00  0.00    +0.000 A 
ATOM     26  C   UNL     1       0.021  13.368  21.444  0.00  0.00    +0.000 A 
BRANCH  26  27
ATOM     27  S   UNL     1       1.060  13.676  20.074  0.00  0.00    +0.000 S 
ATOM     28  O   UNL     1       1.256  15.096  19.918  0.00  0.00    +0.000 OA
ATOM     29  O   UNL     1       2.160  12.737  20.151  0.00  0.00    +0.000 OA
BRANCH  27  30
ATOM     30  N   UNL     1       0.114  13.193  18.784  0.00  0.00    +0.000 NA
ATOM     31  H   UNL     1      -0.022  13.936  18.100  0.00  0.00    +0.000 HD
ATOM     32  H   UNL     1       0.420  12.300  18.385  0.00  0.00    +0.000 HD
ENDBRANCH  27  30
ENDBRANCH  26  27
ENDBRANCH  19  21
ENDBRANCH   1  19
TORSDOF 7
ENDMDL
