MODEL 1
REMARK VINA RESULT:      -8.0      0.000      0.000
REMARK  Name = 
REMARK  11 active torsions:
REMARK  status: ('A' for Active; 'I' for Inactive)
REMARK    1  A    between atoms: C_1  and  C_2
REMARK    2  A    between atoms: C_2  and  O_3
REMARK    3  A    between atoms: O_3  and  C_4
REMARK    4  A    between atoms: C_7  and  N_8
REMARK    5  A    between atoms: N_8  and  S_9
REMARK    6  A    between atoms: S_9  and  C_12
REMARK    7  A    between atoms: C_15  and  O_16
REMARK    8  A    between atoms: O_16  and  C_17
REMARK    9  A    between atoms: C_17  and  C_18
REMARK   10  A    between atoms: N_20  and  C_21
REMARK   11  A    between atoms: C_21  and  C_22
REMARK                            x       y       z     vdW  Elec       q    Type
REMARK                         _______ _______ _______ _____ _____    ______ ____
ROOT
ATOM      1  C   UNL     1       2.912   4.692  18.734  0.00  0.00    +0.000 A 
ATOM      2  C   UNL     1       2.753   4.875  20.106  0.00  0.00    +0.000 A 
ATOM      3  C   UNL     1       2.366   6.119  20.598  0.00  0.00    +0.000 A 
ATOM      4  C   UNL     1       2.200   7.201  19.735  0.00  0.00    +0.000 A 
ATOM      5  C   UNL     1       2.380   7.028  18.360  0.00  0.00    +0.000 A 
ATOM      6  C   UNL     1       2.732   5.768  17.857  0.00  0.00    +0.000 A 
ENDROOT
BRANCH   1   7
ATOM      7  S   UNL     1       3.360   3.108  18.062  0.00  0.00    +0.000 S 
ATOM      8  O   UNL     1       2.266   2.721  17.197  0.00  0.00    +0.000 OA
ATOM      9  O   UNL     1       3.792   2.273  19.161  0.00  0.00    +0.000 OA
BRANCH   7  10
ATOM     10  N   UNL     1       4.658   3.423  17.019  0.00  0.00    +0.000 N 
ATOM     11  H   UNL     1       5.043   2.534  16.698  0.00  0.00    +0.000 HD
BRANCH  10  15
ATOM     12  C   UNL     1       7.378   6.427  18.210  0.00  0.00    +0.000 A 
ATOM     13  C   UNL     1       6.928   6.367  16.889  0.00  0.00    +0.000 A 
ATOM     14  C   UNL     1       6.046   5.361  16.482  0.00  0.00    +0.000 A 
ATOM     15  C   UNL     1       5.620   4.404  17.402  0.00  0.00    +0.000 A 
ATOM     16  C   UNL     1       6.120   4.422  18.702  0.00  0.00    +0.000 A 
ATOM     17  C   UNL     1       7.000   5.429  19.106  0.00  0.00    +0.000 A 
BRANCH  12  18
ATOM     18  O   UNL     1       8.177   7.493  18.514  0.00  0.00    +0.000 OA
BRANCH  18  20
ATOM     19  C   UNL     1       8.748   9.806  18.383  0.00  0.00    +0.000 C 
ATOM     20  C   UNL     1       7.951   8.680  17.751  0.00  0.00    +0.000 C 
ENDBRANCH  18  20
ENDBRANCH  12  18
ENDBRANCH  10  15
ENDBRANCH   7  10
ENDBRANCH   1   7
BRANCH   4  21
ATOM     21  O   UNL     1       1.834   8.362  20.353  0.00  0.00    +0.000 OA
BRANCH  21  22
ATOM     22  C   UNL     1       0.814   8.249  21.342  0.00  0.00    +0.000 C 
BRANCH  22  23
ATOM     23  C   UNL     1       0.572   9.600  22.024  0.00  0.00    +0.000 C 
ATOM     24  O   UNL     1       0.749   9.751  23.230  0.00  0.00    +0.000 OA
ATOM     25  N   UNL     1       0.127  10.606  21.195  0.00  0.00    +0.000 N 
ATOM     26  H   UNL     1       0.043  10.394  20.207  0.00  0.00    +0.000 HD
BRANCH  25  27
ATOM     27  C   UNL     1      -0.146  11.947  21.659  0.00  0.00    +0.000 C 
BRANCH  27  28
ATOM     28  C   UNL     1      -1.602  12.142  21.984  0.00  0.00    +0.000 A 
ATOM     29  C   UNL     1      -2.072  11.966  23.292  0.00  0.00    +0.000 A 
ATOM     30  C   UNL     1      -3.411  12.205  23.562  0.00  0.00    +0.000 A 
ATOM     31  N   UNL     1      -4.304  12.606  22.632  0.00  0.00    +0.000 NA
ATOM     32  C   UNL     1      -3.834  12.780  21.380  0.00  0.00    +0.000 A 
ATOM     33  C   UNL     1      -2.514  12.565  21.012  0.00  0.00    +0.000 A 
ENDBRANCH  27  28
ENDBRANCH  25  27
ENDBRANCH  22  23
ENDBRANCH  21  22
ENDBRANCH   4  21
TORSDOF 10
ENDMDL
MODEL 2
REMARK VINA RESULT:      -8.0      3.865      6.243
REMARK  Name = 
REMARK  11 active torsions:
REMARK  status: ('A' for Active; 'I' for Inactive)
REMARK    1  A    between atoms: C_1  and  C_2
REMARK    2  A    between atoms: C_2  and  O_3
REMARK    3  A    between atoms: O_3  and  C_4
REMARK    4  A    between atoms: C_7  and  N_8
REMARK    5  A    between atoms: N_8  and  S_9
REMARK    6  A    between atoms: S_9  and  C_12
REMARK    7  A    between atoms: C_15  and  O_16
REMARK    8  A    between atoms: O_16  and  C_17
REMARK    9  A    between atoms: C_17  and  C_18
REMARK   10  A    between atoms: N_20  and  C_21
REMARK   11  A    between atoms: C_21  and  C_22
REMARK                            x       y       z     vdW  Elec       q    Type
REMARK                         _______ _______ _______ _____ _____    ______ ____
ROOT
ATOM      1  C   UNL     1       5.283   5.476  17.274  0.00  0.00    +0.000 A 
ATOM      2  C   UNL     1       5.698   5.247  18.584  0.00  0.00    +0.000 A 
ATOM      3  C   UNL     1       5.003   4.342  19.383  0.00  0.00    +0.000 A 
ATOM      4  C   UNL     1       3.855   3.713  18.904  0.00  0.00    +0.000 A 
ATOM      5  C   UNL     1       3.422   3.957  17.598  0.00  0.00    +0.000 A 
ATOM      6  C   UNL     1       4.141   4.837  16.778  0.00  0.00    +0.000 A 
ENDROOT
BRANCH   1   7
ATOM      7  S   UNL     1       6.172   6.587  16.207  0.00  0.00    +0.000 S 
ATOM      8  O   UNL     1       6.965   7.425  17.082  0.00  0.00    +0.000 OA
ATOM      9  O   UNL     1       5.223   7.149  15.272  0.00  0.00    +0.000 OA
BRANCH   7  10
ATOM     10  N   UNL     1       7.294   5.613  15.392  0.00  0.00    +0.000 N 
ATOM     11  H   UNL     1       8.141   6.158  15.226  0.00  0.00    +0.000 HD
BRANCH  10  15
ATOM     12  C   UNL     1       6.041   3.158  12.191  0.00  0.00    +0.000 A 
ATOM     13  C   UNL     1       7.183   3.951  12.066  0.00  0.00    +0.000 A 
ATOM     14  C   UNL     1       7.590   4.785  13.112  0.00  0.00    +0.000 A 
ATOM     15  C   UNL     1       6.844   4.829  14.289  0.00  0.00    +0.000 A 
ATOM     16  C   UNL     1       5.667   4.089  14.391  0.00  0.00    +0.000 A 
ATOM     17  C   UNL     1       5.263   3.257  13.344  0.00  0.00    +0.000 A 
BRANCH  12  18
ATOM     18  O   UNL     1       5.778   2.329  11.137  0.00  0.00    +0.000 OA
BRANCH  18  20
ATOM     19  C   UNL     1       6.167  -0.022  11.280  0.00  0.00    +0.000 C 
ATOM     20  C   UNL     1       6.756   1.318  10.879  0.00  0.00    +0.000 C 
ENDBRANCH  18  20
ENDBRANCH  12  18
ENDBRANCH  10  15
ENDBRANCH   7  10
ENDBRANCH   1   7
BRANCH   4  21
ATOM     21  O   UNL     1       3.265   2.865  19.796  0.00  0.00    +0.000 OA
BRANCH  21  22
ATOM     22  C   UNL     1       2.887   3.437  21.046  0.00  0.00    +0.000 C 
BRANCH  22  23
ATOM     23  C   UNL     1       1.798   4.497  20.847  0.00  0.00    +0.000 C 
ATOM     24  O   UNL     1       0.677   4.198  20.443  0.00  0.00    +0.000 OA
ATOM     25  N   UNL     1       2.178   5.790  21.130  0.00  0.00    +0.000 N 
ATOM     26  H   UNL     1       3.115   5.934  21.490  0.00  0.00    +0.000 HD
BRANCH  25  27
ATOM     27  C   UNL     1       1.283   6.919  21.008  0.00  0.00    +0.000 C 
BRANCH  27  28
ATOM     28  C   UNL     1       1.653   7.805  19.850  0.00  0.00    +0.000 A 
ATOM     29  C   UNL     1       2.491   7.336  18.831  0.00  0.00    +0.000 A 
ATOM     30  C   UNL     1       2.767   8.164  17.754  0.00  0.00    +0.000 A 
ATOM     31  N   UNL     1       2.270   9.412  17.620  0.00  0.00    +0.000 NA
ATOM     32  C   UNL     1       1.457   9.846  18.606  0.00  0.00    +0.000 A 
ATOM     33  C   UNL     1       1.124   9.093  19.722  0.00  0.00    +0.000 A 
ENDBRANCH  27  28
ENDBRANCH  25  27
ENDBRANCH  22  23
ENDBRANCH  21  22
ENDBRANCH   4  21
TORSDOF 10
ENDMDL
MODEL 3
REMARK VINA RESULT:      -7.9      2.314      3.003
REMARK  Name = 
REMARK  11 active torsions:
REMARK  status: ('A' for Active; 'I' for Inactive)
REMARK    1  A    between atoms: C_1  and  C_2
REMARK    2  A    between atoms: C_2  and  O_3
REMARK    3  A    between atoms: O_3  and  C_4
REMARK    4  A    between atoms: C_7  and  N_8
REMARK    5  A    between atoms: N_8  and  S_9
REMARK    6  A    between atoms: S_9  and  C_12
REMARK    7  A    between atoms: C_15  and  O_16
REMARK    8  A    between atoms: O_16  and  C_17
REMARK    9  A    between atoms: C_17  and  C_18
REMARK   10  A    between atoms: N_20  and  C_21
REMARK   11  A    between atoms: C_21  and  C_22
REMARK                            x       y       z     vdW  Elec       q    Type
REMARK                         _______ _______ _______ _____ _____    ______ ____
ROOT
ATOM      1  C   UNL     1       2.414   4.593  18.876  0.00  0.00    +0.000 A 
ATOM      2  C   UNL     1       2.397   5.578  17.891  0.00  0.00    +0.000 A 
ATOM      3  C   UNL     1       2.193   6.909  18.245  0.00  0.00    +0.000 A 
ATOM      4  C   UNL     1       1.940   7.256  19.572  0.00  0.00    +0.000 A 
ATOM      5  C   UNL     1       1.934   6.269  20.560  0.00  0.00    +0.000 A 
ATOM      6  C   UNL     1       2.177   4.933  20.212  0.00  0.00    +0.000 A 
ENDROOT
BRANCH   1   7
ATOM      7  S   UNL     1       2.718   2.888  18.469  0.00  0.00    +0.000 S 
ATOM      8  O   UNL     1       2.316   2.733  17.087  0.00  0.00    +0.000 OA
ATOM      9  O   UNL     1       2.146   2.079  19.522  0.00  0.00    +0.000 OA
BRANCH   7  10
ATOM     10  N   UNL     1       4.406   2.732  18.459  0.00  0.00    +0.000 N 
ATOM     11  H   UNL     1       4.700   2.300  19.336  0.00  0.00    +0.000 HD
BRANCH  10  15
ATOM     12  C   UNL     1       6.871   5.918  17.189  0.00  0.00    +0.000 A 
ATOM     13  C   UNL     1       6.574   5.754  18.544  0.00  0.00    +0.000 A 
ATOM     14  C   UNL     1       5.738   4.716  18.969  0.00  0.00    +0.000 A 
ATOM     15  C   UNL     1       5.192   3.842  18.030  0.00  0.00    +0.000 A 
ATOM     16  C   UNL     1       5.433   4.044  16.673  0.00  0.00    +0.000 A 
ATOM     17  C   UNL     1       6.268   5.082  16.251  0.00  0.00    +0.000 A 
BRANCH  12  18
ATOM     18  O   UNL     1       7.754   6.918  16.895  0.00  0.00    +0.000 OA
BRANCH  18  20
ATOM     19  C   UNL     1       8.542   8.631  18.360  0.00  0.00    +0.000 C 
ATOM     20  C   UNL     1       7.431   8.210  17.416  0.00  0.00    +0.000 C 
ENDBRANCH  18  20
ENDBRANCH  12  18
ENDBRANCH  10  15
ENDBRANCH   7  10
ENDBRANCH   1   7
BRANCH   4  21
ATOM     21  O   UNL     1       1.744   8.592  19.774  0.00  0.00    +0.000 OA
BRANCH  21  22
ATOM     22  C   UNL     1       1.555   9.381  18.602  0.00  0.00    +0.000 C 
BRANCH  22  23
ATOM     23  C   UNL     1       0.805  10.674  18.937  0.00  0.00    +0.000 C 
ATOM     24  O   UNL     1       1.209  11.444  19.805  0.00  0.00    +0.000 OA
ATOM     25  N   UNL     1      -0.348  10.889  18.216  0.00  0.00    +0.000 N 
ATOM     26  H   UNL     1      -0.582  10.213  17.496  0.00  0.00    +0.000 HD
BRANCH  25  27
ATOM     27  C   UNL     1      -1.181  12.057  18.389  0.00  0.00    +0.000 C 
BRANCH  27  28
ATOM     28  C   UNL     1      -2.611  11.788  18.007  0.00  0.00    +0.000 A 
ATOM     29  C   UNL     1      -2.930  11.299  16.735  0.00  0.00    +0.000 A 
ATOM     30  C   UNL     1      -4.254  11.014  16.438  0.00  0.00    +0.000 A 
ATOM     31  N   UNL     1      -5.271  11.178  17.310  0.00  0.00    +0.000 NA
ATOM     32  C   UNL     1      -4.946  11.642  18.535  0.00  0.00    +0.000 A 
ATOM     33  C   UNL     1      -3.652  11.956  18.925  0.00  0.00    +0.000 A 
ENDBRANCH  27  28
ENDBRANCH  25  27
ENDBRANCH  22  23
ENDBRANCH  21  22
ENDBRANCH   4  21
TORSDOF 10
ENDMDL
MODEL 4
REMARK VINA RESULT:      -7.9      3.401      8.199
REMARK  Name = 
REMARK  11 active torsions:
REMARK  status: ('A' for Active; 'I' for Inactive)
REMARK    1  A    between atoms: C_1  and  C_2
REMARK    2  A    between atoms: C_2  and  O_3
REMARK    3  A    between atoms: O_3  and  C_4
REMARK    4  A    between atoms: C_7  and  N_8
REMARK    5  A    between atoms: N_8  and  S_9
REMARK    6  A    between atoms: S_9  and  C_12
REMARK    7  A    between atoms: C_15  and  O_16
REMARK    8  A    between atoms: O_16  and  C_17
REMARK    9  A    between atoms: C_17  and  C_18
REMARK   10  A    between atoms: N_20  and  C_21
REMARK   11  A    between atoms: C_21  and  C_22
REMARK                            x       y       z     vdW  Elec       q    Type
REMARK                         _______ _______ _______ _____ _____    ______ ____
ROOT
ATOM      1  C   UNL     1       4.598   3.677  18.222  0.00  0.00    +0.000 A 
ATOM      2  C   UNL     1       5.439   4.357  19.101  0.00  0.00    +0.000 A 
ATOM      3  C   UNL     1       6.416   5.214  18.601  0.00  0.00    +0.000 A 
ATOM      4  C   UNL     1       6.604   5.347  17.225  0.00  0.00    +0.000 A 
ATOM      5  C   UNL     1       5.778   4.650  16.340  0.00  0.00    +0.000 A 
ATOM      6  C   UNL     1       4.768   3.817  16.840  0.00  0.00    +0.000 A 
ENDROOT
BRANCH   1   7
ATOM      7  S   UNL     1       3.308   2.610  18.821  0.00  0.00    +0.000 S 
ATOM      8  O   UNL     1       3.565   2.434  20.235  0.00  0.00    +0.000 OA
ATOM      9  O   UNL     1       3.218   1.484  17.919  0.00  0.00    +0.000 OA
BRANCH   7  10
ATOM     10  N   UNL     1       1.894   3.542  18.742  0.00  0.00    +0.000 N 
ATOM     11  H   UNL     1       1.410   3.328  17.868  0.00  0.00    +0.000 HD
BRANCH  10  15
ATOM     12  C   UNL     1       1.944   7.651  19.715  0.00  0.00    +0.000 A 
ATOM     13  C   UNL     1       2.226   7.232  18.413  0.00  0.00    +0.000 A 
ATOM     14  C   UNL     1       2.236   5.872  18.090  0.00  0.00    +0.000 A 
ATOM     15  C   UNL     1       1.968   4.926  19.078  0.00  0.00    +0.000 A 
ATOM     16  C   UNL     1       1.751   5.338  20.391  0.00  0.00    +0.000 A 
ATOM     17  C   UNL     1       1.743   6.698  20.712  0.00  0.00    +0.000 A 
BRANCH  12  18
ATOM     18  O   UNL     1       1.890   9.004  19.902  0.00  0.00    +0.000 OA
BRANCH  18  20
ATOM     19  C   UNL     1      -0.195   9.992  19.290  0.00  0.00    +0.000 C 
ATOM     20  C   UNL     1       0.667   9.511  20.442  0.00  0.00    +0.000 C 
ENDBRANCH  18  20
ENDBRANCH  12  18
ENDBRANCH  10  15
ENDBRANCH   7  10
ENDBRANCH   1   7
BRANCH   4  21
ATOM     21  O   UNL     1       7.605   6.207  16.876  0.00  0.00    +0.000 OA
BRANCH  21  22
ATOM     22  C   UNL     1       7.311   7.596  17.010  0.00  0.00    +0.000 C 
BRANCH  22  23
ATOM     23  C   UNL     1       8.174   8.226  18.108  0.00  0.00    +0.000 C 
ATOM     24  O   UNL     1       8.651   7.550  19.017  0.00  0.00    +0.000 OA
ATOM     25  N   UNL     1       8.351   9.588  18.009  0.00  0.00    +0.000 N 
ATOM     26  H   UNL     1       7.946  10.054  17.204  0.00  0.00    +0.000 HD
BRANCH  25  27
ATOM     27  C   UNL     1       9.140  10.352  18.948  0.00  0.00    +0.000 C 
BRANCH  27  28
ATOM     28  C   UNL     1       9.676  11.616  18.333  0.00  0.00    +0.000 A 
ATOM     29  C   UNL     1       8.950  12.811  18.409  0.00  0.00    +0.000 A 
ATOM     30  C   UNL     1       9.501  13.966  17.875  0.00  0.00    +0.000 A 
ATOM     31  N   UNL     1      10.712  14.014  17.280  0.00  0.00    +0.000 NA
ATOM     32  C   UNL     1      11.402  12.857  17.223  0.00  0.00    +0.000 A 
ATOM     33  C   UNL     1      10.936  11.651  17.727  0.00  0.00    +0.000 A 
ENDBRANCH  27  28
ENDBRANCH  25  27
ENDBRANCH  22  23
ENDBRANCH  21  22
ENDBRANCH   4  21
TORSDOF 10
ENDMDL
MODEL 5
REMARK VINA RESULT:      -7.9      2.654      3.081
REMARK  Name = 
REMARK  11 active torsions:
REMARK  status: ('A' for Active; 'I' for Inactive)
REMARK    1  A    between atoms: C_1  and  C_2
REMARK    2  A    between atoms: C_2  and  O_3
REMARK    3  A    between atoms: O_3  and  C_4
REMARK    4  A    between atoms: C_7  and  N_8
REMARK    5  A    between atoms: N_8  and  S_9
REMARK    6  A    between atoms: S_9  and  C_12
REMARK    7  A    between atoms: C_15  and  O_16
REMARK    8  A    between atoms: O_16  and  C_17
REMARK    9  A    between atoms: C_17  and  C_18
REMARK   10  A    between atoms: N_20  and  C_21
REMARK   11  A    between atoms: C_21  and  C_22
REMARK                            x       y       z     vdW  Elec       q    Type
REMARK                         _______ _______ _______ _____ _____    ______ ____
ROOT
ATOM      1  C   UNL     1       2.631   4.793  18.850  0.00  0.00    +0.000 A 
ATOM      2  C   UNL     1       2.255   5.061  20.165  0.00  0.00    +0.000 A 
ATOM      3  C   UNL     1       1.907   6.358  20.535  0.00  0.00    +0.000 A 
ATOM      4  C   UNL     1       1.996   7.403  19.616  0.00  0.00    +0.000 A 
ATOM      5  C   UNL     1       2.394   7.143  18.303  0.00  0.00    +0.000 A 
ATOM      6  C   UNL     1       2.707   5.832  17.917  0.00  0.00    +0.000 A 
ENDROOT
BRANCH   1   7
ATOM      7  S   UNL     1       3.036   3.142  18.327  0.00  0.00    +0.000 S 
ATOM      8  O   UNL     1       2.905   3.141  16.885  0.00  0.00    +0.000 OA
ATOM      9  O   UNL     1       2.291   2.224  19.159  0.00  0.00    +0.000 OA
BRANCH   7  10
ATOM     10  N   UNL     1       4.699   2.984  18.619  0.00  0.00    +0.000 N 
ATOM     11  H   UNL     1       4.832   2.632  19.569  0.00  0.00    +0.000 HD
BRANCH  10  15
ATOM     12  C   UNL     1       7.128   6.245  17.477  0.00  0.00    +0.000 A 
ATOM     13  C   UNL     1       6.630   5.365  16.513  0.00  0.00    +0.000 A 
ATOM     14  C   UNL     1       5.846   4.269  16.887  0.00  0.00    +0.000 A 
ATOM     15  C   UNL     1       5.564   4.050  18.234  0.00  0.00    +0.000 A 
ATOM     16  C   UNL     1       6.114   4.888  19.202  0.00  0.00    +0.000 A 
ATOM     17  C   UNL     1       6.898   5.982  18.826  0.00  0.00    +0.000 A 
BRANCH  12  18
ATOM     18  O   UNL     1       7.819   7.320  16.994  0.00  0.00    +0.000 OA
BRANCH  18  20
ATOM     19  C   UNL     1       8.591   9.195  18.254  0.00  0.00    +0.000 C 
ATOM     20  C   UNL     1       7.419   8.597  17.498  0.00  0.00    +0.000 C 
ENDBRANCH  18  20
ENDBRANCH  12  18
ENDBRANCH  10  15
ENDBRANCH   7  10
ENDBRANCH   1   7
BRANCH   4  21
ATOM     21  O   UNL     1       1.641   8.622  20.117  0.00  0.00    +0.000 OA
BRANCH  21  22
ATOM     22  C   UNL     1       1.832   9.736  19.247  0.00  0.00    +0.000 C 
BRANCH  22  23
ATOM     23  C   UNL     1       0.658  10.714  19.356  0.00  0.00    +0.000 C 
ATOM     24  O   UNL     1       0.822  11.876  19.721  0.00  0.00    +0.000 OA
ATOM     25  N   UNL     1      -0.575  10.190  19.040  0.00  0.00    +0.000 N 
ATOM     26  H   UNL     1      -0.606   9.229  18.717  0.00  0.00    +0.000 HD
BRANCH  25  27
ATOM     27  C   UNL     1      -1.795  10.965  19.078  0.00  0.00    +0.000 C 
BRANCH  27  28
ATOM     28  C   UNL     1      -2.590  10.821  17.808  0.00  0.00    +0.000 A 
ATOM     29  C   UNL     1      -3.830  11.456  17.667  0.00  0.00    +0.000 A 
ATOM     30  C   UNL     1      -4.508  11.341  16.462  0.00  0.00    +0.000 A 
ATOM     31  N   UNL     1      -4.043  10.650  15.401  0.00  0.00    +0.000 NA
ATOM     32  C   UNL     1      -2.842  10.052  15.551  0.00  0.00    +0.000 A 
ATOM     33  C   UNL     1      -2.090  10.107  16.715  0.00  0.00    +0.000 A 
ENDBRANCH  27  28
ENDBRANCH  25  27
ENDBRANCH  22  23
ENDBRANCH  21  22
ENDBRANCH   4  21
TORSDOF 10
ENDMDL
MODEL 6
REMARK VINA RESULT:      -7.8      1.014      1.601
REMARK  Name = 
REMARK  11 active torsions:
REMARK  status: ('A' for Active; 'I' for Inactive)
REMARK    1  A    between atoms: C_1  and  C_2
REMARK    2  A    between atoms: C_2  and  O_3
REMARK    3  A    between atoms: O_3  and  C_4
REMARK    4  A    between atoms: C_7  and  N_8
REMARK    5  A    between atoms: N_8  and  S_9
REMARK    6  A    between atoms: S_9  and  C_12
REMARK    7  A    between atoms: C_15  and  O_16
REMARK    8  A    between atoms: O_16  and  C_17
REMARK    9  A    between atoms: C_17  and  C_18
REMARK   10  A    between atoms: N_20  and  C_21
REMARK   11  A    between atoms: C_21  and  C_22
REMARK                            x       y       z     vdW  Elec       q    Type
REMARK                         _______ _______ _______ _____ _____    ______ ____
ROOT
ATOM      1  C   UNL     1       2.266   4.785  18.921  0.00  0.00    +0.000 A 
ATOM      2  C   UNL     1       2.047   4.859  20.295  0.00  0.00    +0.000 A 
ATOM      3  C   UNL     1       1.828   6.096  20.896  0.00  0.00    +0.000 A 
ATOM      4  C   UNL     1       1.892   7.269  20.144  0.00  0.00    +0.000 A 
ATOM      5  C   UNL     1       2.133   7.202  18.770  0.00  0.00    +0.000 A 
ATOM      6  C   UNL     1       2.316   5.955  18.155  0.00  0.00    +0.000 A 
ENDROOT
BRANCH   1   7
ATOM      7  S   UNL     1       2.504   3.221  18.108  0.00  0.00    +0.000 S 
ATOM      8  O   UNL     1       2.103   3.426  16.732  0.00  0.00    +0.000 OA
ATOM      9  O   UNL     1       1.894   2.203  18.934  0.00  0.00    +0.000 OA
BRANCH   7  10
ATOM     10  N   UNL     1       4.184   3.005  18.052  0.00  0.00    +0.000 N 
ATOM     11  H   UNL     1       4.470   2.451  18.861  0.00  0.00    +0.000 HD
BRANCH  10  15
ATOM     12  C   UNL     1       6.754   6.234  17.154  0.00  0.00    +0.000 A 
ATOM     13  C   UNL     1       6.573   5.824  18.477  0.00  0.00    +0.000 A 
ATOM     14  C   UNL     1       5.704   4.772  18.784  0.00  0.00    +0.000 A 
ATOM     15  C   UNL     1       5.008   4.131  17.760  0.00  0.00    +0.000 A 
ATOM     16  C   UNL     1       5.136   4.582  16.448  0.00  0.00    +0.000 A 
ATOM     17  C   UNL     1       6.005   5.633  16.144  0.00  0.00    +0.000 A 
BRANCH  12  18
ATOM     18  O   UNL     1       7.680   7.221  16.962  0.00  0.00    +0.000 OA
BRANCH  18  20
ATOM     19  C   UNL     1       8.191   9.365  17.878  0.00  0.00    +0.000 C 
ATOM     20  C   UNL     1       8.153   7.871  18.144  0.00  0.00    +0.000 C 
ENDBRANCH  18  20
ENDBRANCH  12  18
ENDBRANCH  10  15
ENDBRANCH   7  10
ENDBRANCH   1   7
BRANCH   4  21
ATOM     21  O   UNL     1       1.673   8.408  20.863  0.00  0.00    +0.000 OA
BRANCH  21  22
ATOM     22  C   UNL     1       0.651   9.272  20.370  0.00  0.00    +0.000 C 
BRANCH  22  23
ATOM     23  C   UNL     1       0.553  10.537  21.229  0.00  0.00    +0.000 C 
ATOM     24  O   UNL     1       1.532  11.251  21.434  0.00  0.00    +0.000 OA
ATOM     25  N   UNL     1      -0.691  10.792  21.761  0.00  0.00    +0.000 N 
ATOM     26  H   UNL     1      -1.445  10.163  21.508  0.00  0.00    +0.000 HD
BRANCH  25  27
ATOM     27  C   UNL     1      -0.974  11.942  22.589  0.00  0.00    +0.000 C 
BRANCH  27  28
ATOM     28  C   UNL     1      -2.442  12.276  22.601  0.00  0.00    +0.000 A 
ATOM     29  C   UNL     1      -3.144  12.454  21.403  0.00  0.00    +0.000 A 
ATOM     30  C   UNL     1      -4.506  12.709  21.456  0.00  0.00    +0.000 A 
ATOM     31  N   UNL     1      -5.210  12.796  22.604  0.00  0.00    +0.000 NA
ATOM     32  C   UNL     1      -4.520  12.612  23.749  0.00  0.00    +0.000 A 
ATOM     33  C   UNL     1      -3.158  12.354  23.800  0.00  0.00    +0.000 A 
ENDBRANCH  27  28
ENDBRANCH  25  27
ENDBRANCH  22  23
ENDBRANCH  21  22
ENDBRANCH   4  21
TORSDOF 10
ENDMDL
MODEL 7
REMARK VINA RESULT:      -7.8      1.738      2.231
REMARK  Name = 
REMARK  11 active torsions:
REMARK  status: ('A' for Active; 'I' for Inactive)
REMARK    1  A    between atoms: C_1  and  C_2
REMARK    2  A    between atoms: C_2  and  O_3
REMARK    3  A    between atoms: O_3  and  C_4
REMARK    4  A    between atoms: C_7  and  N_8
REMARK    5  A    between atoms: N_8  and  S_9
REMARK    6  A    between atoms: S_9  and  C_12
REMARK    7  A    between atoms: C_15  and  O_16
REMARK    8  A    between atoms: O_16  and  C_17
REMARK    9  A    between atoms: C_17  and  C_18
REMARK   10  A    between atoms: N_20  and  C_21
REMARK   11  A    between atoms: C_21  and  C_22
REMARK                            x       y       z     vdW  Elec       q    Type
REMARK                         _______ _______ _______ _____ _____    ______ ____
ROOT
ATOM      1  C   UNL     1       2.082   4.727  18.858  0.00  0.00    +0.000 A 
ATOM      2  C   UNL     1       2.380   5.903  18.172  0.00  0.00    +0.000 A 
ATOM      3  C   UNL     1       2.343   7.124  18.842  0.00  0.00    +0.000 A 
ATOM      4  C   UNL     1       1.948   7.186  20.177  0.00  0.00    +0.000 A 
ATOM      5  C   UNL     1       1.626   6.012  20.863  0.00  0.00    +0.000 A 
ATOM      6  C   UNL     1       1.699   4.778  20.203  0.00  0.00    +0.000 A 
ENDROOT
BRANCH   1   7
ATOM      7  S   UNL     1       2.162   3.145  18.050  0.00  0.00    +0.000 S 
ATOM      8  O   UNL     1       1.963   3.409  16.641  0.00  0.00    +0.000 OA
ATOM      9  O   UNL     1       1.306   2.237  18.781  0.00  0.00    +0.000 OA
BRANCH   7  10
ATOM     10  N   UNL     1       3.781   2.663  18.185  0.00  0.00    +0.000 N 
ATOM     11  H   UNL     1       3.898   2.147  19.058  0.00  0.00    +0.000 HD
BRANCH  10  15
ATOM     12  C   UNL     1       6.692   5.607  17.345  0.00  0.00    +0.000 A 
ATOM     13  C   UNL     1       6.037   4.946  16.304  0.00  0.00    +0.000 A 
ATOM     14  C   UNL     1       5.090   3.953  16.574  0.00  0.00    +0.000 A 
ATOM     15  C   UNL     1       4.803   3.615  17.896  0.00  0.00    +0.000 A 
ATOM     16  C   UNL     1       5.503   4.226  18.934  0.00  0.00    +0.000 A 
ATOM     17  C   UNL     1       6.448   5.218  18.661  0.00  0.00    +0.000 A 
BRANCH  12  18
ATOM     18  O   UNL     1       7.542   6.608  16.968  0.00  0.00    +0.000 OA
BRANCH  18  20
ATOM     19  C   UNL     1       8.296   8.623  18.002  0.00  0.00    +0.000 C 
ATOM     20  C   UNL     1       7.134   7.935  17.310  0.00  0.00    +0.000 C 
ENDBRANCH  18  20
ENDBRANCH  12  18
ENDBRANCH  10  15
ENDBRANCH   7  10
ENDBRANCH   1   7
BRANCH   4  21
ATOM     21  O   UNL     1       1.943   8.445  20.703  0.00  0.00    +0.000 OA
BRANCH  21  22
ATOM     22  C   UNL     1       0.734   8.854  21.338  0.00  0.00    +0.000 C 
BRANCH  22  23
ATOM     23  C   UNL     1       0.338  10.264  20.888  0.00  0.00    +0.000 C 
ATOM     24  O   UNL     1       0.384  11.220  21.658  0.00  0.00    +0.000 OA
ATOM     25  N   UNL     1      -0.087  10.367  19.582  0.00  0.00    +0.000 N 
ATOM     26  H   UNL     1      -0.058   9.527  19.014  0.00  0.00    +0.000 HD
BRANCH  25  27
ATOM     27  C   UNL     1      -0.492  11.617  18.981  0.00  0.00    +0.000 C 
BRANCH  27  28
ATOM     28  C   UNL     1      -1.988  11.719  18.854  0.00  0.00    +0.000 A 
ATOM     29  C   UNL     1      -2.757  12.259  19.891  0.00  0.00    +0.000 A 
ATOM     30  C   UNL     1      -4.127  12.384  19.715  0.00  0.00    +0.000 A 
ATOM     31  N   UNL     1      -4.776  12.016  18.591  0.00  0.00    +0.000 NA
ATOM     32  C   UNL     1      -4.019  11.507  17.597  0.00  0.00    +0.000 A 
ATOM     33  C   UNL     1      -2.644  11.341  17.679  0.00  0.00    +0.000 A 
ENDBRANCH  27  28
ENDBRANCH  25  27
ENDBRANCH  22  23
ENDBRANCH  21  22
ENDBRANCH   4  21
TORSDOF 10
ENDMDL
MODEL 8
REMARK VINA RESULT:      -7.8      3.412     10.358
REMARK  Name = 
REMARK  11 active torsions:
REMARK  status: ('A' for Active; 'I' for Inactive)
REMARK    1  A    between atoms: C_1  and  C_2
REMARK    2  A    between atoms: C_2  and  O_3
REMARK    3  A    between atoms: O_3  and  C_4
REMARK    4  A    between atoms: C_7  and  N_8
REMARK    5  A    between atoms: N_8  and  S_9
REMARK    6  A    between atoms: S_9  and  C_12
REMARK    7  A    between atoms: C_15  and  O_16
REMARK    8  A    between atoms: O_16  and  C_17
REMARK    9  A    between atoms: C_17  and  C_18
REMARK   10  A    between atoms: N_20  and  C_21
REMARK   11  A    between atoms: C_21  and  C_22
REMARK                            x       y       z     vdW  Elec       q    Type
REMARK                         _______ _______ _______ _____ _____    ______ ____
ROOT
ATOM      1  C   UNL     1       1.117   9.207  19.758  0.00  0.00    +0.000 A 
ATOM      2  C   UNL     1       0.992   8.400  20.887  0.00  0.00    +0.000 A 
ATOM      3  C   UNL     1       1.640   7.168  20.933  0.00  0.00    +0.000 A 
ATOM      4  C   UNL     1       2.361   6.707  19.832  0.00  0.00    +0.000 A 
ATOM      5  C   UNL     1       2.470   7.502  18.689  0.00  0.00    +0.000 A 
ATOM      6  C   UNL     1       1.851   8.760  18.654  0.00  0.00    +0.000 A 
ENDROOT
BRANCH   1   7
ATOM      7  S   UNL     1       0.343  10.806  19.678  0.00  0.00    +0.000 S 
ATOM      8  O   UNL     1       1.424  11.770  19.684  0.00  0.00    +0.000 OA
ATOM      9  O   UNL     1      -0.705  10.835  20.673  0.00  0.00    +0.000 OA
BRANCH   7  10
ATOM     10  N   UNL     1      -0.321  10.897  18.121  0.00  0.00    +0.000 N 
ATOM     11  H   UNL     1       0.207  11.583  17.580  0.00  0.00    +0.000 HD
BRANCH  10  15
ATOM     12  C   UNL     1      -4.535  11.012  17.858  0.00  0.00    +0.000 A 
ATOM     13  C   UNL     1      -3.804  10.110  17.081  0.00  0.00    +0.000 A 
ATOM     14  C   UNL     1      -2.408  10.084  17.145  0.00  0.00    +0.000 A 
ATOM     15  C   UNL     1      -1.739  10.971  17.987  0.00  0.00    +0.000 A 
ATOM     16  C   UNL     1      -2.461  11.915  18.712  0.00  0.00    +0.000 A 
ATOM     17  C   UNL     1      -3.857  11.939  18.647  0.00  0.00    +0.000 A 
BRANCH  12  18
ATOM     18  O   UNL     1      -5.894  10.901  17.772  0.00  0.00    +0.000 OA
BRANCH  18  20
ATOM     19  C   UNL     1      -6.897   9.444  19.374  0.00  0.00    +0.000 C 
ATOM     20  C   UNL     1      -6.600  10.888  19.015  0.00  0.00    +0.000 C 
ENDBRANCH  18  20
ENDBRANCH  12  18
ENDBRANCH  10  15
ENDBRANCH   7  10
ENDBRANCH   1   7
BRANCH   4  21
ATOM     21  O   UNL     1       2.931   5.479  20.010  0.00  0.00    +0.000 OA
BRANCH  21  22
ATOM     22  C   UNL     1       2.085   4.357  19.770  0.00  0.00    +0.000 C 
BRANCH  22  23
ATOM     23  C   UNL     1       2.335   3.782  18.372  0.00  0.00    +0.000 C 
ATOM     24  O   UNL     1       1.459   3.176  17.761  0.00  0.00    +0.000 OA
ATOM     25  N   UNL     1       3.604   3.976  17.874  0.00  0.00    +0.000 N 
ATOM     26  H   UNL     1       4.250   4.519  18.439  0.00  0.00    +0.000 HD
BRANCH  25  27
ATOM     27  C   UNL     1       4.020   3.512  16.570  0.00  0.00    +0.000 C 
BRANCH  27  28
ATOM     28  C   UNL     1       5.233   4.250  16.073  0.00  0.00    +0.000 A 
ATOM     29  C   UNL     1       5.879   5.191  16.884  0.00  0.00    +0.000 A 
ATOM     30  C   UNL     1       7.024   5.812  16.409  0.00  0.00    +0.000 A 
ATOM     31  N   UNL     1       7.567   5.563  15.198  0.00  0.00    +0.000 NA
ATOM     32  C   UNL     1       6.938   4.647  14.433  0.00  0.00    +0.000 A 
ATOM     33  C   UNL     1       5.788   3.974  14.819  0.00  0.00    +0.000 A 
ENDBRANCH  27  28
ENDBRANCH  25  27
ENDBRANCH  22  23
ENDBRANCH  21  22
ENDBRANCH   4  21
TORSDOF 10
ENDMDL
MODEL 9
REMARK VINA RESULT:      -7.6      1.811      2.949
REMARK  Name = 
REMARK  11 active torsions:
REMARK  status: ('A' for Active; 'I' for Inactive)
REMARK    1  A    between atoms: C_1  and  C_2
REMARK    2  A    between atoms: C_2  and  O_3
REMARK    3  A    between atoms: O_3  and  C_4
REMARK    4  A    between atoms: C_7  and  N_8
REMARK    5  A    between atoms: N_8  and  S_9
REMARK    6  A    between atoms: S_9  and  C_12
REMARK    7  A    between atoms: C_15  and  O_16
REMARK    8  A    between atoms: O_16  and  C_17
REMARK    9  A    between atoms: C_17  and  C_18
REMARK   10  A    between atoms: N_20  and  C_21
REMARK   11  A    between atoms: C_21  and  C_22
REMARK                            x       y       z     vdW  Elec       q    Type
REMARK                         _______ _______ _______ _____ _____    ______ ____
ROOT
ATOM      1  C   UNL     1       2.834   4.649  18.758  0.00  0.00    +0.000 A 
ATOM      2  C   UNL     1       2.723   5.786  17.961  0.00  0.00    +0.000 A 
ATOM      3  C   UNL     1       2.333   6.996  18.531  0.00  0.00    +0.000 A 
ATOM      4  C   UNL     1       1.990   7.064  19.880  0.00  0.00    +0.000 A 
ATOM      5  C   UNL     1       2.078   5.922  20.679  0.00  0.00    +0.000 A 
ATOM      6  C   UNL     1       2.507   4.711  20.118  0.00  0.00    +0.000 A 
ENDROOT
BRANCH   1   7
ATOM      7  S   UNL     1       3.372   3.096  18.079  0.00  0.00    +0.000 S 
ATOM      8  O   UNL     1       2.281   2.627  17.251  0.00  0.00    +0.000 OA
ATOM      9  O   UNL     1       3.898   2.302  19.166  0.00  0.00    +0.000 OA
BRANCH   7  10
ATOM     10  N   UNL     1       4.610   3.497  16.992  0.00  0.00    +0.000 N 
ATOM     11  H   UNL     1       4.967   2.638  16.571  0.00  0.00    +0.000 HD
BRANCH  10  15
ATOM     12  C   UNL     1       7.423   6.388  18.245  0.00  0.00    +0.000 A 
ATOM     13  C   UNL     1       7.096   6.263  16.893  0.00  0.00    +0.000 A 
ATOM     14  C   UNL     1       6.184   5.291  16.468  0.00  0.00    +0.000 A 
ATOM     15  C   UNL     1       5.602   4.436  17.402  0.00  0.00    +0.000 A 
ATOM     16  C   UNL     1       5.977   4.515  18.742  0.00  0.00    +0.000 A 
ATOM     17  C   UNL     1       6.888   5.486  19.164  0.00  0.00    +0.000 A 
BRANCH  12  18
ATOM     18  O   UNL     1       8.268   7.416  18.556  0.00  0.00    +0.000 OA
BRANCH  18  20
ATOM     19  C   UNL     1       8.844   9.732  18.549  0.00  0.00    +0.000 C 
ATOM     20  C   UNL     1       8.034   8.646  17.865  0.00  0.00    +0.000 C 
ENDBRANCH  18  20
ENDBRANCH  12  18
ENDBRANCH  10  15
ENDBRANCH   7  10
ENDBRANCH   1   7
BRANCH   4  21
ATOM     21  O   UNL     1       1.613   8.307  20.301  0.00  0.00    +0.000 OA
BRANCH  21  22
ATOM     22  C   UNL     1       1.259   8.420  21.678  0.00  0.00    +0.000 C 
BRANCH  22  23
ATOM     23  C   UNL     1       0.785   9.842  21.997  0.00  0.00    +0.000 C 
ATOM     24  O   UNL     1       0.365  10.143  23.112  0.00  0.00    +0.000 OA
ATOM     25  N   UNL     1       0.846  10.732  20.949  0.00  0.00    +0.000 N 
ATOM     26  H   UNL     1       1.240  10.399  20.075  0.00  0.00    +0.000 HD
BRANCH  25  27
ATOM     27  C   UNL     1       0.449  12.117  21.066  0.00  0.00    +0.000 C 
BRANCH  27  28
ATOM     28  C   UNL     1       1.301  13.018  20.213  0.00  0.00    +0.000 A 
ATOM     29  C   UNL     1       1.557  14.338  20.603  0.00  0.00    +0.000 A 
ATOM     30  C   UNL     1       2.389  15.120  19.817  0.00  0.00    +0.000 A 
ATOM     31  N   UNL     1       2.978  14.685  18.683  0.00  0.00    +0.000 NA
ATOM     32  C   UNL     1       2.728  13.409  18.325  0.00  0.00    +0.000 A 
ATOM     33  C   UNL     1       1.911  12.549  19.045  0.00  0.00    +0.000 A 
ENDBRANCH  27  28
ENDBRANCH  25  27
ENDBRANCH  22  23
ENDBRANCH  21  22
ENDBRANCH   4  21
TORSDOF 10
ENDMDL
