MODEL 1
REMARK VINA RESULT:      -7.7      0.000      0.000
REMARK  Name = 
REMARK  11 active torsions:
REMARK  status: ('A' for Active; 'I' for Inactive)
REMARK    1  A    between atoms: C_1  and  O_2
REMARK    2  A    between atoms: O_2  and  C_3
REMARK    3  A    between atoms: C_6  and  C_7
REMARK    4  A    between atoms: C_7  and  N_8
REMARK    5  A    between atoms: N_8  and  C_9
REMARK    6  A    between atoms: N_8  and  C_18
REMARK    7  A    between atoms: C_9  and  C_10
REMARK    8  A    between atoms: C_10  and  C_11
REMARK    9  A    between atoms: C_11  and  N_12
REMARK   10  A    between atoms: C_18  and  C_19
REMARK   11  A    between atoms: C_27  and  O_28
REMARK                            x       y       z     vdW  Elec       q    Type
REMARK                         _______ _______ _______ _____ _____    ______ ____
ROOT
ATOM      1  N   UNL     1       2.875   6.471  19.012  0.00  0.00    +0.000 NA
ENDROOT
BRANCH   1   2
ATOM      2  C   UNL     1       4.185   5.889  19.398  0.00  0.00    +0.000 C 
BRANCH   2   6
ATOM      3  C   UNL     1       6.887   5.296  16.076  0.00  0.00    +0.000 A 
ATOM      4  C   UNL     1       5.699   6.024  15.901  0.00  0.00    +0.000 A 
ATOM      5  C   UNL     1       4.782   6.167  16.947  0.00  0.00    +0.000 A 
ATOM      6  C   UNL     1       5.027   5.561  18.180  0.00  0.00    +0.000 A 
ATOM      7  C   UNL     1       6.158   4.743  18.320  0.00  0.00    +0.000 A 
ATOM      8  C   UNL     1       7.107   4.666  17.300  0.00  0.00    +0.000 A 
BRANCH   3  10
ATOM      9  C   UNL     1       7.217   4.900  13.744  0.00  0.00    +0.000 C 
ATOM     10  O   UNL     1       7.718   5.360  14.990  0.00  0.00    +0.000 OA
ENDBRANCH   3  10
BRANCH   8  11
ATOM     11  O   UNL     1       8.276   4.021  17.586  0.00  0.00    +0.000 OA
ATOM     12  H   UNL     1       8.444   3.410  16.847  0.00  0.00    +0.000 HD
ENDBRANCH   8  11
ENDBRANCH   2   6
ENDBRANCH   1   2
BRANCH   1  13
ATOM     13  C   UNL     1       2.182   5.689  17.966  0.00  0.00    +0.000 C 
BRANCH  13  14
ATOM     14  C   UNL     1       1.552   4.367  18.429  0.00  0.00    +0.000 C 
BRANCH  14  15
ATOM     15  C   UNL     1       2.296   3.179  17.825  0.00  0.00    +0.000 C 
BRANCH  15  16
ATOM     16  N   UNL     1       2.288   1.968  18.658  0.00  0.00    +0.000 NA
ATOM     17  C   UNL     1       1.601   2.248  19.943  0.00  0.00    +0.000 C 
ATOM     18  C   UNL     1       2.456   3.100  20.894  0.00  0.00    +0.000 C 
ATOM     19  O   UNL     1       3.654   2.398  21.234  0.00  0.00    +0.000 OA
ATOM     20  C   UNL     1       4.426   2.105  20.063  0.00  0.00    +0.000 C 
ATOM     21  C   UNL     1       3.613   1.386  18.969  0.00  0.00    +0.000 C 
ENDBRANCH  15  16
ENDBRANCH  14  15
ENDBRANCH  13  14
ENDBRANCH   1  13
BRANCH   1  22
ATOM     22  C   UNL     1       1.990   6.681  20.170  0.00  0.00    +0.000 C 
BRANCH  22  23
ATOM     23  C   UNL     1       1.512   8.104  20.342  0.00  0.00    +0.000 A 
ATOM     24  C   UNL     1       1.379   8.964  19.244  0.00  0.00    +0.000 A 
ATOM     25  C   UNL     1       0.963  10.283  19.431  0.00  0.00    +0.000 A 
ATOM     26  C   UNL     1       0.682  10.743  20.711  0.00  0.00    +0.000 A 
ATOM     27 BR   UNL     1       0.162  12.544  20.969  0.00  0.00    +0.000 Br
ATOM     28  C   UNL     1       0.793   9.898  21.812  0.00  0.00    +0.000 A 
ATOM     29  C   UNL     1       1.209   8.576  21.624  0.00  0.00    +0.000 A 
ENDBRANCH  22  23
ENDBRANCH   1  22
TORSDOF 10
ENDMDL
MODEL 2
REMARK VINA RESULT:      -7.7      3.737      6.969
REMARK  Name = 
REMARK  11 active torsions:
REMARK  status: ('A' for Active; 'I' for Inactive)
REMARK    1  A    between atoms: C_1  and  O_2
REMARK    2  A    between atoms: O_2  and  C_3
REMARK    3  A    between atoms: C_6  and  C_7
REMARK    4  A    between atoms: C_7  and  N_8
REMARK    5  A    between atoms: N_8  and  C_9
REMARK    6  A    between atoms: N_8  and  C_18
REMARK    7  A    between atoms: C_9  and  C_10
REMARK    8  A    between atoms: C_10  and  C_11
REMARK    9  A    between atoms: C_11  and  N_12
REMARK   10  A    between atoms: C_18  and  C_19
REMARK   11  A    between atoms: C_27  and  O_28
REMARK                            x       y       z     vdW  Elec       q    Type
REMARK                         _______ _______ _______ _____ _____    ______ ____
ROOT
ATOM      1  N   UNL     1       2.916   6.238  18.543  0.00  0.00    +0.000 NA
ENDROOT
BRANCH   1   2
ATOM      2  C   UNL     1       2.549   7.620  18.145  0.00  0.00    +0.000 C 
BRANCH   2   6
ATOM      3  C   UNL     1       0.782   9.907  21.361  0.00  0.00    +0.000 A 
ATOM      4  C   UNL     1       1.242   8.601  21.590  0.00  0.00    +0.000 A 
ATOM      5  C   UNL     1       1.754   7.824  20.547  0.00  0.00    +0.000 A 
ATOM      6  C   UNL     1       1.789   8.333  19.248  0.00  0.00    +0.000 A 
ATOM      7  C   UNL     1       1.228   9.594  18.999  0.00  0.00    +0.000 A 
ATOM      8  C   UNL     1       0.790  10.394  20.054  0.00  0.00    +0.000 A 
BRANCH   3  10
ATOM      9  C   UNL     1      -0.937  10.535  22.894  0.00  0.00    +0.000 C 
ATOM     10  O   UNL     1       0.430  10.560  22.510  0.00  0.00    +0.000 OA
ENDBRANCH   3  10
BRANCH   8  11
ATOM     11  O   UNL     1       0.452  11.684  19.757  0.00  0.00    +0.000 OA
ATOM     12  H   UNL     1       0.679  11.822  18.821  0.00  0.00    +0.000 HD
ENDBRANCH   8  11
ENDBRANCH   2   6
ENDBRANCH   1   2
BRANCH   1  13
ATOM     13  C   UNL     1       2.219   5.204  17.747  0.00  0.00    +0.000 C 
BRANCH  13  14
ATOM     14  C   UNL     1       1.192   4.354  18.512  0.00  0.00    +0.000 C 
BRANCH  14  15
ATOM     15  C   UNL     1       1.624   4.172  19.965  0.00  0.00    +0.000 C 
BRANCH  15  16
ATOM     16  N   UNL     1       1.765   2.771  20.387  0.00  0.00    +0.000 NA
ATOM     17  C   UNL     1       3.016   2.608  21.168  0.00  0.00    +0.000 C 
ATOM     18  C   UNL     1       4.271   2.644  20.283  0.00  0.00    +0.000 C 
ATOM     19  O   UNL     1       4.245   1.558  19.352  0.00  0.00    +0.000 OA
ATOM     20  C   UNL     1       3.089   1.635  18.510  0.00  0.00    +0.000 C 
ATOM     21  C   UNL     1       1.772   1.765  19.301  0.00  0.00    +0.000 C 
ENDBRANCH  15  16
ENDBRANCH  14  15
ENDBRANCH  13  14
ENDBRANCH   1  13
BRANCH   1  22
ATOM     22  C   UNL     1       4.371   6.013  18.518  0.00  0.00    +0.000 C 
BRANCH  22  23
ATOM     23  C   UNL     1       4.903   5.514  17.195  0.00  0.00    +0.000 A 
ATOM     24  C   UNL     1       5.044   6.373  16.097  0.00  0.00    +0.000 A 
ATOM     25  C   UNL     1       5.511   5.882  14.876  0.00  0.00    +0.000 A 
ATOM     26  C   UNL     1       5.834   4.538  14.752  0.00  0.00    +0.000 A 
ATOM     27 BR   UNL     1       6.424   3.864  13.084  0.00  0.00    +0.000 Br
ATOM     28  C   UNL     1       5.716   3.673  15.837  0.00  0.00    +0.000 A 
ATOM     29  C   UNL     1       5.249   4.165  17.059  0.00  0.00    +0.000 A 
ENDBRANCH  22  23
ENDBRANCH   1  22
TORSDOF 10
ENDMDL
MODEL 3
REMARK VINA RESULT:      -7.7      4.825      8.498
REMARK  Name = 
REMARK  11 active torsions:
REMARK  status: ('A' for Active; 'I' for Inactive)
REMARK    1  A    between atoms: C_1  and  O_2
REMARK    2  A    between atoms: O_2  and  C_3
REMARK    3  A    between atoms: C_6  and  C_7
REMARK    4  A    between atoms: C_7  and  N_8
REMARK    5  A    between atoms: N_8  and  C_9
REMARK    6  A    between atoms: N_8  and  C_18
REMARK    7  A    between atoms: C_9  and  C_10
REMARK    8  A    between atoms: C_10  and  C_11
REMARK    9  A    between atoms: C_11  and  N_12
REMARK   10  A    between atoms: C_18  and  C_19
REMARK   11  A    between atoms: C_27  and  O_28
REMARK                            x       y       z     vdW  Elec       q    Type
REMARK                         _______ _______ _______ _____ _____    ______ ____
ROOT
ATOM      1  N   UNL     1       7.026   6.049  18.101  0.00  0.00    +0.000 NA
ENDROOT
BRANCH   1   2
ATOM      2  C   UNL     1       6.369   5.715  19.389  0.00  0.00    +0.000 C 
BRANCH   2   6
ATOM      3  C   UNL     1       2.763   3.575  18.335  0.00  0.00    +0.000 A 
ATOM      4  C   UNL     1       2.803   4.976  18.258  0.00  0.00    +0.000 A 
ATOM      5  C   UNL     1       3.939   5.687  18.660  0.00  0.00    +0.000 A 
ATOM      6  C   UNL     1       5.045   5.007  19.171  0.00  0.00    +0.000 A 
ATOM      7  C   UNL     1       4.964   3.619  19.351  0.00  0.00    +0.000 A 
ATOM      8  C   UNL     1       3.860   2.907  18.878  0.00  0.00    +0.000 A 
BRANCH   3  10
ATOM      9  C   UNL     1       0.691   2.438  18.671  0.00  0.00    +0.000 C 
ATOM     10  O   UNL     1       1.627   3.042  17.791  0.00  0.00    +0.000 OA
ENDBRANCH   3  10
BRANCH   8  11
ATOM     11  O   UNL     1       3.944   1.544  18.900  0.00  0.00    +0.000 OA
ATOM     12  H   UNL     1       3.333   1.240  19.593  0.00  0.00    +0.000 HD
ENDBRANCH   8  11
ENDBRANCH   2   6
ENDBRANCH   1   2
BRANCH   1  13
ATOM     13  C   UNL     1       8.060   7.098  18.235  0.00  0.00    +0.000 C 
BRANCH  13  14
ATOM     14  C   UNL     1       7.646   8.505  17.777  0.00  0.00    +0.000 C 
BRANCH  14  15
ATOM     15  C   UNL     1       8.817   9.476  17.905  0.00  0.00    +0.000 C 
BRANCH  15  16
ATOM     16  N   UNL     1       8.534  10.668  18.717  0.00  0.00    +0.000 NA
ATOM     17  C   UNL     1       8.709  11.889  17.892  0.00  0.00    +0.000 C 
ATOM     18  C   UNL     1      10.187  12.214  17.627  0.00  0.00    +0.000 C 
ATOM     19  O   UNL     1      10.859  12.475  18.863  0.00  0.00    +0.000 OA
ATOM     20  C   UNL     1      10.788  11.339  19.733  0.00  0.00    +0.000 C 
ATOM     21  C   UNL     1       9.350  10.827  19.942  0.00  0.00    +0.000 C 
ENDBRANCH  15  16
ENDBRANCH  14  15
ENDBRANCH  13  14
ENDBRANCH   1  13
BRANCH   1  22
ATOM     22  C   UNL     1       7.581   4.862  17.428  0.00  0.00    +0.000 C 
BRANCH  22  23
ATOM     23  C   UNL     1       6.949   4.549  16.092  0.00  0.00    +0.000 A 
ATOM     24  C   UNL     1       5.805   3.746  15.998  0.00  0.00    +0.000 A 
ATOM     25  C   UNL     1       5.256   3.447  14.750  0.00  0.00    +0.000 A 
ATOM     26  C   UNL     1       5.849   3.948  13.598  0.00  0.00    +0.000 A 
ATOM     27 BR   UNL     1       5.131   3.506  11.904  0.00  0.00    +0.000 Br
ATOM     28  C   UNL     1       6.976   4.762  13.673  0.00  0.00    +0.000 A 
ATOM     29  C   UNL     1       7.525   5.061  14.923  0.00  0.00    +0.000 A 
ENDBRANCH  22  23
ENDBRANCH   1  22
TORSDOF 10
ENDMDL
MODEL 4
REMARK VINA RESULT:      -7.7      1.978      2.707
REMARK  Name = 
REMARK  11 active torsions:
REMARK  status: ('A' for Active; 'I' for Inactive)
REMARK    1  A    between atoms: C_1  and  O_2
REMARK    2  A    between atoms: O_2  and  C_3
REMARK    3  A    between atoms: C_6  and  C_7
REMARK    4  A    between atoms: C_7  and  N_8
REMARK    5  A    between atoms: N_8  and  C_9
REMARK    6  A    between atoms: N_8  and  C_18
REMARK    7  A    between atoms: C_9  and  C_10
REMARK    8  A    between atoms: C_10  and  C_11
REMARK    9  A    between atoms: C_11  and  N_12
REMARK   10  A    between atoms: C_18  and  C_19
REMARK   11  A    between atoms: C_27  and  O_28
REMARK                            x       y       z     vdW  Elec       q    Type
REMARK                         _______ _______ _______ _____ _____    ______ ____
ROOT
ATOM      1  N   UNL     1       3.233   5.613  17.441  0.00  0.00    +0.000 NA
ENDROOT
BRANCH   1   2
ATOM      2  C   UNL     1       4.436   4.809  17.108  0.00  0.00    +0.000 C 
BRANCH   2   6
ATOM      3  C   UNL     1       7.846   7.164  18.341  0.00  0.00    +0.000 A 
ATOM      4  C   UNL     1       7.038   7.591  17.275  0.00  0.00    +0.000 A 
ATOM      5  C   UNL     1       5.972   6.808  16.820  0.00  0.00    +0.000 A 
ATOM      6  C   UNL     1       5.714   5.569  17.408  0.00  0.00    +0.000 A 
ATOM      7  C   UNL     1       6.586   5.093  18.397  0.00  0.00    +0.000 A 
ATOM      8  C   UNL     1       7.600   5.910  18.900  0.00  0.00    +0.000 A 
BRANCH   3  10
ATOM      9  C   UNL     1       8.569   9.438  18.285  0.00  0.00    +0.000 C 
ATOM     10  O   UNL     1       8.761   8.104  18.729  0.00  0.00    +0.000 OA
ENDBRANCH   3  10
BRANCH   8  11
ATOM     11  O   UNL     1       8.273   5.460  20.000  0.00  0.00    +0.000 OA
ATOM     12  H   UNL     1       9.069   6.014  20.084  0.00  0.00    +0.000 HD
ENDBRANCH   8  11
ENDBRANCH   2   6
ENDBRANCH   1   2
BRANCH   1  13
ATOM     13  C   UNL     1       1.981   4.828  17.384  0.00  0.00    +0.000 C 
BRANCH  13  14
ATOM     14  C   UNL     1       2.152   3.303  17.317  0.00  0.00    +0.000 C 
BRANCH  14  15
ATOM     15  C   UNL     1       1.974   2.683  18.700  0.00  0.00    +0.000 C 
BRANCH  15  16
ATOM     16  N   UNL     1       2.279   3.588  19.818  0.00  0.00    +0.000 NA
ATOM     17  C   UNL     1       3.613   3.259  20.379  0.00  0.00    +0.000 C 
ATOM     18  C   UNL     1       3.599   1.966  21.209  0.00  0.00    +0.000 C 
ATOM     19  O   UNL     1       2.726   2.116  22.333  0.00  0.00    +0.000 OA
ATOM     20  C   UNL     1       1.389   2.400  21.907  0.00  0.00    +0.000 C 
ATOM     21  C   UNL     1       1.305   3.593  20.933  0.00  0.00    +0.000 C 
ENDBRANCH  15  16
ENDBRANCH  14  15
ENDBRANCH  13  14
ENDBRANCH   1  13
BRANCH   1  22
ATOM     22  C   UNL     1       3.356   6.294  18.741  0.00  0.00    +0.000 C 
BRANCH  22  23
ATOM     23  C   UNL     1       2.511   7.539  18.875  0.00  0.00    +0.000 A 
ATOM     24  C   UNL     1       1.842   7.840  20.069  0.00  0.00    +0.000 A 
ATOM     25  C   UNL     1       1.045   8.982  20.160  0.00  0.00    +0.000 A 
ATOM     26  C   UNL     1       0.914   9.821  19.061  0.00  0.00    +0.000 A 
ATOM     27 BR   UNL     1      -0.203  11.344  19.171  0.00  0.00    +0.000 Br
ATOM     28  C   UNL     1       1.585   9.547  17.872  0.00  0.00    +0.000 A 
ATOM     29  C   UNL     1       2.384   8.404  17.782  0.00  0.00    +0.000 A 
ENDBRANCH  22  23
ENDBRANCH   1  22
TORSDOF 10
ENDMDL
MODEL 5
REMARK VINA RESULT:      -7.6      1.181      1.391
REMARK  Name = 
REMARK  11 active torsions:
REMARK  status: ('A' for Active; 'I' for Inactive)
REMARK    1  A    between atoms: C_1  and  O_2
REMARK    2  A    between atoms: O_2  and  C_3
REMARK    3  A    between atoms: C_6  and  C_7
REMARK    4  A    between atoms: C_7  and  N_8
REMARK    5  A    between atoms: N_8  and  C_9
REMARK    6  A    between atoms: N_8  and  C_18
REMARK    7  A    between atoms: C_9  and  C_10
REMARK    8  A    between atoms: C_10  and  C_11
REMARK    9  A    between atoms: C_11  and  N_12
REMARK   10  A    between atoms: C_18  and  C_19
REMARK   11  A    between atoms: C_27  and  O_28
REMARK                            x       y       z     vdW  Elec       q    Type
REMARK                         _______ _______ _______ _____ _____    ______ ____
ROOT
ATOM      1  N   UNL     1       3.120   6.232  18.728  0.00  0.00    +0.000 NA
ENDROOT
BRANCH   1   2
ATOM      2  C   UNL     1       4.172   5.268  19.135  0.00  0.00    +0.000 C 
BRANCH   2   6
ATOM      3  C   UNL     1       7.026   5.272  15.888  0.00  0.00    +0.000 A 
ATOM      4  C   UNL     1       6.163   4.181  16.070  0.00  0.00    +0.000 A 
ATOM      5  C   UNL     1       5.280   4.133  17.154  0.00  0.00    +0.000 A 
ATOM      6  C   UNL     1       5.268   5.168  18.091  0.00  0.00    +0.000 A 
ATOM      7  C   UNL     1       6.207   6.202  17.971  0.00  0.00    +0.000 A 
ATOM      8  C   UNL     1       7.030   6.284  16.847  0.00  0.00    +0.000 A 
BRANCH   3  10
ATOM      9  C   UNL     1       7.049   4.747  13.559  0.00  0.00    +0.000 C 
ATOM     10  O   UNL     1       7.730   5.208  14.716  0.00  0.00    +0.000 OA
ENDBRANCH   3  10
BRANCH   8  11
ATOM     11  O   UNL     1       7.767   7.424  16.698  0.00  0.00    +0.000 OA
ATOM     12  H   UNL     1       7.957   7.751  17.595  0.00  0.00    +0.000 HD
ENDBRANCH   8  11
ENDBRANCH   2   6
ENDBRANCH   1   2
BRANCH   1  13
ATOM     13  C   UNL     1       2.112   5.638  17.823  0.00  0.00    +0.000 C 
BRANCH  13  14
ATOM     14  C   UNL     1       1.906   4.122  17.958  0.00  0.00    +0.000 C 
BRANCH  14  15
ATOM     15  C   UNL     1       0.969   3.811  19.123  0.00  0.00    +0.000 C 
BRANCH  15  16
ATOM     16  N   UNL     1       1.168   2.486  19.727  0.00  0.00    +0.000 NA
ATOM     17  C   UNL     1       1.202   2.609  21.205  0.00  0.00    +0.000 C 
ATOM     18  C   UNL     1       2.514   3.224  21.715  0.00  0.00    +0.000 C 
ATOM     19  O   UNL     1       3.616   2.382  21.365  0.00  0.00    +0.000 OA
ATOM     20  C   UNL     1       3.707   2.221  19.945  0.00  0.00    +0.000 C 
ATOM     21  C   UNL     1       2.385   1.756  19.304  0.00  0.00    +0.000 C 
ENDBRANCH  15  16
ENDBRANCH  14  15
ENDBRANCH  13  14
ENDBRANCH   1  13
BRANCH   1  22
ATOM     22  C   UNL     1       2.464   6.869  19.883  0.00  0.00    +0.000 C 
BRANCH  22  23
ATOM     23  C   UNL     1       1.824   8.204  19.579  0.00  0.00    +0.000 A 
ATOM     24  C   UNL     1       1.985   8.822  18.332  0.00  0.00    +0.000 A 
ATOM     25  C   UNL     1       1.408  10.068  18.085  0.00  0.00    +0.000 A 
ATOM     26  C   UNL     1       0.673  10.697  19.081  0.00  0.00    +0.000 A 
ATOM     27 BR   UNL     1      -0.071  12.408  18.762  0.00  0.00    +0.000 Br
ATOM     28  C   UNL     1       0.488  10.091  20.321  0.00  0.00    +0.000 A 
ATOM     29  C   UNL     1       1.066   8.842  20.568  0.00  0.00    +0.000 A 
ENDBRANCH  22  23
ENDBRANCH   1  22
TORSDOF 10
ENDMDL
MODEL 6
REMARK VINA RESULT:      -7.5      1.801      2.527
REMARK  Name = 
REMARK  11 active torsions:
REMARK  status: ('A' for Active; 'I' for Inactive)
REMARK    1  A    between atoms: C_1  and  O_2
REMARK    2  A    between atoms: O_2  and  C_3
REMARK    3  A    between atoms: C_6  and  C_7
REMARK    4  A    between atoms: C_7  and  N_8
REMARK    5  A    between atoms: N_8  and  C_9
REMARK    6  A    between atoms: N_8  and  C_18
REMARK    7  A    between atoms: C_9  and  C_10
REMARK    8  A    between atoms: C_10  and  C_11
REMARK    9  A    between atoms: C_11  and  N_12
REMARK   10  A    between atoms: C_18  and  C_19
REMARK   11  A    between atoms: C_27  and  O_28
REMARK                            x       y       z     vdW  Elec       q    Type
REMARK                         _______ _______ _______ _____ _____    ______ ____
ROOT
ATOM      1  N   UNL     1       2.421   7.304  18.399  0.00  0.00    +0.000 NA
ENDROOT
BRANCH   1   2
ATOM      2  C   UNL     1       3.841   7.491  18.009  0.00  0.00    +0.000 C 
BRANCH   2   6
ATOM      3  C   UNL     1       5.532   4.387  15.518  0.00  0.00    +0.000 A 
ATOM      4  C   UNL     1       5.605   5.731  15.121  0.00  0.00    +0.000 A 
ATOM      5  C   UNL     1       5.004   6.740  15.881  0.00  0.00    +0.000 A 
ATOM      6  C   UNL     1       4.297   6.416  17.040  0.00  0.00    +0.000 A 
ATOM      7  C   UNL     1       4.130   5.065  17.376  0.00  0.00    +0.000 A 
ATOM      8  C   UNL     1       4.795   4.070  16.659  0.00  0.00    +0.000 A 
BRANCH   3  10
ATOM      9  C   UNL     1       6.166   3.710  13.319  0.00  0.00    +0.000 C 
ATOM     10  O   UNL     1       6.274   3.554  14.725  0.00  0.00    +0.000 OA
ENDBRANCH   3  10
BRANCH   8  11
ATOM     11  O   UNL     1       4.754   2.803  17.168  0.00  0.00    +0.000 OA
ATOM     12  H   UNL     1       5.044   2.208  16.455  0.00  0.00    +0.000 HD
ENDBRANCH   8  11
ENDBRANCH   2   6
ENDBRANCH   1   2
BRANCH   1  13
ATOM     13  C   UNL     1       2.209   7.392  19.860  0.00  0.00    +0.000 C 
BRANCH  13  14
ATOM     14  C   UNL     1       1.389   6.253  20.484  0.00  0.00    +0.000 C 
BRANCH  14  15
ATOM     15  C   UNL     1       2.307   5.119  20.936  0.00  0.00    +0.000 C 
BRANCH  15  16
ATOM     16  N   UNL     1       1.635   3.822  21.102  0.00  0.00    +0.000 NA
ATOM     17  C   UNL     1       2.643   2.769  21.379  0.00  0.00    +0.000 C 
ATOM     18  C   UNL     1       3.449   2.382  20.130  0.00  0.00    +0.000 C 
ATOM     19  O   UNL     1       2.578   1.839  19.134  0.00  0.00    +0.000 OA
ATOM     20  C   UNL     1       1.577   2.792  18.756  0.00  0.00    +0.000 C 
ATOM     21  C   UNL     1       0.808   3.370  19.960  0.00  0.00    +0.000 C 
ENDBRANCH  15  16
ENDBRANCH  14  15
ENDBRANCH  13  14
ENDBRANCH   1  13
BRANCH   1  22
ATOM     22  C   UNL     1       1.518   8.227  17.691  0.00  0.00    +0.000 C 
BRANCH  22  23
ATOM     23  C   UNL     1       1.374   9.583  18.341  0.00  0.00    +0.000 A 
ATOM     24  C   UNL     1       0.401   9.821  19.320  0.00  0.00    +0.000 A 
ATOM     25  C   UNL     1       0.269  11.090  19.886  0.00  0.00    +0.000 A 
ATOM     26  C   UNL     1       1.106  12.119  19.474  0.00  0.00    +0.000 A 
ATOM     27 BR   UNL     1       0.896  13.851  20.209  0.00  0.00    +0.000 Br
ATOM     28  C   UNL     1       2.090  11.897  18.515  0.00  0.00    +0.000 A 
ATOM     29  C   UNL     1       2.222  10.625  17.949  0.00  0.00    +0.000 A 
ENDBRANCH  22  23
ENDBRANCH   1  22
TORSDOF 10
ENDMDL
MODEL 7
REMARK VINA RESULT:      -7.3      5.059      8.609
REMARK  Name = 
REMARK  11 active torsions:
REMARK  status: ('A' for Active; 'I' for Inactive)
REMARK    1  A    between atoms: C_1  and  O_2
REMARK    2  A    between atoms: O_2  and  C_3
REMARK    3  A    between atoms: C_6  and  C_7
REMARK    4  A    between atoms: C_7  and  N_8
REMARK    5  A    between atoms: N_8  and  C_9
REMARK    6  A    between atoms: N_8  and  C_18
REMARK    7  A    between atoms: C_9  and  C_10
REMARK    8  A    between atoms: C_10  and  C_11
REMARK    9  A    between atoms: C_11  and  N_12
REMARK   10  A    between atoms: C_18  and  C_19
REMARK   11  A    between atoms: C_27  and  O_28
REMARK                            x       y       z     vdW  Elec       q    Type
REMARK                         _______ _______ _______ _____ _____    ______ ____
ROOT
ATOM      1  N   UNL     1       6.756   6.791  17.146  0.00  0.00    +0.000 NA
ENDROOT
BRANCH   1   2
ATOM      2  C   UNL     1       6.053   6.767  18.453  0.00  0.00    +0.000 C 
BRANCH   2   6
ATOM      3  C   UNL     1       3.272   3.465  18.225  0.00  0.00    +0.000 A 
ATOM      4  C   UNL     1       2.981   4.681  17.587  0.00  0.00    +0.000 A 
ATOM      5  C   UNL     1       3.837   5.780  17.706  0.00  0.00    +0.000 A 
ATOM      6  C   UNL     1       4.988   5.688  18.491  0.00  0.00    +0.000 A 
ATOM      7  C   UNL     1       5.220   4.511  19.217  0.00  0.00    +0.000 A 
ATOM      8  C   UNL     1       4.405   3.393  19.033  0.00  0.00    +0.000 A 
BRANCH   3  10
ATOM      9  C   UNL     1       1.285   2.256  18.766  0.00  0.00    +0.000 C 
ATOM     10  O   UNL     1       2.392   2.468  17.902  0.00  0.00    +0.000 OA
ENDBRANCH   3  10
BRANCH   8  11
ATOM     11  O   UNL     1       4.814   2.225  19.611  0.00  0.00    +0.000 OA
ATOM     12  H   UNL     1       4.032   1.647  19.650  0.00  0.00    +0.000 HD
ENDBRANCH   8  11
ENDBRANCH   2   6
ENDBRANCH   1   2
BRANCH   1  13
ATOM     13  C   UNL     1       7.728   7.900  17.034  0.00  0.00    +0.000 C 
BRANCH  13  14
ATOM     14  C   UNL     1       8.261   8.456  18.362  0.00  0.00    +0.000 C 
BRANCH  14  15
ATOM     15  C   UNL     1       8.451   9.968  18.272  0.00  0.00    +0.000 C 
BRANCH  15  16
ATOM     16  N   UNL     1       9.777  10.442  18.696  0.00  0.00    +0.000 NA
ATOM     17  C   UNL     1       9.691  11.017  20.060  0.00  0.00    +0.000 C 
ATOM     18  C   UNL     1       9.009  12.393  20.077  0.00  0.00    +0.000 C 
ATOM     19  O   UNL     1       9.770  13.326  19.305  0.00  0.00    +0.000 OA
ATOM     20  C   UNL     1       9.886  12.890  17.946  0.00  0.00    +0.000 C 
ATOM     21  C   UNL     1      10.416  11.448  17.818  0.00  0.00    +0.000 C 
ENDBRANCH  15  16
ENDBRANCH  14  15
ENDBRANCH  13  14
ENDBRANCH   1  13
BRANCH   1  22
ATOM     22  C   UNL     1       7.402   5.505  16.831  0.00  0.00    +0.000 C 
BRANCH  22  23
ATOM     23  C   UNL     1       6.926   4.865  15.549  0.00  0.00    +0.000 A 
ATOM     24  C   UNL     1       7.413   5.281  14.302  0.00  0.00    +0.000 A 
ATOM     25  C   UNL     1       6.937   4.693  13.129  0.00  0.00    +0.000 A 
ATOM     26  C   UNL     1       5.976   3.693  13.200  0.00  0.00    +0.000 A 
ATOM     27 BR   UNL     1       5.297   2.929  11.607  0.00  0.00    +0.000 Br
ATOM     28  C   UNL     1       5.492   3.255  14.430  0.00  0.00    +0.000 A 
ATOM     29  C   UNL     1       5.970   3.844  15.604  0.00  0.00    +0.000 A 
ENDBRANCH  22  23
ENDBRANCH   1  22
TORSDOF 10
ENDMDL
MODEL 8
REMARK VINA RESULT:      -7.3      3.616      6.535
REMARK  Name = 
REMARK  11 active torsions:
REMARK  status: ('A' for Active; 'I' for Inactive)
REMARK    1  A    between atoms: C_1  and  O_2
REMARK    2  A    between atoms: O_2  and  C_3
REMARK    3  A    between atoms: C_6  and  C_7
REMARK    4  A    between atoms: C_7  and  N_8
REMARK    5  A    between atoms: N_8  and  C_9
REMARK    6  A    between atoms: N_8  and  C_18
REMARK    7  A    between atoms: C_9  and  C_10
REMARK    8  A    between atoms: C_10  and  C_11
REMARK    9  A    between atoms: C_11  and  N_12
REMARK   10  A    between atoms: C_18  and  C_19
REMARK   11  A    between atoms: C_27  and  O_28
REMARK                            x       y       z     vdW  Elec       q    Type
REMARK                         _______ _______ _______ _____ _____    ______ ____
ROOT
ATOM      1  N   UNL     1       3.477   5.562  18.842  0.00  0.00    +0.000 NA
ENDROOT
BRANCH   1   2
ATOM      2  C   UNL     1       3.080   6.251  20.095  0.00  0.00    +0.000 C 
BRANCH   2   6
ATOM      3  C   UNL     1       0.766   9.844  19.442  0.00  0.00    +0.000 A 
ATOM      4  C   UNL     1       0.571   9.077  20.601  0.00  0.00    +0.000 A 
ATOM      5  C   UNL     1       1.262   7.877  20.796  0.00  0.00    +0.000 A 
ATOM      6  C   UNL     1       2.142   7.411  19.819  0.00  0.00    +0.000 A 
ATOM      7  C   UNL     1       2.254   8.119  18.613  0.00  0.00    +0.000 A 
ATOM      8  C   UNL     1       1.622   9.353  18.457  0.00  0.00    +0.000 A 
BRANCH   3  10
ATOM      9  C   UNL     1      -0.440  11.464  20.716  0.00  0.00    +0.000 C 
ATOM     10  O   UNL     1       0.102  11.040  19.474  0.00  0.00    +0.000 OA
ENDBRANCH   3  10
BRANCH   8  11
ATOM     11  O   UNL     1       1.942  10.079  17.345  0.00  0.00    +0.000 OA
ATOM     12  H   UNL     1       2.161   9.437  16.648  0.00  0.00    +0.000 HD
ENDBRANCH   8  11
ENDBRANCH   2   6
ENDBRANCH   1   2
BRANCH   1  13
ATOM     13  C   UNL     1       2.395   5.532  17.833  0.00  0.00    +0.000 C 
BRANCH  13  14
ATOM     14  C   UNL     1       1.631   4.205  17.714  0.00  0.00    +0.000 C 
BRANCH  14  15
ATOM     15  C   UNL     1       1.056   3.795  19.068  0.00  0.00    +0.000 C 
BRANCH  15  16
ATOM     16  N   UNL     1       1.385   2.422  19.479  0.00  0.00    +0.000 NA
ATOM     17  C   UNL     1       1.325   2.314  20.957  0.00  0.00    +0.000 C 
ATOM     18  C   UNL     1       2.524   2.986  21.645  0.00  0.00    +0.000 C 
ATOM     19  O   UNL     1       3.738   2.340  21.252  0.00  0.00    +0.000 OA
ATOM     20  C   UNL     1       3.923   2.417  19.833  0.00  0.00    +0.000 C 
ATOM     21  C   UNL     1       2.702   1.912  19.038  0.00  0.00    +0.000 C 
ENDBRANCH  15  16
ENDBRANCH  14  15
ENDBRANCH  13  14
ENDBRANCH   1  13
BRANCH   1  22
ATOM     22  C   UNL     1       4.709   6.119  18.260  0.00  0.00    +0.000 C 
BRANCH  22  23
ATOM     23  C   UNL     1       5.107   5.508  16.937  0.00  0.00    +0.000 A 
ATOM     24  C   UNL     1       5.185   6.282  15.771  0.00  0.00    +0.000 A 
ATOM     25  C   UNL     1       5.527   5.689  14.555  0.00  0.00    +0.000 A 
ATOM     26  C   UNL     1       5.788   4.327  14.501  0.00  0.00    +0.000 A 
ATOM     27 BR   UNL     1       6.206   3.515  12.843  0.00  0.00    +0.000 Br
ATOM     28  C   UNL     1       5.731   3.544  15.652  0.00  0.00    +0.000 A 
ATOM     29  C   UNL     1       5.389   4.139  16.870  0.00  0.00    +0.000 A 
ENDBRANCH  22  23
ENDBRANCH   1  22
TORSDOF 10
ENDMDL
MODEL 9
REMARK VINA RESULT:      -7.3      6.084     10.111
REMARK  Name = 
REMARK  11 active torsions:
REMARK  status: ('A' for Active; 'I' for Inactive)
REMARK    1  A    between atoms: C_1  and  O_2
REMARK    2  A    between atoms: O_2  and  C_3
REMARK    3  A    between atoms: C_6  and  C_7
REMARK    4  A    between atoms: C_7  and  N_8
REMARK    5  A    between atoms: N_8  and  C_9
REMARK    6  A    between atoms: N_8  and  C_18
REMARK    7  A    between atoms: C_9  and  C_10
REMARK    8  A    between atoms: C_10  and  C_11
REMARK    9  A    between atoms: C_11  and  N_12
REMARK   10  A    between atoms: C_18  and  C_19
REMARK   11  A    between atoms: C_27  and  O_28
REMARK                            x       y       z     vdW  Elec       q    Type
REMARK                         _______ _______ _______ _____ _____    ______ ____
ROOT
ATOM      1  N   UNL     1       0.375  10.744  19.897  0.00  0.00    +0.000 NA
ENDROOT
BRANCH   1   2
ATOM      2  C   UNL     1      -1.082  10.994  20.026  0.00  0.00    +0.000 C 
BRANCH   2   6
ATOM      3  C   UNL     1      -3.359  10.684  16.364  0.00  0.00    +0.000 A 
ATOM      4  C   UNL     1      -2.166   9.961  16.520  0.00  0.00    +0.000 A 
ATOM      5  C   UNL     1      -1.383  10.101  17.670  0.00  0.00    +0.000 A 
ATOM      6  C   UNL     1      -1.769  10.991  18.674  0.00  0.00    +0.000 A 
ATOM      7  C   UNL     1      -2.900  11.794  18.469  0.00  0.00    +0.000 A 
ATOM      8  C   UNL     1      -3.718  11.594  17.357  0.00  0.00    +0.000 A 
BRANCH   3  10
ATOM      9  C   UNL     1      -3.308   9.986  14.081  0.00  0.00    +0.000 C 
ATOM     10  O   UNL     1      -4.053  10.334  15.238  0.00  0.00    +0.000 OA
ENDBRANCH   3  10
BRANCH   8  11
ATOM     11  O   UNL     1      -4.908  12.265  17.332  0.00  0.00    +0.000 OA
ATOM     12  H   UNL     1      -5.607  11.589  17.309  0.00  0.00    +0.000 HD
ENDBRANCH   8  11
ENDBRANCH   2   6
ENDBRANCH   1   2
BRANCH   1  13
ATOM     13  C   UNL     1       1.197  11.916  20.268  0.00  0.00    +0.000 C 
BRANCH  13  14
ATOM     14  C   UNL     1       1.648  12.810  19.103  0.00  0.00    +0.000 C 
BRANCH  14  15
ATOM     15  C   UNL     1       1.332  14.274  19.399  0.00  0.00    +0.000 C 
BRANCH  15  16
ATOM     16  N   UNL     1       2.507  15.100  19.713  0.00  0.00    +0.000 NA
ATOM     17  C   UNL     1       2.118  16.531  19.750  0.00  0.00    +0.000 C 
ATOM     18  C   UNL     1       1.877  17.112  18.348  0.00  0.00    +0.000 C 
ATOM     19  O   UNL     1       3.081  17.051  17.579  0.00  0.00    +0.000 OA
ATOM     20  C   UNL     1       3.533  15.699  17.442  0.00  0.00    +0.000 C 
ATOM     21  C   UNL     1       3.659  14.965  18.792  0.00  0.00    +0.000 C 
ENDBRANCH  15  16
ENDBRANCH  14  15
ENDBRANCH  13  14
ENDBRANCH   1  13
BRANCH   1  22
ATOM     22  C   UNL     1       0.810   9.552  20.645  0.00  0.00    +0.000 C 
BRANCH  22  23
ATOM     23  C   UNL     1       1.586   8.549  19.825  0.00  0.00    +0.000 A 
ATOM     24  C   UNL     1       1.954   7.305  20.355  0.00  0.00    +0.000 A 
ATOM     25  C   UNL     1       2.695   6.405  19.588  0.00  0.00    +0.000 A 
ATOM     26  C   UNL     1       3.071   6.747  18.295  0.00  0.00    +0.000 A 
ATOM     27 BR   UNL     1       4.115   5.546  17.272  0.00  0.00    +0.000 Br
ATOM     28  C   UNL     1       2.701   7.972  17.746  0.00  0.00    +0.000 A 
ATOM     29  C   UNL     1       1.957   8.872  18.515  0.00  0.00    +0.000 A 
ENDBRANCH  22  23
ENDBRANCH   1  22
TORSDOF 10
ENDMDL
