MODEL 1
REMARK VINA RESULT:      -8.9      0.000      0.000
REMARK  Name = 
REMARK  4 active torsions:
REMARK  status: ('A' for Active; 'I' for Inactive)
REMARK    1  A    between atoms: C_1  and  S_2
REMARK    2  A    between atoms: S_2  and  N_5
REMARK    3  A    between atoms: C_13  and  C_14
REMARK    4  A    between atoms: C_17  and  C_18
REMARK                            x       y       z     vdW  Elec       q    Type
REMARK                         _______ _______ _______ _____ _____    ______ ____
ROOT
ATOM      1  N   UNL     1       2.709   5.238  18.016  0.00  0.00    +0.000 N 
ATOM      2  C   UNL     1       1.692   4.178  17.805  0.00  0.00    +0.000 C 
ATOM      3  C   UNL     1       1.492   3.246  19.002  0.00  0.00    +0.000 C 
ATOM      4  C   UNL     1       1.026   3.931  20.285  0.00  0.00    +0.000 C 
ATOM      5  C   UNL     1       2.067   4.896  20.834  0.00  0.00    +0.000 C 
ATOM      6  C   UNL     1       1.980   6.230  20.140  0.00  0.00    +0.000 A 
ATOM      7  C   UNL     1       1.474   7.320  20.867  0.00  0.00    +0.000 A 
ATOM      8  C   UNL     1       1.375   8.586  20.266  0.00  0.00    +0.000 A 
ATOM      9  C   UNL     1       0.880   9.866  20.672  0.00  0.00    +0.000 A 
ATOM     10  C   UNL     1       1.108  10.722  19.600  0.00  0.00    +0.000 A 
ATOM     11  O   UNL     1       1.636  10.012  18.546  0.00  0.00    +0.000 OA
ATOM     12  C   UNL     1       1.793   8.717  18.950  0.00  0.00    +0.000 A 
ATOM     13  C   UNL     1       2.276   7.654  18.174  0.00  0.00    +0.000 A 
ATOM     14  C   UNL     1       2.335   6.390  18.792  0.00  0.00    +0.000 A 
ENDROOT
BRANCH  10  15
ATOM     15  C   UNL     1       0.972  12.169  19.391  0.00  0.00    +0.000 A 
ATOM     16  C   UNL     1       2.011  13.046  19.755  0.00  0.00    +0.000 A 
ATOM     17  C   UNL     1       1.911  14.424  19.546  0.00  0.00    +0.000 A 
ATOM     18  C   UNL     1       0.771  14.939  18.955  0.00  0.00    +0.000 A 
ATOM     19  F   UNL     1       0.677  16.258  18.734  0.00  0.00    +0.000 F 
ATOM     20  C   UNL     1      -0.273  14.102  18.581  0.00  0.00    +0.000 A 
ATOM     21  C   UNL     1      -0.175  12.722  18.800  0.00  0.00    +0.000 A 
ENDBRANCH  10  15
BRANCH   9  22
ATOM     22  C   UNL     1       0.238  10.222  21.922  0.00  0.00    +0.000 C 
ATOM     23  N   UNL     1      -0.983  10.824  21.816  0.00  0.00    +0.000 N 
ATOM     24  O   UNL     1       0.714  10.000  23.030  0.00  0.00    +0.000 OA
ATOM     25  H   UNL     1      -1.503  10.838  20.952  0.00  0.00    +0.000 HD
ATOM     26  H   UNL     1      -1.477  11.005  22.680  0.00  0.00    +0.000 HD
ENDBRANCH   9  22
BRANCH   1  28
ATOM     27  C   UNL     1       4.856   5.983  16.589  0.00  0.00    +0.000 C 
ATOM     28  S   UNL     1       4.353   4.854  17.872  0.00  0.00    +0.000 S 
ATOM     29  O   UNL     1       4.478   3.513  17.335  0.00  0.00    +0.000 OA
ATOM     30  O   UNL     1       5.054   5.242  19.076  0.00  0.00    +0.000 OA
ENDBRANCH   1  28
TORSDOF 3
ENDMDL
MODEL 2
REMARK VINA RESULT:      -8.7      0.617      1.135
REMARK  Name = 
REMARK  4 active torsions:
REMARK  status: ('A' for Active; 'I' for Inactive)
REMARK    1  A    between atoms: C_1  and  S_2
REMARK    2  A    between atoms: S_2  and  N_5
REMARK    3  A    between atoms: C_13  and  C_14
REMARK    4  A    between atoms: C_17  and  C_18
REMARK                            x       y       z     vdW  Elec       q    Type
REMARK                         _______ _______ _______ _____ _____    ______ ____
ROOT
ATOM      1  N   UNL     1       2.825   5.290  18.037  0.00  0.00    +0.000 N 
ATOM      2  C   UNL     1       1.834   4.214  17.788  0.00  0.00    +0.000 C 
ATOM      3  C   UNL     1       1.607   3.275  18.975  0.00  0.00    +0.000 C 
ATOM      4  C   UNL     1       1.085   3.948  20.242  0.00  0.00    +0.000 C 
ATOM      5  C   UNL     1       2.091   4.928  20.830  0.00  0.00    +0.000 C 
ATOM      6  C   UNL     1       2.007   6.263  20.137  0.00  0.00    +0.000 A 
ATOM      7  C   UNL     1       1.458   7.342  20.849  0.00  0.00    +0.000 A 
ATOM      8  C   UNL     1       1.360   8.608  20.248  0.00  0.00    +0.000 A 
ATOM      9  C   UNL     1       0.830   9.879  20.640  0.00  0.00    +0.000 A 
ATOM     10  C   UNL     1       1.082  10.742  19.579  0.00  0.00    +0.000 A 
ATOM     11  O   UNL     1       1.659  10.044  18.542  0.00  0.00    +0.000 OA
ATOM     12  C   UNL     1       1.822   8.750  18.949  0.00  0.00    +0.000 A 
ATOM     13  C   UNL     1       2.349   7.697  18.187  0.00  0.00    +0.000 A 
ATOM     14  C   UNL     1       2.406   6.433  18.803  0.00  0.00    +0.000 A 
ENDROOT
BRANCH  10  15
ATOM     15  C   UNL     1       0.930  12.187  19.370  0.00  0.00    +0.000 A 
ATOM     16  C   UNL     1      -0.230  12.705  18.762  0.00  0.00    +0.000 A 
ATOM     17  C   UNL     1      -0.404  14.079  18.573  0.00  0.00    +0.000 A 
ATOM     18  C   UNL     1       0.578  14.952  19.005  0.00  0.00    +0.000 A 
ATOM     19  F   UNL     1       0.408  16.273  18.843  0.00  0.00    +0.000 F 
ATOM     20  C   UNL     1       1.734  14.476  19.611  0.00  0.00    +0.000 A 
ATOM     21  C   UNL     1       1.911  13.098  19.791  0.00  0.00    +0.000 A 
ENDBRANCH  10  15
BRANCH   9  22
ATOM     22  C   UNL     1       0.140  10.221  21.868  0.00  0.00    +0.000 C 
ATOM     23  N   UNL     1      -1.088  10.800  21.720  0.00  0.00    +0.000 N 
ATOM     24  O   UNL     1       0.582  10.006  22.991  0.00  0.00    +0.000 OA
ATOM     25  H   UNL     1      -1.579  10.805  20.839  0.00  0.00    +0.000 HD
ATOM     26  H   UNL     1      -1.614  10.970  22.567  0.00  0.00    +0.000 HD
ENDBRANCH   9  22
BRANCH   1  28
ATOM     27  C   UNL     1       4.500   3.729  16.636  0.00  0.00    +0.000 C 
ATOM     28  S   UNL     1       4.480   4.932  17.950  0.00  0.00    +0.000 S 
ATOM     29  O   UNL     1       4.877   4.247  19.164  0.00  0.00    +0.000 OA
ATOM     30  O   UNL     1       5.207   6.089  17.476  0.00  0.00    +0.000 OA
ENDBRANCH   1  28
TORSDOF 3
ENDMDL
MODEL 3
REMARK VINA RESULT:      -8.6      1.485      1.644
REMARK  Name = 
REMARK  4 active torsions:
REMARK  status: ('A' for Active; 'I' for Inactive)
REMARK    1  A    between atoms: C_1  and  S_2
REMARK    2  A    between atoms: S_2  and  N_5
REMARK    3  A    between atoms: C_13  and  C_14
REMARK    4  A    between atoms: C_17  and  C_18
REMARK                            x       y       z     vdW  Elec       q    Type
REMARK                         _______ _______ _______ _____ _____    ______ ____
ROOT
ATOM      1  N   UNL     1       4.077   4.950  17.454  0.00  0.00    +0.000 N 
ATOM      2  C   UNL     1       3.360   3.710  17.069  0.00  0.00    +0.000 C 
ATOM      3  C   UNL     1       3.311   2.641  18.163  0.00  0.00    +0.000 C 
ATOM      4  C   UNL     1       2.611   3.065  19.451  0.00  0.00    +0.000 C 
ATOM      5  C   UNL     1       3.351   4.186  20.168  0.00  0.00    +0.000 C 
ATOM      6  C   UNL     1       2.993   5.526  19.580  0.00  0.00    +0.000 A 
ATOM      7  C   UNL     1       2.193   6.389  20.347  0.00  0.00    +0.000 A 
ATOM      8  C   UNL     1       1.833   7.652  19.846  0.00  0.00    +0.000 A 
ATOM      9  C   UNL     1       1.020   8.733  20.311  0.00  0.00    +0.000 A 
ATOM     10  C   UNL     1       1.106   9.723  19.337  0.00  0.00    +0.000 A 
ATOM     11  O   UNL     1       1.858   9.265  18.279  0.00  0.00    +0.000 OA
ATOM     12  C   UNL     1       2.294   8.008  18.588  0.00  0.00    +0.000 A 
ATOM     13  C   UNL     1       3.068   7.170  17.772  0.00  0.00    +0.000 A 
ATOM     14  C   UNL     1       3.387   5.900  18.287  0.00  0.00    +0.000 A 
ENDROOT
BRANCH  10  15
ATOM     15  C   UNL     1       0.641  11.112  19.237  0.00  0.00    +0.000 A 
ATOM     16  C   UNL     1       1.485  12.178  19.601  0.00  0.00    +0.000 A 
ATOM     17  C   UNL     1       1.070  13.508  19.493  0.00  0.00    +0.000 A 
ATOM     18  C   UNL     1      -0.194  13.786  19.006  0.00  0.00    +0.000 A 
ATOM     19  F   UNL     1      -0.591  15.061  18.883  0.00  0.00    +0.000 F 
ATOM     20  C   UNL     1      -1.053  12.758  18.635  0.00  0.00    +0.000 A 
ATOM     21  C   UNL     1      -0.638  11.425  18.752  0.00  0.00    +0.000 A 
ENDBRANCH  10  15
BRANCH   9  22
ATOM     22  C   UNL     1       0.231   8.803  21.525  0.00  0.00    +0.000 C 
ATOM     23  N   UNL     1       0.704   9.636  22.498  0.00  0.00    +0.000 N 
ATOM     24  O   UNL     1      -0.813   8.185  21.706  0.00  0.00    +0.000 OA
ATOM     25  H   UNL     1       1.430  10.313  22.320  0.00  0.00    +0.000 HD
ATOM     26  H   UNL     1       0.122   9.755  23.316  0.00  0.00    +0.000 HD
ENDBRANCH   9  22
BRANCH   1  28
ATOM     27  C   UNL     1       6.102   3.982  15.983  0.00  0.00    +0.000 C 
ATOM     28  S   UNL     1       5.771   4.976  17.424  0.00  0.00    +0.000 S 
ATOM     29  O   UNL     1       6.273   4.246  18.572  0.00  0.00    +0.000 OA
ATOM     30  O   UNL     1       6.237   6.314  17.133  0.00  0.00    +0.000 OA
ENDBRANCH   1  28
TORSDOF 3
ENDMDL
MODEL 4
REMARK VINA RESULT:      -8.6      0.941      1.284
REMARK  Name = 
REMARK  4 active torsions:
REMARK  status: ('A' for Active; 'I' for Inactive)
REMARK    1  A    between atoms: C_1  and  S_2
REMARK    2  A    between atoms: S_2  and  N_5
REMARK    3  A    between atoms: C_13  and  C_14
REMARK    4  A    between atoms: C_17  and  C_18
REMARK                            x       y       z     vdW  Elec       q    Type
REMARK                         _______ _______ _______ _____ _____    ______ ____
ROOT
ATOM      1  N   UNL     1       3.082   4.548  18.051  0.00  0.00    +0.000 N 
ATOM      2  C   UNL     1       2.117   3.436  17.868  0.00  0.00    +0.000 C 
ATOM      3  C   UNL     1       1.934   2.547  19.100  0.00  0.00    +0.000 C 
ATOM      4  C   UNL     1       1.414   3.263  20.344  0.00  0.00    +0.000 C 
ATOM      5  C   UNL     1       2.401   4.296  20.870  0.00  0.00    +0.000 C 
ATOM      6  C   UNL     1       2.270   5.595  20.117  0.00  0.00    +0.000 A 
ATOM      7  C   UNL     1       1.703   6.690  20.789  0.00  0.00    +0.000 A 
ATOM      8  C   UNL     1       1.560   7.925  20.132  0.00  0.00    +0.000 A 
ATOM      9  C   UNL     1       1.002   9.197  20.475  0.00  0.00    +0.000 A 
ATOM     10  C   UNL     1       1.214  10.017  19.371  0.00  0.00    +0.000 A 
ATOM     11  O   UNL     1       1.793   9.288  18.358  0.00  0.00    +0.000 OA
ATOM     12  C   UNL     1       1.998   8.019  18.820  0.00  0.00    +0.000 A 
ATOM     13  C   UNL     1       2.542   6.946  18.099  0.00  0.00    +0.000 A 
ATOM     14  C   UNL     1       2.643   5.714  18.771  0.00  0.00    +0.000 A 
ENDROOT
BRANCH  10  15
ATOM     15  C   UNL     1       1.018  11.447  19.099  0.00  0.00    +0.000 A 
ATOM     16  C   UNL     1      -0.278  11.983  18.983  0.00  0.00    +0.000 A 
ATOM     17  C   UNL     1      -0.486  13.345  18.746  0.00  0.00    +0.000 A 
ATOM     18  C   UNL     1       0.604  14.188  18.635  0.00  0.00    +0.000 A 
ATOM     19  F   UNL     1       0.410  15.499  18.426  0.00  0.00    +0.000 F 
ATOM     20  C   UNL     1       1.898  13.692  18.747  0.00  0.00    +0.000 A 
ATOM     21  C   UNL     1       2.105  12.326  18.976  0.00  0.00    +0.000 A 
ENDBRANCH  10  15
BRANCH   9  22
ATOM     22  C   UNL     1       0.321   9.577  21.697  0.00  0.00    +0.000 C 
ATOM     23  N   UNL     1      -0.744   8.800  22.053  0.00  0.00    +0.000 N 
ATOM     24  O   UNL     1       0.656  10.517  22.410  0.00  0.00    +0.000 OA
ATOM     25  H   UNL     1      -0.927   7.906  21.622  0.00  0.00    +0.000 HD
ATOM     26  H   UNL     1      -1.177   9.005  22.943  0.00  0.00    +0.000 HD
ENDBRANCH   9  22
BRANCH   1  28
ATOM     27  C   UNL     1       5.405   5.886  17.920  0.00  0.00    +0.000 C 
ATOM     28  S   UNL     1       4.744   4.232  17.953  0.00  0.00    +0.000 S 
ATOM     29  O   UNL     1       5.033   3.630  16.666  0.00  0.00    +0.000 OA
ATOM     30  O   UNL     1       5.200   3.617  19.180  0.00  0.00    +0.000 OA
ENDBRANCH   1  28
TORSDOF 3
ENDMDL
MODEL 5
REMARK VINA RESULT:      -8.5      1.151      1.242
REMARK  Name = 
REMARK  4 active torsions:
REMARK  status: ('A' for Active; 'I' for Inactive)
REMARK    1  A    between atoms: C_1  and  S_2
REMARK    2  A    between atoms: S_2  and  N_5
REMARK    3  A    between atoms: C_13  and  C_14
REMARK    4  A    between atoms: C_17  and  C_18
REMARK                            x       y       z     vdW  Elec       q    Type
REMARK                         _______ _______ _______ _____ _____    ______ ____
ROOT
ATOM      1  N   UNL     1       3.593   4.671  17.527  0.00  0.00    +0.000 N 
ATOM      2  C   UNL     1       2.745   3.471  17.323  0.00  0.00    +0.000 C 
ATOM      3  C   UNL     1       2.713   2.509  18.512  0.00  0.00    +0.000 C 
ATOM      4  C   UNL     1       2.174   3.103  19.811  0.00  0.00    +0.000 C 
ATOM      5  C   UNL     1       3.067   4.210  20.353  0.00  0.00    +0.000 C 
ATOM      6  C   UNL     1       2.765   5.522  19.675  0.00  0.00    +0.000 A 
ATOM      7  C   UNL     1       2.114   6.515  20.425  0.00  0.00    +0.000 A 
ATOM      8  C   UNL     1       1.812   7.757  19.841  0.00  0.00    +0.000 A 
ATOM      9  C   UNL     1       1.137   8.943  20.271  0.00  0.00    +0.000 A 
ATOM     10  C   UNL     1       1.211   9.834  19.205  0.00  0.00    +0.000 A 
ATOM     11  O   UNL     1       1.820   9.222  18.133  0.00  0.00    +0.000 OA
ATOM     12  C   UNL     1       2.179   7.962  18.520  0.00  0.00    +0.000 A 
ATOM     13  C   UNL     1       2.802   6.991  17.722  0.00  0.00    +0.000 A 
ATOM     14  C   UNL     1       3.064   5.746  18.324  0.00  0.00    +0.000 A 
ENDROOT
BRANCH  10  15
ATOM     15  C   UNL     1       0.852  11.245  19.017  0.00  0.00    +0.000 A 
ATOM     16  C   UNL     1       1.852  12.219  18.831  0.00  0.00    +0.000 A 
ATOM     17  C   UNL     1       1.531  13.564  18.628  0.00  0.00    +0.000 A 
ATOM     18  C   UNL     1       0.203  13.947  18.595  0.00  0.00    +0.000 A 
ATOM     19  F   UNL     1      -0.111  15.234  18.382  0.00  0.00    +0.000 F 
ATOM     20  C   UNL     1      -0.809  13.011  18.772  0.00  0.00    +0.000 A 
ATOM     21  C   UNL     1      -0.486  11.665  18.984  0.00  0.00    +0.000 A 
ENDBRANCH  10  15
BRANCH   9  22
ATOM     22  C   UNL     1       0.474   9.187  21.537  0.00  0.00    +0.000 C 
ATOM     23  N   UNL     1      -0.653   8.452  21.772  0.00  0.00    +0.000 N 
ATOM     24  O   UNL     1       0.873   9.979  22.384  0.00  0.00    +0.000 OA
ATOM     25  H   UNL     1      -0.900   7.651  21.211  0.00  0.00    +0.000 HD
ATOM     26  H   UNL     1      -1.080   8.554  22.683  0.00  0.00    +0.000 HD
ENDBRANCH   9  22
BRANCH   1  28
ATOM     27  C   UNL     1       5.704   6.225  16.950  0.00  0.00    +0.000 C 
ATOM     28  S   UNL     1       5.273   4.543  17.348  0.00  0.00    +0.000 S 
ATOM     29  O   UNL     1       5.562   3.739  16.177  0.00  0.00    +0.000 OA
ATOM     30  O   UNL     1       5.881   4.241  18.625  0.00  0.00    +0.000 OA
ENDBRANCH   1  28
TORSDOF 3
ENDMDL
MODEL 6
REMARK VINA RESULT:      -8.5      1.441      1.815
REMARK  Name = 
REMARK  4 active torsions:
REMARK  status: ('A' for Active; 'I' for Inactive)
REMARK    1  A    between atoms: C_1  and  S_2
REMARK    2  A    between atoms: S_2  and  N_5
REMARK    3  A    between atoms: C_13  and  C_14
REMARK    4  A    between atoms: C_17  and  C_18
REMARK                            x       y       z     vdW  Elec       q    Type
REMARK                         _______ _______ _______ _____ _____    ______ ____
ROOT
ATOM      1  N   UNL     1       4.115   4.716  17.472  0.00  0.00    +0.000 N 
ATOM      2  C   UNL     1       3.362   3.478  17.154  0.00  0.00    +0.000 C 
ATOM      3  C   UNL     1       3.267   2.480  18.310  0.00  0.00    +0.000 C 
ATOM      4  C   UNL     1       2.568   3.004  19.562  0.00  0.00    +0.000 C 
ATOM      5  C   UNL     1       3.337   4.141  20.218  0.00  0.00    +0.000 C 
ATOM      6  C   UNL     1       3.030   5.455  19.547  0.00  0.00    +0.000 A 
ATOM      7  C   UNL     1       2.251   6.388  20.251  0.00  0.00    +0.000 A 
ATOM      8  C   UNL     1       1.938   7.628  19.669  0.00  0.00    +0.000 A 
ATOM      9  C   UNL     1       1.156   8.762  20.058  0.00  0.00    +0.000 A 
ATOM     10  C   UNL     1       1.285   9.687  19.028  0.00  0.00    +0.000 A 
ATOM     11  O   UNL     1       2.032   9.142  18.008  0.00  0.00    +0.000 OA
ATOM     12  C   UNL     1       2.423   7.893  18.398  0.00  0.00    +0.000 A 
ATOM     13  C   UNL     1       3.177   6.982  17.644  0.00  0.00    +0.000 A 
ATOM     14  C   UNL     1       3.449   5.736  18.238  0.00  0.00    +0.000 A 
ENDROOT
BRANCH  10  15
ATOM     15  C   UNL     1       0.867  11.082  18.839  0.00  0.00    +0.000 A 
ATOM     16  C   UNL     1      -0.494  11.407  18.683  0.00  0.00    +0.000 A 
ATOM     17  C   UNL     1      -0.915  12.730  18.523  0.00  0.00    +0.000 A 
ATOM     18  C   UNL     1       0.023  13.746  18.532  0.00  0.00    +0.000 A 
ATOM     19  F   UNL     1      -0.378  15.019  18.398  0.00  0.00    +0.000 F 
ATOM     20  C   UNL     1       1.374  13.461  18.687  0.00  0.00    +0.000 A 
ATOM     21  C   UNL     1       1.796  12.134  18.838  0.00  0.00    +0.000 A 
ENDBRANCH  10  15
BRANCH   9  22
ATOM     22  C   UNL     1       0.357   8.930  21.256  0.00  0.00    +0.000 C 
ATOM     23  N   UNL     1       0.778   9.898  22.123  0.00  0.00    +0.000 N 
ATOM     24  O   UNL     1      -0.652   8.282  21.509  0.00  0.00    +0.000 OA
ATOM     25  H   UNL     1       1.466  10.589  21.866  0.00  0.00    +0.000 HD
ATOM     26  H   UNL     1       0.185  10.080  22.922  0.00  0.00    +0.000 HD
ENDBRANCH   9  22
BRANCH   1  28
ATOM     27  C   UNL     1       6.181   6.409  17.208  0.00  0.00    +0.000 C 
ATOM     28  S   UNL     1       5.810   4.685  17.462  0.00  0.00    +0.000 S 
ATOM     29  O   UNL     1       6.260   3.972  16.283  0.00  0.00    +0.000 OA
ATOM     30  O   UNL     1       6.302   4.335  18.776  0.00  0.00    +0.000 OA
ENDBRANCH   1  28
TORSDOF 3
ENDMDL
MODEL 7
REMARK VINA RESULT:      -8.4      2.759      4.041
REMARK  Name = 
REMARK  4 active torsions:
REMARK  status: ('A' for Active; 'I' for Inactive)
REMARK    1  A    between atoms: C_1  and  S_2
REMARK    2  A    between atoms: S_2  and  N_5
REMARK    3  A    between atoms: C_13  and  C_14
REMARK    4  A    between atoms: C_17  and  C_18
REMARK                            x       y       z     vdW  Elec       q    Type
REMARK                         _______ _______ _______ _____ _____    ______ ____
ROOT
ATOM      1  N   UNL     1       4.371   4.409  19.274  0.00  0.00    +0.000 N 
ATOM      2  C   UNL     1       5.843   4.545  19.142  0.00  0.00    +0.000 C 
ATOM      3  C   UNL     1       6.341   4.646  17.698  0.00  0.00    +0.000 C 
ATOM      4  C   UNL     1       5.806   5.839  16.910  0.00  0.00    +0.000 C 
ATOM      5  C   UNL     1       4.300   5.760  16.697  0.00  0.00    +0.000 C 
ATOM      6  C   UNL     1       3.560   6.276  17.903  0.00  0.00    +0.000 A 
ATOM      7  C   UNL     1       2.897   7.509  17.790  0.00  0.00    +0.000 A 
ATOM      8  C   UNL     1       2.189   8.034  18.886  0.00  0.00    +0.000 A 
ATOM      9  C   UNL     1       1.463   9.240  19.140  0.00  0.00    +0.000 A 
ATOM     10  C   UNL     1       0.969   9.123  20.436  0.00  0.00    +0.000 A 
ATOM     11  O   UNL     1       1.425   7.954  21.000  0.00  0.00    +0.000 OA
ATOM     12  C   UNL     1       2.168   7.297  20.060  0.00  0.00    +0.000 A 
ATOM     13  C   UNL     1       2.839   6.078  20.231  0.00  0.00    +0.000 A 
ATOM     14  C   UNL     1       3.566   5.592  19.127  0.00  0.00    +0.000 A 
ENDROOT
BRANCH  10  15
ATOM     15  C   UNL     1       0.052   9.917  21.263  0.00  0.00    +0.000 A 
ATOM     16  C   UNL     1      -0.251   9.520  22.579  0.00  0.00    +0.000 A 
ATOM     17  C   UNL     1      -1.104  10.272  23.391  0.00  0.00    +0.000 A 
ATOM     18  C   UNL     1      -1.653  11.441  22.897  0.00  0.00    +0.000 A 
ATOM     19  F   UNL     1      -2.458  12.178  23.677  0.00  0.00    +0.000 F 
ATOM     20  C   UNL     1      -1.373  11.865  21.603  0.00  0.00    +0.000 A 
ATOM     21  C   UNL     1      -0.525  11.105  20.788  0.00  0.00    +0.000 A 
ENDBRANCH  10  15
BRANCH   9  22
ATOM     22  C   UNL     1       1.286  10.381  18.264  0.00  0.00    +0.000 C 
ATOM     23  N   UNL     1       0.075  10.472  17.641  0.00  0.00    +0.000 N 
ATOM     24  O   UNL     1       2.135  11.246  18.077  0.00  0.00    +0.000 OA
ATOM     25  H   UNL     1      -0.717   9.913  17.918  0.00  0.00    +0.000 HD
ATOM     26  H   UNL     1      -0.091  11.304  17.090  0.00  0.00    +0.000 HD
ENDBRANCH   9  22
BRANCH   1  28
ATOM     27  C   UNL     1       4.583   1.877  20.140  0.00  0.00    +0.000 C 
ATOM     28  S   UNL     1       3.649   2.897  19.017  0.00  0.00    +0.000 S 
ATOM     29  O   UNL     1       3.959   2.450  17.674  0.00  0.00    +0.000 OA
ATOM     30  O   UNL     1       2.285   2.917  19.499  0.00  0.00    +0.000 OA
ENDBRANCH   1  28
TORSDOF 3
ENDMDL
MODEL 8
REMARK VINA RESULT:      -8.3      2.555      3.803
REMARK  Name = 
REMARK  4 active torsions:
REMARK  status: ('A' for Active; 'I' for Inactive)
REMARK    1  A    between atoms: C_1  and  S_2
REMARK    2  A    between atoms: S_2  and  N_5
REMARK    3  A    between atoms: C_13  and  C_14
REMARK    4  A    between atoms: C_17  and  C_18
REMARK                            x       y       z     vdW  Elec       q    Type
REMARK                         _______ _______ _______ _____ _____    ______ ____
ROOT
ATOM      1  N   UNL     1       3.319   4.260  19.825  0.00  0.00    +0.000 N 
ATOM      2  C   UNL     1       4.786   4.125  19.647  0.00  0.00    +0.000 C 
ATOM      3  C   UNL     1       5.242   4.051  18.189  0.00  0.00    +0.000 C 
ATOM      4  C   UNL     1       4.897   5.272  17.340  0.00  0.00    +0.000 C 
ATOM      5  C   UNL     1       3.395   5.449  17.169  0.00  0.00    +0.000 C 
ATOM      6  C   UNL     1       2.800   6.159  18.358  0.00  0.00    +0.000 A 
ATOM      7  C   UNL     1       2.361   7.481  18.184  0.00  0.00    +0.000 A 
ATOM      8  C   UNL     1       1.796   8.186  19.261  0.00  0.00    +0.000 A 
ATOM      9  C   UNL     1       1.303   9.515  19.456  0.00  0.00    +0.000 A 
ATOM     10  C   UNL     1       0.843   9.564  20.768  0.00  0.00    +0.000 A 
ATOM     11  O   UNL     1       1.106   8.367  21.394  0.00  0.00    +0.000 OA
ATOM     12  C   UNL     1       1.688   7.535  20.480  0.00  0.00    +0.000 A 
ATOM     13  C   UNL     1       2.140   6.227  20.711  0.00  0.00    +0.000 A 
ATOM     14  C   UNL     1       2.730   5.557  19.623  0.00  0.00    +0.000 A 
ENDROOT
BRANCH  10  15
ATOM     15  C   UNL     1       0.110  10.555  21.565  0.00  0.00    +0.000 A 
ATOM     16  C   UNL     1       0.290  11.932  21.338  0.00  0.00    +0.000 A 
ATOM     17  C   UNL     1      -0.413  12.892  22.070  0.00  0.00    +0.000 A 
ATOM     18  C   UNL     1      -1.318  12.481  23.032  0.00  0.00    +0.000 A 
ATOM     19  F   UNL     1      -2.010  13.397  23.726  0.00  0.00    +0.000 F 
ATOM     20  C   UNL     1      -1.523  11.129  23.282  0.00  0.00    +0.000 A 
ATOM     21  C   UNL     1      -0.810  10.169  22.552  0.00  0.00    +0.000 A 
ENDBRANCH  10  15
BRANCH   9  22
ATOM     22  C   UNL     1       1.298  10.616  18.513  0.00  0.00    +0.000 C 
ATOM     23  N   UNL     1       0.096  10.897  17.929  0.00  0.00    +0.000 N 
ATOM     24  O   UNL     1       2.283  11.294  18.239  0.00  0.00    +0.000 OA
ATOM     25  H   UNL     1      -0.771  10.513  18.272  0.00  0.00    +0.000 HD
ATOM     26  H   UNL     1       0.061  11.712  17.331  0.00  0.00    +0.000 HD
ENDBRANCH   9  22
BRANCH   1  28
ATOM     27  C   UNL     1       1.938   2.574  21.392  0.00  0.00    +0.000 C 
ATOM     28  S   UNL     1       2.333   2.889  19.683  0.00  0.00    +0.000 S 
ATOM     29  O   UNL     1       3.138   1.776  19.219  0.00  0.00    +0.000 OA
ATOM     30  O   UNL     1       1.097   3.240  19.020  0.00  0.00    +0.000 OA
ENDBRANCH   1  28
TORSDOF 3
ENDMDL
MODEL 9
REMARK VINA RESULT:      -8.2      2.707      4.096
REMARK  Name = 
REMARK  4 active torsions:
REMARK  status: ('A' for Active; 'I' for Inactive)
REMARK    1  A    between atoms: C_1  and  S_2
REMARK    2  A    between atoms: S_2  and  N_5
REMARK    3  A    between atoms: C_13  and  C_14
REMARK    4  A    between atoms: C_17  and  C_18
REMARK                            x       y       z     vdW  Elec       q    Type
REMARK                         _______ _______ _______ _____ _____    ______ ____
ROOT
ATOM      1  N   UNL     1       4.348   4.290  19.308  0.00  0.00    +0.000 N 
ATOM      2  C   UNL     1       5.818   4.413  19.143  0.00  0.00    +0.000 C 
ATOM      3  C   UNL     1       6.287   4.490  17.688  0.00  0.00    +0.000 C 
ATOM      4  C   UNL     1       5.744   5.676  16.895  0.00  0.00    +0.000 C 
ATOM      5  C   UNL     1       4.234   5.606  16.714  0.00  0.00    +0.000 C 
ATOM      6  C   UNL     1       3.523   6.145  17.928  0.00  0.00    +0.000 A 
ATOM      7  C   UNL     1       2.867   7.382  17.812  0.00  0.00    +0.000 A 
ATOM      8  C   UNL     1       2.187   7.927  18.915  0.00  0.00    +0.000 A 
ATOM      9  C   UNL     1       1.476   9.143  19.168  0.00  0.00    +0.000 A 
ATOM     10  C   UNL     1       1.009   9.048  20.475  0.00  0.00    +0.000 A 
ATOM     11  O   UNL     1       1.468   7.883  21.046  0.00  0.00    +0.000 OA
ATOM     12  C   UNL     1       2.185   7.207  20.100  0.00  0.00    +0.000 A 
ATOM     13  C   UNL     1       2.850   5.985  20.273  0.00  0.00    +0.000 A 
ATOM     14  C   UNL     1       3.550   5.478  19.162  0.00  0.00    +0.000 A 
ENDROOT
BRANCH  10  15
ATOM     15  C   UNL     1       0.116   9.861  21.310  0.00  0.00    +0.000 A 
ATOM     16  C   UNL     1      -0.482  11.027  20.795  0.00  0.00    +0.000 A 
ATOM     17  C   UNL     1      -1.351  11.803  21.566  0.00  0.00    +0.000 A 
ATOM     18  C   UNL     1      -1.645  11.410  22.859  0.00  0.00    +0.000 A 
ATOM     19  F   UNL     1      -2.493  12.141  23.597  0.00  0.00    +0.000 F 
ATOM     20  C   UNL     1      -1.075  10.263  23.398  0.00  0.00    +0.000 A 
ATOM     21  C   UNL     1      -0.196   9.492  22.628  0.00  0.00    +0.000 A 
ENDBRANCH  10  15
BRANCH   9  22
ATOM     22  C   UNL     1       1.290  10.273  18.279  0.00  0.00    +0.000 C 
ATOM     23  N   UNL     1       0.082  10.340  17.645  0.00  0.00    +0.000 N 
ATOM     24  O   UNL     1       2.127  11.149  18.091  0.00  0.00    +0.000 OA
ATOM     25  H   UNL     1      -0.704   9.772  17.921  0.00  0.00    +0.000 HD
ATOM     26  H   UNL     1      -0.091  11.164  17.085  0.00  0.00    +0.000 HD
ENDBRANCH   9  22
BRANCH   1  28
ATOM     27  C   UNL     1       2.210   2.924  20.182  0.00  0.00    +0.000 C 
ATOM     28  S   UNL     1       3.609   2.782  19.088  0.00  0.00    +0.000 S 
ATOM     29  O   UNL     1       4.472   1.751  19.630  0.00  0.00    +0.000 OA
ATOM     30  O   UNL     1       3.087   2.683  17.743  0.00  0.00    +0.000 OA
ENDBRANCH   1  28
TORSDOF 3
ENDMDL
