MODEL 1
REMARK VINA RESULT:      -7.7      0.000      0.000
REMARK  Name = 
REMARK  10 active torsions:
REMARK  status: ('A' for Active; 'I' for Inactive)
REMARK    1  A    between atoms: C_1  and  C_2
REMARK    2  A    between atoms: C_2  and  C_3
REMARK    3  A    between atoms: C_2  and  N_13
REMARK    4  A    between atoms: C_3  and  N_4
REMARK    5  A    between atoms: N_13  and  C_14
REMARK    6  A    between atoms: C_14  and  C_15
REMARK    7  A    between atoms: C_15  and  O_16
REMARK    8  A    between atoms: C_15  and  C_17
REMARK    9  A    between atoms: C_20  and  O_21
REMARK   10  A    between atoms: C_22  and  C_23
REMARK                            x       y       z     vdW  Elec       q    Type
REMARK                         _______ _______ _______ _____ _____    ______ ____
ROOT
ATOM      1  C   UNL     1       4.394   3.119  19.558  0.00  0.00    +0.000 C 
ENDROOT
BRANCH   1   2
ATOM      2  C   UNL     1       4.950   3.901  18.382  0.00  0.00    +0.000 A 
ATOM      3  C   UNL     1       4.523   3.602  17.081  0.00  0.00    +0.000 A 
ATOM      4  C   UNL     1       5.045   4.290  15.985  0.00  0.00    +0.000 A 
ATOM      5  C   UNL     1       6.003   5.293  16.173  0.00  0.00    +0.000 A 
ATOM      6  C   UNL     1       6.445   5.619  17.461  0.00  0.00    +0.000 A 
ATOM      7  C   UNL     1       5.911   4.915  18.555  0.00  0.00    +0.000 A 
BRANCH   6   8
ATOM      8  C   UNL     1       7.458   6.677  17.763  0.00  0.00    +0.000 C 
ATOM      9  N   UNL     1       8.136   6.590  18.943  0.00  0.00    +0.000 N 
ATOM     10  O   UNL     1       7.682   7.596  16.983  0.00  0.00    +0.000 OA
ATOM     11  H   UNL     1       7.950   5.831  19.591  0.00  0.00    +0.000 HD
ATOM     12  H   UNL     1       8.831   7.286  19.167  0.00  0.00    +0.000 HD
ENDBRANCH   6   8
BRANCH   5  13
ATOM     13  O   UNL     1       6.496   5.937  15.069  0.00  0.00    +0.000 OA
ATOM     14  H   UNL     1       5.750   6.198  14.498  0.00  0.00    +0.000 HD
ENDBRANCH   5  13
ENDBRANCH   1   2
BRANCH   1  15
ATOM     15  O   UNL     1       5.283   2.038  19.857  0.00  0.00    +0.000 OA
ATOM     16  H   UNL     1       5.851   1.905  19.080  0.00  0.00    +0.000 HD
ENDBRANCH   1  15
BRANCH   1  17
ATOM     17  C   UNL     1       2.970   2.596  19.262  0.00  0.00    +0.000 C 
BRANCH  17  18
ATOM     18  N   UNL     1       2.017   3.683  19.003  0.00  0.00    +0.000 NA
ATOM     19  H   UNL     1       2.477   4.444  18.505  0.00  0.00    +0.000 HD
BRANCH  18  21
ATOM     20  C   UNL     1       1.197   3.021  21.245  0.00  0.00    +0.000 C 
ATOM     21  C   UNL     1       1.355   4.170  20.232  0.00  0.00    +0.000 C 
BRANCH  21  22
ATOM     22  C   UNL     1       2.121   5.333  20.929  0.00  0.00    +0.000 C 
BRANCH  22  23
ATOM     23  N   UNL     1       1.639   6.668  20.622  0.00  0.00    +0.000 N 
ATOM     24  C   UNL     1       0.910   7.465  21.607  0.00  0.00    +0.000 C 
ATOM     25  C   UNL     1       0.439   8.744  20.892  0.00  0.00    +0.000 C 
ATOM     26  C   UNL     1       1.308   8.738  19.676  0.00  0.00    +0.000 A 
ATOM     27  C   UNL     1       1.427   9.735  18.719  0.00  0.00    +0.000 A 
ATOM     28  C   UNL     1       2.257   9.497  17.629  0.00  0.00    +0.000 A 
ATOM     29  C   UNL     1       2.945   8.280  17.518  0.00  0.00    +0.000 A 
ATOM     30  C   UNL     1       2.800   7.278  18.494  0.00  0.00    +0.000 A 
ATOM     31  C   UNL     1       1.972   7.507  19.579  0.00  0.00    +0.000 A 
ENDBRANCH  22  23
ENDBRANCH  21  22
ENDBRANCH  18  21
ENDBRANCH  17  18
ENDBRANCH   1  17
TORSDOF 9
ENDMDL
MODEL 2
REMARK VINA RESULT:      -7.4      1.548      2.541
REMARK  Name = 
REMARK  10 active torsions:
REMARK  status: ('A' for Active; 'I' for Inactive)
REMARK    1  A    between atoms: C_1  and  C_2
REMARK    2  A    between atoms: C_2  and  C_3
REMARK    3  A    between atoms: C_2  and  N_13
REMARK    4  A    between atoms: C_3  and  N_4
REMARK    5  A    between atoms: N_13  and  C_14
REMARK    6  A    between atoms: C_14  and  C_15
REMARK    7  A    between atoms: C_15  and  O_16
REMARK    8  A    between atoms: C_15  and  C_17
REMARK    9  A    between atoms: C_20  and  O_21
REMARK   10  A    between atoms: C_22  and  C_23
REMARK                            x       y       z     vdW  Elec       q    Type
REMARK                         _______ _______ _______ _____ _____    ______ ____
ROOT
ATOM      1  C   UNL     1       3.702   2.691  18.441  0.00  0.00    +0.000 C 
ENDROOT
BRANCH   1   2
ATOM      2  C   UNL     1       4.719   3.673  17.889  0.00  0.00    +0.000 A 
ATOM      3  C   UNL     1       4.763   3.930  16.513  0.00  0.00    +0.000 A 
ATOM      4  C   UNL     1       5.710   4.807  15.982  0.00  0.00    +0.000 A 
ATOM      5  C   UNL     1       6.628   5.445  16.823  0.00  0.00    +0.000 A 
ATOM      6  C   UNL     1       6.605   5.214  18.204  0.00  0.00    +0.000 A 
ATOM      7  C   UNL     1       5.646   4.325  18.723  0.00  0.00    +0.000 A 
BRANCH   6   8
ATOM      8  C   UNL     1       7.538   5.852  19.183  0.00  0.00    +0.000 C 
ATOM      9  N   UNL     1       8.189   6.986  18.796  0.00  0.00    +0.000 N 
ATOM     10  O   UNL     1       7.720   5.381  20.301  0.00  0.00    +0.000 OA
ATOM     11  H   UNL     1       8.041   7.376  17.870  0.00  0.00    +0.000 HD
ATOM     12  H   UNL     1       8.817   7.441  19.440  0.00  0.00    +0.000 HD
ENDBRANCH   6   8
BRANCH   5  13
ATOM     13  O   UNL     1       7.547   6.292  16.261  0.00  0.00    +0.000 OA
ATOM     14  H   UNL     1       8.311   5.769  15.956  0.00  0.00    +0.000 HD
ENDBRANCH   5  13
ENDBRANCH   1   2
BRANCH   1  15
ATOM     15  O   UNL     1       3.544   1.615  17.510  0.00  0.00    +0.000 OA
ATOM     16  H   UNL     1       3.758   0.792  17.978  0.00  0.00    +0.000 HD
ENDBRANCH   1  15
BRANCH   1  17
ATOM     17  C   UNL     1       2.347   3.381  18.720  0.00  0.00    +0.000 C 
BRANCH  17  18
ATOM     18  N   UNL     1       2.342   4.791  18.309  0.00  0.00    +0.000 NA
ATOM     19  H   UNL     1       3.241   5.041  17.897  0.00  0.00    +0.000 HD
BRANCH  18  21
ATOM     20  C   UNL     1       2.223   5.030  20.771  0.00  0.00    +0.000 C 
ATOM     21  C   UNL     1       1.984   5.709  19.410  0.00  0.00    +0.000 C 
BRANCH  21  22
ATOM     22  C   UNL     1       2.781   7.047  19.386  0.00  0.00    +0.000 C 
BRANCH  22  23
ATOM     23  N   UNL     1       1.972   8.253  19.338  0.00  0.00    +0.000 N 
ATOM     24  C   UNL     1       1.589   8.868  18.069  0.00  0.00    +0.000 C 
ATOM     25  C   UNL     1       0.871  10.188  18.408  0.00  0.00    +0.000 C 
ATOM     26  C   UNL     1       0.550   9.985  19.853  0.00  0.00    +0.000 A 
ATOM     27  C   UNL     1      -0.225  10.797  20.667  0.00  0.00    +0.000 A 
ATOM     28  C   UNL     1      -0.347  10.451  22.008  0.00  0.00    +0.000 A 
ATOM     29  C   UNL     1       0.302   9.311  22.505  0.00  0.00    +0.000 A 
ATOM     30  C   UNL     1       1.093   8.508  21.664  0.00  0.00    +0.000 A 
ATOM     31  C   UNL     1       1.223   8.851  20.329  0.00  0.00    +0.000 A 
ENDBRANCH  22  23
ENDBRANCH  21  22
ENDBRANCH  18  21
ENDBRANCH  17  18
ENDBRANCH   1  17
TORSDOF 9
ENDMDL
MODEL 3
REMARK VINA RESULT:      -7.3      1.566      2.057
REMARK  Name = 
REMARK  10 active torsions:
REMARK  status: ('A' for Active; 'I' for Inactive)
REMARK    1  A    between atoms: C_1  and  C_2
REMARK    2  A    between atoms: C_2  and  C_3
REMARK    3  A    between atoms: C_2  and  N_13
REMARK    4  A    between atoms: C_3  and  N_4
REMARK    5  A    between atoms: N_13  and  C_14
REMARK    6  A    between atoms: C_14  and  C_15
REMARK    7  A    between atoms: C_15  and  O_16
REMARK    8  A    between atoms: C_15  and  C_17
REMARK    9  A    between atoms: C_20  and  O_21
REMARK   10  A    between atoms: C_22  and  C_23
REMARK                            x       y       z     vdW  Elec       q    Type
REMARK                         _______ _______ _______ _____ _____    ______ ____
ROOT
ATOM      1  C   UNL     1       3.788   2.708  18.334  0.00  0.00    +0.000 C 
ENDROOT
BRANCH   1   2
ATOM      2  C   UNL     1       4.807   3.728  17.862  0.00  0.00    +0.000 A 
ATOM      3  C   UNL     1       5.244   4.733  18.735  0.00  0.00    +0.000 A 
ATOM      4  C   UNL     1       6.158   5.698  18.309  0.00  0.00    +0.000 A 
ATOM      5  C   UNL     1       6.654   5.670  17.001  0.00  0.00    +0.000 A 
ATOM      6  C   UNL     1       6.242   4.675  16.107  0.00  0.00    +0.000 A 
ATOM      7  C   UNL     1       5.318   3.711  16.550  0.00  0.00    +0.000 A 
BRANCH   6   8
ATOM      8  C   UNL     1       6.719   4.559  14.695  0.00  0.00    +0.000 C 
ATOM      9  N   UNL     1       6.219   3.541  13.936  0.00  0.00    +0.000 N 
ATOM     10  O   UNL     1       7.530   5.348  14.221  0.00  0.00    +0.000 OA
ATOM     11  H   UNL     1       5.549   2.886  14.327  0.00  0.00    +0.000 HD
ATOM     12  H   UNL     1       6.518   3.446  12.977  0.00  0.00    +0.000 HD
ENDBRANCH   6   8
BRANCH   5  13
ATOM     13  O   UNL     1       7.543   6.641  16.622  0.00  0.00    +0.000 OA
ATOM     14  H   UNL     1       8.082   6.303  15.884  0.00  0.00    +0.000 HD
ENDBRANCH   5  13
ENDBRANCH   1   2
BRANCH   1  15
ATOM     15  O   UNL     1       4.095   1.439  17.746  0.00  0.00    +0.000 OA
ATOM     16  H   UNL     1       4.520   0.897  18.430  0.00  0.00    +0.000 HD
ENDBRANCH   1  15
BRANCH   1  17
ATOM     17  C   UNL     1       2.348   3.145  17.980  0.00  0.00    +0.000 C 
BRANCH  17  18
ATOM     18  N   UNL     1       2.086   4.546  18.336  0.00  0.00    +0.000 NA
ATOM     19  H   UNL     1       2.958   5.072  18.363  0.00  0.00    +0.000 HD
BRANCH  18  21
ATOM     20  C   UNL     1       1.221   3.320  20.308  0.00  0.00    +0.000 C 
ATOM     21  C   UNL     1       1.337   4.684  19.603  0.00  0.00    +0.000 C 
BRANCH  21  22
ATOM     22  C   UNL     1       1.984   5.693  20.598  0.00  0.00    +0.000 C 
BRANCH  22  23
ATOM     23  N   UNL     1       1.487   7.056  20.514  0.00  0.00    +0.000 N 
ATOM     24  C   UNL     1       0.851   7.710  21.656  0.00  0.00    +0.000 C 
ATOM     25  C   UNL     1       0.329   9.071  21.161  0.00  0.00    +0.000 C 
ATOM     26  C   UNL     1       1.092   9.232  19.886  0.00  0.00    +0.000 A 
ATOM     27  C   UNL     1       1.136  10.348  19.064  0.00  0.00    +0.000 A 
ATOM     28  C   UNL     1       1.868  10.262  17.886  0.00  0.00    +0.000 A 
ATOM     29  C   UNL     1       2.535   9.074  17.554  0.00  0.00    +0.000 A 
ATOM     30  C   UNL     1       2.468   7.950  18.396  0.00  0.00    +0.000 A 
ATOM     31  C   UNL     1       1.736   8.028  19.568  0.00  0.00    +0.000 A 
ENDBRANCH  22  23
ENDBRANCH  21  22
ENDBRANCH  18  21
ENDBRANCH  17  18
ENDBRANCH   1  17
TORSDOF 9
ENDMDL
MODEL 4
REMARK VINA RESULT:      -7.2      1.439      2.258
REMARK  Name = 
REMARK  10 active torsions:
REMARK  status: ('A' for Active; 'I' for Inactive)
REMARK    1  A    between atoms: C_1  and  C_2
REMARK    2  A    between atoms: C_2  and  C_3
REMARK    3  A    between atoms: C_2  and  N_13
REMARK    4  A    between atoms: C_3  and  N_4
REMARK    5  A    between atoms: N_13  and  C_14
REMARK    6  A    between atoms: C_14  and  C_15
REMARK    7  A    between atoms: C_15  and  O_16
REMARK    8  A    between atoms: C_15  and  C_17
REMARK    9  A    between atoms: C_20  and  O_21
REMARK   10  A    between atoms: C_22  and  C_23
REMARK                            x       y       z     vdW  Elec       q    Type
REMARK                         _______ _______ _______ _____ _____    ______ ____
ROOT
ATOM      1  C   UNL     1       3.479   2.919  17.527  0.00  0.00    +0.000 C 
ENDROOT
BRANCH   1   2
ATOM      2  C   UNL     1       4.576   3.923  17.222  0.00  0.00    +0.000 A 
ATOM      3  C   UNL     1       4.750   4.388  15.912  0.00  0.00    +0.000 A 
ATOM      4  C   UNL     1       5.772   5.289  15.606  0.00  0.00    +0.000 A 
ATOM      5  C   UNL     1       6.635   5.742  16.609  0.00  0.00    +0.000 A 
ATOM      6  C   UNL     1       6.482   5.301  17.930  0.00  0.00    +0.000 A 
ATOM      7  C   UNL     1       5.449   4.392  18.221  0.00  0.00    +0.000 A 
BRANCH   6   8
ATOM      8  C   UNL     1       7.348   5.733  19.070  0.00  0.00    +0.000 C 
ATOM      9  N   UNL     1       8.200   6.777  18.862  0.00  0.00    +0.000 N 
ATOM     10  O   UNL     1       7.301   5.175  20.161  0.00  0.00    +0.000 OA
ATOM     11  H   UNL     1       8.241   7.238  17.959  0.00  0.00    +0.000 HD
ATOM     12  H   UNL     1       8.789   7.093  19.618  0.00  0.00    +0.000 HD
ENDBRANCH   6   8
BRANCH   5  13
ATOM     13  O   UNL     1       7.629   6.619  16.265  0.00  0.00    +0.000 OA
ATOM     14  H   UNL     1       7.624   7.364  16.894  0.00  0.00    +0.000 HD
ENDBRANCH   5  13
ENDBRANCH   1   2
BRANCH   1  15
ATOM     15  O   UNL     1       2.215   3.491  17.170  0.00  0.00    +0.000 OA
ATOM     16  H   UNL     1       2.281   3.790  16.249  0.00  0.00    +0.000 HD
ENDBRANCH   1  15
BRANCH   1  17
ATOM     17  C   UNL     1       3.495   2.503  19.015  0.00  0.00    +0.000 C 
BRANCH  17  18
ATOM     18  N   UNL     1       3.505   3.661  19.919  0.00  0.00    +0.000 NA
ATOM     19  H   UNL     1       3.763   3.369  20.862  0.00  0.00    +0.000 HD
BRANCH  18  21
ATOM     20  C   UNL     1       1.128   3.571  20.612  0.00  0.00    +0.000 C 
ATOM     21  C   UNL     1       2.225   4.400  19.918  0.00  0.00    +0.000 C 
BRANCH  21  22
ATOM     22  C   UNL     1       2.309   5.785  20.624  0.00  0.00    +0.000 C 
BRANCH  22  23
ATOM     23  N   UNL     1       2.224   6.939  19.745  0.00  0.00    +0.000 N 
ATOM     24  C   UNL     1       2.623   6.862  18.341  0.00  0.00    +0.000 C 
ATOM     25  C   UNL     1       2.536   8.289  17.770  0.00  0.00    +0.000 C 
ATOM     26  C   UNL     1       1.694   8.967  18.802  0.00  0.00    +0.000 A 
ATOM     27  C   UNL     1       1.165  10.248  18.749  0.00  0.00    +0.000 A 
ATOM     28  C   UNL     1       0.454  10.705  19.853  0.00  0.00    +0.000 A 
ATOM     29  C   UNL     1       0.288   9.882  20.977  0.00  0.00    +0.000 A 
ATOM     30  C   UNL     1       0.843   8.591  21.013  0.00  0.00    +0.000 A 
ATOM     31  C   UNL     1       1.556   8.132  19.919  0.00  0.00    +0.000 A 
ENDBRANCH  22  23
ENDBRANCH  21  22
ENDBRANCH  18  21
ENDBRANCH  17  18
ENDBRANCH   1  17
TORSDOF 9
ENDMDL
MODEL 5
REMARK VINA RESULT:      -7.2      1.129      1.970
REMARK  Name = 
REMARK  10 active torsions:
REMARK  status: ('A' for Active; 'I' for Inactive)
REMARK    1  A    between atoms: C_1  and  C_2
REMARK    2  A    between atoms: C_2  and  C_3
REMARK    3  A    between atoms: C_2  and  N_13
REMARK    4  A    between atoms: C_3  and  N_4
REMARK    5  A    between atoms: N_13  and  C_14
REMARK    6  A    between atoms: C_14  and  C_15
REMARK    7  A    between atoms: C_15  and  O_16
REMARK    8  A    between atoms: C_15  and  C_17
REMARK    9  A    between atoms: C_20  and  O_21
REMARK   10  A    between atoms: C_22  and  C_23
REMARK                            x       y       z     vdW  Elec       q    Type
REMARK                         _______ _______ _______ _____ _____    ______ ____
ROOT
ATOM      1  C   UNL     1       3.769   2.871  19.092  0.00  0.00    +0.000 C 
ENDROOT
BRANCH   1   2
ATOM      2  C   UNL     1       4.741   3.732  18.305  0.00  0.00    +0.000 A 
ATOM      3  C   UNL     1       4.598   3.851  16.917  0.00  0.00    +0.000 A 
ATOM      4  C   UNL     1       5.499   4.614  16.172  0.00  0.00    +0.000 A 
ATOM      5  C   UNL     1       6.557   5.274  16.807  0.00  0.00    +0.000 A 
ATOM      6  C   UNL     1       6.722   5.179  18.194  0.00  0.00    +0.000 A 
ATOM      7  C   UNL     1       5.807   4.405  18.930  0.00  0.00    +0.000 A 
BRANCH   6   8
ATOM      8  C   UNL     1       7.814   5.852  18.963  0.00  0.00    +0.000 C 
ATOM      9  N   UNL     1       8.154   7.123  18.605  0.00  0.00    +0.000 N 
ATOM     10  O   UNL     1       8.391   5.289  19.888  0.00  0.00    +0.000 OA
ATOM     11  H   UNL     1       7.679   7.589  17.839  0.00  0.00    +0.000 HD
ATOM     12  H   UNL     1       8.882   7.602  19.114  0.00  0.00    +0.000 HD
ENDBRANCH   6   8
BRANCH   5  13
ATOM     13  O   UNL     1       7.423   6.006  16.038  0.00  0.00    +0.000 OA
ATOM     14  H   UNL     1       6.910   6.523  15.392  0.00  0.00    +0.000 HD
ENDBRANCH   5  13
ENDBRANCH   1   2
BRANCH   1  15
ATOM     15  O   UNL     1       4.396   1.618  19.388  0.00  0.00    +0.000 OA
ATOM     16  H   UNL     1       5.293   1.647  19.018  0.00  0.00    +0.000 HD
ENDBRANCH   1  15
BRANCH   1  17
ATOM     17  C   UNL     1       2.450   2.657  18.315  0.00  0.00    +0.000 C 
BRANCH  17  18
ATOM     18  N   UNL     1       1.563   3.826  18.386  0.00  0.00    +0.000 NA
ATOM     19  H   UNL     1       1.959   4.601  17.856  0.00  0.00    +0.000 HD
BRANCH  18  21
ATOM     20  C   UNL     1       1.297   3.004  20.708  0.00  0.00    +0.000 C 
ATOM     21  C   UNL     1       1.256   4.228  19.775  0.00  0.00    +0.000 C 
BRANCH  21  22
ATOM     22  C   UNL     1       2.230   5.304  20.339  0.00  0.00    +0.000 C 
BRANCH  22  23
ATOM     23  N   UNL     1       2.218   6.580  19.644  0.00  0.00    +0.000 N 
ATOM     24  C   UNL     1       2.621   6.694  18.244  0.00  0.00    +0.000 C 
ATOM     25  C   UNL     1       2.620   8.194  17.896  0.00  0.00    +0.000 C 
ATOM     26  C   UNL     1       1.812   8.755  19.021  0.00  0.00    +0.000 A 
ATOM     27  C   UNL     1       1.357  10.058  19.164  0.00  0.00    +0.000 A 
ATOM     28  C   UNL     1       0.667  10.383  20.325  0.00  0.00    +0.000 A 
ATOM     29  C   UNL     1       0.446   9.411  21.312  0.00  0.00    +0.000 A 
ATOM     30  C   UNL     1       0.926   8.099  21.151  0.00  0.00    +0.000 A 
ATOM     31  C   UNL     1       1.619   7.770  19.999  0.00  0.00    +0.000 A 
ENDBRANCH  22  23
ENDBRANCH  21  22
ENDBRANCH  18  21
ENDBRANCH  17  18
ENDBRANCH   1  17
TORSDOF 9
ENDMDL
MODEL 6
REMARK VINA RESULT:      -7.2      1.563      2.857
REMARK  Name = 
REMARK  10 active torsions:
REMARK  status: ('A' for Active; 'I' for Inactive)
REMARK    1  A    between atoms: C_1  and  C_2
REMARK    2  A    between atoms: C_2  and  C_3
REMARK    3  A    between atoms: C_2  and  N_13
REMARK    4  A    between atoms: C_3  and  N_4
REMARK    5  A    between atoms: N_13  and  C_14
REMARK    6  A    between atoms: C_14  and  C_15
REMARK    7  A    between atoms: C_15  and  O_16
REMARK    8  A    between atoms: C_15  and  C_17
REMARK    9  A    between atoms: C_20  and  O_21
REMARK   10  A    between atoms: C_22  and  C_23
REMARK                            x       y       z     vdW  Elec       q    Type
REMARK                         _______ _______ _______ _____ _____    ______ ____
ROOT
ATOM      1  C   UNL     1       3.531   2.350  18.612  0.00  0.00    +0.000 C 
ENDROOT
BRANCH   1   2
ATOM      2  C   UNL     1       4.580   3.378  18.230  0.00  0.00    +0.000 A 
ATOM      3  C   UNL     1       5.216   4.128  19.228  0.00  0.00    +0.000 A 
ATOM      4  C   UNL     1       6.161   5.099  18.895  0.00  0.00    +0.000 A 
ATOM      5  C   UNL     1       6.489   5.333  17.556  0.00  0.00    +0.000 A 
ATOM      6  C   UNL     1       5.877   4.595  16.536  0.00  0.00    +0.000 A 
ATOM      7  C   UNL     1       4.924   3.622  16.887  0.00  0.00    +0.000 A 
BRANCH   6   8
ATOM      8  C   UNL     1       6.165   4.767  15.079  0.00  0.00    +0.000 C 
ATOM      9  N   UNL     1       7.408   5.199  14.723  0.00  0.00    +0.000 N 
ATOM     10  O   UNL     1       5.320   4.529  14.222  0.00  0.00    +0.000 OA
ATOM     11  H   UNL     1       8.108   5.398  15.430  0.00  0.00    +0.000 HD
ATOM     12  H   UNL     1       7.631   5.315  13.745  0.00  0.00    +0.000 HD
ENDBRANCH   6   8
BRANCH   5  13
ATOM     13  O   UNL     1       7.417   6.301  17.272  0.00  0.00    +0.000 OA
ATOM     14  H   UNL     1       7.569   6.318  16.310  0.00  0.00    +0.000 HD
ENDBRANCH   5  13
ENDBRANCH   1   2
BRANCH   1  15
ATOM     15  O   UNL     1       3.061   1.704  17.423  0.00  0.00    +0.000 OA
ATOM     16  H   UNL     1       2.114   1.526  17.543  0.00  0.00    +0.000 HD
ENDBRANCH   1  15
BRANCH   1  17
ATOM     17  C   UNL     1       2.361   3.000  19.384  0.00  0.00    +0.000 C 
BRANCH  17  18
ATOM     18  N   UNL     1       1.918   4.260  18.772  0.00  0.00    +0.000 NA
ATOM     19  H   UNL     1       2.539   4.517  18.006  0.00  0.00    +0.000 HD
BRANCH  18  21
ATOM     20  C   UNL     1       2.056   4.840  21.177  0.00  0.00    +0.000 C 
ATOM     21  C   UNL     1       1.793   5.360  19.752  0.00  0.00    +0.000 C 
BRANCH  21  22
ATOM     22  C   UNL     1       2.764   6.546  19.478  0.00  0.00    +0.000 C 
BRANCH  22  23
ATOM     23  N   UNL     1       2.129   7.835  19.263  0.00  0.00    +0.000 N 
ATOM     24  C   UNL     1       1.947   8.384  17.920  0.00  0.00    +0.000 C 
ATOM     25  C   UNL     1       1.380   9.806  18.089  0.00  0.00    +0.000 C 
ATOM     26  C   UNL     1       0.905   9.766  19.505  0.00  0.00    +0.000 A 
ATOM     27  C   UNL     1       0.173  10.734  20.176  0.00  0.00    +0.000 A 
ATOM     28  C   UNL     1      -0.115  10.520  21.519  0.00  0.00    +0.000 A 
ATOM     29  C   UNL     1       0.331   9.355  22.160  0.00  0.00    +0.000 A 
ATOM     30  C   UNL     1       1.082   8.392  21.463  0.00  0.00    +0.000 A 
ATOM     31  C   UNL     1       1.377   8.602  20.127  0.00  0.00    +0.000 A 
ENDBRANCH  22  23
ENDBRANCH  21  22
ENDBRANCH  18  21
ENDBRANCH  17  18
ENDBRANCH   1  17
TORSDOF 9
ENDMDL
MODEL 7
REMARK VINA RESULT:      -7.2      2.770      3.744
REMARK  Name = 
REMARK  10 active torsions:
REMARK  status: ('A' for Active; 'I' for Inactive)
REMARK    1  A    between atoms: C_1  and  C_2
REMARK    2  A    between atoms: C_2  and  C_3
REMARK    3  A    between atoms: C_2  and  N_13
REMARK    4  A    between atoms: C_3  and  N_4
REMARK    5  A    between atoms: N_13  and  C_14
REMARK    6  A    between atoms: C_14  and  C_15
REMARK    7  A    between atoms: C_15  and  O_16
REMARK    8  A    between atoms: C_15  and  C_17
REMARK    9  A    between atoms: C_20  and  O_21
REMARK   10  A    between atoms: C_22  and  C_23
REMARK                            x       y       z     vdW  Elec       q    Type
REMARK                         _______ _______ _______ _____ _____    ______ ____
ROOT
ATOM      1  C   UNL     1       2.626   5.512  18.833  0.00  0.00    +0.000 C 
ENDROOT
BRANCH   1   2
ATOM      2  C   UNL     1       4.023   5.203  18.326  0.00  0.00    +0.000 A 
ATOM      3  C   UNL     1       4.188   4.478  17.138  0.00  0.00    +0.000 A 
ATOM      4  C   UNL     1       5.463   4.157  16.671  0.00  0.00    +0.000 A 
ATOM      5  C   UNL     1       6.597   4.562  17.385  0.00  0.00    +0.000 A 
ATOM      6  C   UNL     1       6.465   5.293  18.571  0.00  0.00    +0.000 A 
ATOM      7  C   UNL     1       5.172   5.606  19.030  0.00  0.00    +0.000 A 
BRANCH   6   8
ATOM      8  C   UNL     1       7.614   5.775  19.399  0.00  0.00    +0.000 C 
ATOM      9  N   UNL     1       8.343   6.825  18.925  0.00  0.00    +0.000 N 
ATOM     10  O   UNL     1       7.900   5.251  20.471  0.00  0.00    +0.000 OA
ATOM     11  H   UNL     1       8.109   7.258  18.037  0.00  0.00    +0.000 HD
ATOM     12  H   UNL     1       9.118   7.175  19.468  0.00  0.00    +0.000 HD
ENDBRANCH   6   8
BRANCH   5  13
ATOM     13  O   UNL     1       7.830   4.219  16.896  0.00  0.00    +0.000 OA
ATOM     14  H   UNL     1       7.917   3.248  16.915  0.00  0.00    +0.000 HD
ENDBRANCH   5  13
ENDBRANCH   1   2
BRANCH   1  15
ATOM     15  O   UNL     1       1.693   5.326  17.763  0.00  0.00    +0.000 OA
ATOM     16  H   UNL     1       0.811   5.239  18.160  0.00  0.00    +0.000 HD
ENDBRANCH   1  15
BRANCH   1  17
ATOM     17  C   UNL     1       2.539   6.949  19.398  0.00  0.00    +0.000 C 
BRANCH  17  18
ATOM     18  N   UNL     1       1.894   6.993  20.717  0.00  0.00    +0.000 NA
ATOM     19  H   UNL     1       1.360   6.139  20.877  0.00  0.00    +0.000 HD
BRANCH  18  21
ATOM     20  C   UNL     1       1.428   8.911  22.214  0.00  0.00    +0.000 C 
ATOM     21  C   UNL     1       1.053   8.194  20.904  0.00  0.00    +0.000 C 
BRANCH  21  22
ATOM     22  C   UNL     1       1.169   9.219  19.737  0.00  0.00    +0.000 C 
BRANCH  22  23
ATOM     23  N   UNL     1       0.090  10.188  19.650  0.00  0.00    +0.000 N 
ATOM     24  C   UNL     1       0.054  11.373  20.504  0.00  0.00    +0.000 C 
ATOM     25  C   UNL     1      -1.288  12.080  20.238  0.00  0.00    +0.000 C 
ATOM     26  C   UNL     1      -1.701  11.448  18.948  0.00  0.00    +0.000 A 
ATOM     27  C   UNL     1      -2.777  11.795  18.145  0.00  0.00    +0.000 A 
ATOM     28  C   UNL     1      -3.016  11.032  17.008  0.00  0.00    +0.000 A 
ATOM     29  C   UNL     1      -2.184   9.947  16.699  0.00  0.00    +0.000 A 
ATOM     30  C   UNL     1      -1.104   9.605  17.533  0.00  0.00    +0.000 A 
ATOM     31  C   UNL     1      -0.865  10.358  18.669  0.00  0.00    +0.000 A 
ENDBRANCH  22  23
ENDBRANCH  21  22
ENDBRANCH  18  21
ENDBRANCH  17  18
ENDBRANCH   1  17
TORSDOF 9
ENDMDL
MODEL 8
REMARK VINA RESULT:      -7.2      1.396      1.930
REMARK  Name = 
REMARK  10 active torsions:
REMARK  status: ('A' for Active; 'I' for Inactive)
REMARK    1  A    between atoms: C_1  and  C_2
REMARK    2  A    between atoms: C_2  and  C_3
REMARK    3  A    between atoms: C_2  and  N_13
REMARK    4  A    between atoms: C_3  and  N_4
REMARK    5  A    between atoms: N_13  and  C_14
REMARK    6  A    between atoms: C_14  and  C_15
REMARK    7  A    between atoms: C_15  and  O_16
REMARK    8  A    between atoms: C_15  and  C_17
REMARK    9  A    between atoms: C_20  and  O_21
REMARK   10  A    between atoms: C_22  and  C_23
REMARK                            x       y       z     vdW  Elec       q    Type
REMARK                         _______ _______ _______ _____ _____    ______ ____
ROOT
ATOM      1  C   UNL     1       3.826   2.988  18.703  0.00  0.00    +0.000 C 
ENDROOT
BRANCH   1   2
ATOM      2  C   UNL     1       4.834   3.866  17.984  0.00  0.00    +0.000 A 
ATOM      3  C   UNL     1       4.813   3.950  16.586  0.00  0.00    +0.000 A 
ATOM      4  C   UNL     1       5.750   4.728  15.906  0.00  0.00    +0.000 A 
ATOM      5  C   UNL     1       6.723   5.440  16.615  0.00  0.00    +0.000 A 
ATOM      6  C   UNL     1       6.766   5.382  18.014  0.00  0.00    +0.000 A 
ATOM      7  C   UNL     1       5.816   4.591  18.685  0.00  0.00    +0.000 A 
BRANCH   6   8
ATOM      8  C   UNL     1       7.762   6.110  18.859  0.00  0.00    +0.000 C 
ATOM      9  N   UNL     1       8.172   5.513  20.015  0.00  0.00    +0.000 N 
ATOM     10  O   UNL     1       8.204   7.207  18.533  0.00  0.00    +0.000 OA
ATOM     11  H   UNL     1       7.806   4.607  20.286  0.00  0.00    +0.000 HD
ATOM     12  H   UNL     1       8.850   5.980  20.599  0.00  0.00    +0.000 HD
ENDBRANCH   6   8
BRANCH   5  13
ATOM     13  O   UNL     1       7.630   6.185  15.908  0.00  0.00    +0.000 OA
ATOM     14  H   UNL     1       8.529   5.917  16.169  0.00  0.00    +0.000 HD
ENDBRANCH   5  13
ENDBRANCH   1   2
BRANCH   1  15
ATOM     15  O   UNL     1       3.845   1.683  18.114  0.00  0.00    +0.000 OA
ATOM     16  H   UNL     1       4.773   1.451  17.951  0.00  0.00    +0.000 HD
ENDBRANCH   1  15
BRANCH   1  17
ATOM     17  C   UNL     1       2.407   3.598  18.646  0.00  0.00    +0.000 C 
BRANCH  17  18
ATOM     18  N   UNL     1       2.431   5.057  18.481  0.00  0.00    +0.000 NA
ATOM     19  H   UNL     1       3.378   5.372  18.274  0.00  0.00    +0.000 HD
BRANCH  18  21
ATOM     20  C   UNL     1       2.143   4.990  20.940  0.00  0.00    +0.000 C 
ATOM     21  C   UNL     1       1.870   5.775  19.645  0.00  0.00    +0.000 C 
BRANCH  21  22
ATOM     22  C   UNL     1       2.440   7.214  19.818  0.00  0.00    +0.000 C 
BRANCH  22  23
ATOM     23  N   UNL     1       1.520   8.185  20.385  0.00  0.00    +0.000 N 
ATOM     24  C   UNL     1       1.476   8.450  21.822  0.00  0.00    +0.000 C 
ATOM     25  C   UNL     1       0.299   9.413  22.066  0.00  0.00    +0.000 C 
ATOM     26  C   UNL     1       0.050   9.927  20.685  0.00  0.00    +0.000 A 
ATOM     27  C   UNL     1      -0.816  10.943  20.307  0.00  0.00    +0.000 A 
ATOM     28  C   UNL     1      -0.939  11.224  18.951  0.00  0.00    +0.000 A 
ATOM     29  C   UNL     1      -0.202  10.492  18.008  0.00  0.00    +0.000 A 
ATOM     30  C   UNL     1       0.661   9.458  18.413  0.00  0.00    +0.000 A 
ATOM     31  C   UNL     1       0.784   9.170  19.761  0.00  0.00    +0.000 A 
ENDBRANCH  22  23
ENDBRANCH  21  22
ENDBRANCH  18  21
ENDBRANCH  17  18
ENDBRANCH   1  17
TORSDOF 9
ENDMDL
MODEL 9
REMARK VINA RESULT:      -7.2      3.773      7.569
REMARK  Name = 
REMARK  10 active torsions:
REMARK  status: ('A' for Active; 'I' for Inactive)
REMARK    1  A    between atoms: C_1  and  C_2
REMARK    2  A    between atoms: C_2  and  C_3
REMARK    3  A    between atoms: C_2  and  N_13
REMARK    4  A    between atoms: C_3  and  N_4
REMARK    5  A    between atoms: N_13  and  C_14
REMARK    6  A    between atoms: C_14  and  C_15
REMARK    7  A    between atoms: C_15  and  O_16
REMARK    8  A    between atoms: C_15  and  C_17
REMARK    9  A    between atoms: C_20  and  O_21
REMARK   10  A    between atoms: C_22  and  C_23
REMARK                            x       y       z     vdW  Elec       q    Type
REMARK                         _______ _______ _______ _____ _____    ______ ____
ROOT
ATOM      1  C   UNL     1       1.732   9.236  18.354  0.00  0.00    +0.000 C 
ENDROOT
BRANCH   1   2
ATOM      2  C   UNL     1       1.254   9.345  19.790  0.00  0.00    +0.000 A 
ATOM      3  C   UNL     1       1.397   8.254  20.657  0.00  0.00    +0.000 A 
ATOM      4  C   UNL     1       0.936   8.325  21.973  0.00  0.00    +0.000 A 
ATOM      5  C   UNL     1       0.326   9.493  22.444  0.00  0.00    +0.000 A 
ATOM      6  C   UNL     1       0.175  10.603  21.604  0.00  0.00    +0.000 A 
ATOM      7  C   UNL     1       0.642  10.515  20.280  0.00  0.00    +0.000 A 
BRANCH   6   8
ATOM      8  C   UNL     1      -0.456  11.894  22.016  0.00  0.00    +0.000 C 
ATOM      9  N   UNL     1      -1.753  11.863  22.438  0.00  0.00    +0.000 N 
ATOM     10  O   UNL     1       0.162  12.953  21.982  0.00  0.00    +0.000 OA
ATOM     11  H   UNL     1      -2.266  10.988  22.464  0.00  0.00    +0.000 HD
ATOM     12  H   UNL     1      -2.199  12.720  22.730  0.00  0.00    +0.000 HD
ENDBRANCH   6   8
BRANCH   5  13
ATOM     13  O   UNL     1      -0.120   9.518  23.739  0.00  0.00    +0.000 OA
ATOM     14  H   UNL     1      -1.089   9.617  23.736  0.00  0.00    +0.000 HD
ENDBRANCH   5  13
ENDBRANCH   1   2
BRANCH   1  15
ATOM     15  O   UNL     1       0.653   9.580  17.479  0.00  0.00    +0.000 OA
ATOM     16  H   UNL     1       0.942   9.390  16.572  0.00  0.00    +0.000 HD
ENDBRANCH   1  15
BRANCH   1  17
ATOM     17  C   UNL     1       2.262   7.817  18.044  0.00  0.00    +0.000 C 
BRANCH  17  18
ATOM     18  N   UNL     1       3.671   7.824  17.631  0.00  0.00    +0.000 NA
ATOM     19  H   UNL     1       3.852   8.610  17.008  0.00  0.00    +0.000 HD
BRANCH  18  21
ATOM     20  C   UNL     1       5.179   6.797  15.955  0.00  0.00    +0.000 C 
ATOM     21  C   UNL     1       4.096   6.547  17.021  0.00  0.00    +0.000 C 
BRANCH  21  22
ATOM     22  C   UNL     1       4.655   5.523  18.052  0.00  0.00    +0.000 C 
BRANCH  22  23
ATOM     23  N   UNL     1       3.848   4.331  18.246  0.00  0.00    +0.000 N 
ATOM     24  C   UNL     1       4.027   3.141  17.415  0.00  0.00    +0.000 C 
ATOM     25  C   UNL     1       2.918   2.148  17.807  0.00  0.00    +0.000 C 
ATOM     26  C   UNL     1       2.471   2.709  19.118  0.00  0.00    +0.000 A 
ATOM     27  C   UNL     1       1.575   2.145  20.015  0.00  0.00    +0.000 A 
ATOM     28  C   UNL     1       1.253   2.870  21.157  0.00  0.00    +0.000 A 
ATOM     29  C   UNL     1       1.826   4.131  21.378  0.00  0.00    +0.000 A 
ATOM     30  C   UNL     1       2.723   4.688  20.449  0.00  0.00    +0.000 A 
ATOM     31  C   UNL     1       3.043   3.974  19.308  0.00  0.00    +0.000 A 
ENDBRANCH  22  23
ENDBRANCH  21  22
ENDBRANCH  18  21
ENDBRANCH  17  18
ENDBRANCH   1  17
TORSDOF 9
ENDMDL
