MODEL 1
REMARK VINA RESULT:      -7.8      0.000      0.000
REMARK  Name = 
REMARK  10 active torsions:
REMARK  status: ('A' for Active; 'I' for Inactive)
REMARK    1  A    between atoms: N_1  and  C_2
REMARK    2  A    between atoms: C_8  and  S_9
REMARK    3  A    between atoms: S_9  and  C_10
REMARK    4  A    between atoms: C_10  and  C_11
REMARK    5  A    between atoms: N_16  and  C_17
REMARK    6  A    between atoms: C_19  and  C_20
REMARK    7  A    between atoms: C_20  and  O_21
REMARK    8  A    between atoms: O_21  and  S_22
REMARK    9  A    between atoms: S_22  and  N_23
REMARK   10  A    between atoms: C_26  and  O_27
REMARK                            x       y       z     vdW  Elec       q    Type
REMARK                         _______ _______ _______ _____ _____    ______ ____
ROOT
ATOM      1  C   UNL     1       1.632   3.683  19.643  0.00  0.00    +0.000 A 
ATOM      2  N   UNL     1       1.653   2.333  19.670  0.00  0.00    +0.000 NA
ATOM      3  C   UNL     1       2.474   1.682  18.822  0.00  0.00    +0.000 A 
ATOM      4  N   UNL     1       3.304   2.210  17.904  0.00  0.00    +0.000 NA
ATOM      5  C   UNL     1       3.270   3.555  17.938  0.00  0.00    +0.000 A 
ATOM      6  C   UNL     1       2.493   4.344  18.764  0.00  0.00    +0.000 A 
ATOM      7  C   UNL     1       2.853   5.666  18.419  0.00  0.00    +0.000 A 
ATOM      8  N   UNL     1       3.745   5.729  17.425  0.00  0.00    +0.000 NA
ATOM      9  N   UNL     1       3.973   4.417  17.137  0.00  0.00    +0.000 N 
ENDROOT
BRANCH   9  10
ATOM     10  C   UNL     1       4.773   3.984  16.002  0.00  0.00    +0.000 C 
ATOM     11  O   UNL     1       6.037   3.424  16.425  0.00  0.00    +0.000 OA
ATOM     12  C   UNL     1       7.091   4.084  15.694  0.00  0.00    +0.000 C 
ATOM     13  C   UNL     1       6.423   4.763  14.499  0.00  0.00    +0.000 C 
ATOM     14  C   UNL     1       5.048   5.108  15.017  0.00  0.00    +0.000 C 
ATOM     15  F   UNL     1       5.122   6.318  15.638  0.00  0.00    +0.000 F 
BRANCH  13  16
ATOM     16  O   UNL     1       6.299   3.863  13.389  0.00  0.00    +0.000 OA
ATOM     17  H   UNL     1       5.528   4.120  12.848  0.00  0.00    +0.000 HD
ENDBRANCH  13  16
BRANCH  12  18
ATOM     18  C   UNL     1       7.826   5.039  16.643  0.00  0.00    +0.000 C 
BRANCH  18  19
ATOM     19  O   UNL     1       7.739   4.604  18.000  0.00  0.00    +0.000 OA
BRANCH  19  20
ATOM     20  S   UNL     1       7.528   5.702  19.173  0.00  0.00    +0.000 S 
ATOM     21  O   UNL     1       8.015   6.981  18.716  0.00  0.00    +0.000 OA
ATOM     22  O   UNL     1       6.204   5.527  19.715  0.00  0.00    +0.000 OA
BRANCH  20  23
ATOM     23  N   UNL     1       8.608   5.179  20.333  0.00  0.00    +0.000 NA
ATOM     24  H   UNL     1       8.645   4.161  20.344  0.00  0.00    +0.000 HD
ATOM     25  H   UNL     1       8.402   5.598  21.236  0.00  0.00    +0.000 HD
ENDBRANCH  20  23
ENDBRANCH  19  20
ENDBRANCH  18  19
ENDBRANCH  12  18
ENDBRANCH   9  10
BRANCH   1  26
ATOM     26  N   UNL     1       0.737   4.324  20.479  0.00  0.00    +0.000 N 
ATOM     27  H   UNL     1      -0.209   3.981  20.390  0.00  0.00    +0.000 HD
ATOM     28  H   UNL     1       1.073   4.564  21.403  0.00  0.00    +0.000 HD
ENDBRANCH   1  26
BRANCH   7  29
ATOM     29  S   UNL     1       2.270   7.075  19.270  0.00  0.00    +0.000 S 
BRANCH  29  30
ATOM     30  C   UNL     1       2.493   8.409  18.062  0.00  0.00    +0.000 C 
BRANCH  30  31
ATOM     31  C   UNL     1       1.345   9.390  18.270  0.00  0.00    +0.000 C 
ATOM     32  C   UNL     1       0.832   9.590  19.721  0.00  0.00    +0.000 C 
ATOM     33  C   UNL     1       0.591  11.070  19.351  0.00  0.00    +0.000 C 
ATOM     34  C   UNL     1       1.699  10.907  18.293  0.00  0.00    +0.000 C 
ENDBRANCH  30  31
ENDBRANCH  29  30
ENDBRANCH   7  29
TORSDOF 10
ENDMDL
MODEL 2
REMARK VINA RESULT:      -7.7      0.780      1.029
REMARK  Name = 
REMARK  10 active torsions:
REMARK  status: ('A' for Active; 'I' for Inactive)
REMARK    1  A    between atoms: N_1  and  C_2
REMARK    2  A    between atoms: C_8  and  S_9
REMARK    3  A    between atoms: S_9  and  C_10
REMARK    4  A    between atoms: C_10  and  C_11
REMARK    5  A    between atoms: N_16  and  C_17
REMARK    6  A    between atoms: C_19  and  C_20
REMARK    7  A    between atoms: C_20  and  O_21
REMARK    8  A    between atoms: O_21  and  S_22
REMARK    9  A    between atoms: S_22  and  N_23
REMARK   10  A    between atoms: C_26  and  O_27
REMARK                            x       y       z     vdW  Elec       q    Type
REMARK                         _______ _______ _______ _____ _____    ______ ____
ROOT
ATOM      1  C   UNL     1       1.546   3.803  19.620  0.00  0.00    +0.000 A 
ATOM      2  N   UNL     1       1.541   2.453  19.607  0.00  0.00    +0.000 NA
ATOM      3  C   UNL     1       2.361   1.812  18.751  0.00  0.00    +0.000 A 
ATOM      4  N   UNL     1       3.213   2.351  17.860  0.00  0.00    +0.000 NA
ATOM      5  C   UNL     1       3.204   3.695  17.933  0.00  0.00    +0.000 A 
ATOM      6  C   UNL     1       2.431   4.474  18.772  0.00  0.00    +0.000 A 
ATOM      7  C   UNL     1       2.820   5.798  18.472  0.00  0.00    +0.000 A 
ATOM      8  N   UNL     1       3.727   5.873  17.491  0.00  0.00    +0.000 NA
ATOM      9  N   UNL     1       3.933   4.566  17.167  0.00  0.00    +0.000 N 
ENDROOT
BRANCH   9  10
ATOM     10  C   UNL     1       4.740   4.151  16.030  0.00  0.00    +0.000 C 
ATOM     11  O   UNL     1       5.974   3.529  16.453  0.00  0.00    +0.000 OA
ATOM     12  C   UNL     1       7.066   4.179  15.770  0.00  0.00    +0.000 C 
ATOM     13  C   UNL     1       6.447   4.931  14.593  0.00  0.00    +0.000 C 
ATOM     14  C   UNL     1       5.076   5.305  15.099  0.00  0.00    +0.000 C 
ATOM     15  F   UNL     1       5.181   6.484  15.772  0.00  0.00    +0.000 F 
BRANCH  13  16
ATOM     16  O   UNL     1       6.313   4.083  13.443  0.00  0.00    +0.000 OA
ATOM     17  H   UNL     1       5.802   4.549  12.755  0.00  0.00    +0.000 HD
ENDBRANCH  13  16
BRANCH  12  18
ATOM     18  C   UNL     1       7.816   5.065  16.772  0.00  0.00    +0.000 C 
BRANCH  18  19
ATOM     19  O   UNL     1       7.821   4.494  18.081  0.00  0.00    +0.000 OA
BRANCH  19  20
ATOM     20  S   UNL     1       7.650   5.462  19.369  0.00  0.00    +0.000 S 
ATOM     21  O   UNL     1       6.248   5.588  19.684  0.00  0.00    +0.000 OA
ATOM     22  O   UNL     1       8.632   5.075  20.351  0.00  0.00    +0.000 OA
BRANCH  20  23
ATOM     23  N   UNL     1       8.124   6.940  18.755  0.00  0.00    +0.000 NA
ATOM     24  H   UNL     1       9.079   7.149  19.042  0.00  0.00    +0.000 HD
ATOM     25  H   UNL     1       7.451   7.664  18.991  0.00  0.00    +0.000 HD
ENDBRANCH  20  23
ENDBRANCH  19  20
ENDBRANCH  18  19
ENDBRANCH  12  18
ENDBRANCH   9  10
BRANCH   1  26
ATOM     26  N   UNL     1       0.652   4.436  20.464  0.00  0.00    +0.000 N 
ATOM     27  H   UNL     1      -0.228   4.657  20.019  0.00  0.00    +0.000 HD
ATOM     28  H   UNL     1       0.637   4.122  21.426  0.00  0.00    +0.000 HD
ENDBRANCH   1  26
BRANCH   7  29
ATOM     29  S   UNL     1       2.253   7.193  19.356  0.00  0.00    +0.000 S 
BRANCH  29  30
ATOM     30  C   UNL     1       1.939   8.411  18.051  0.00  0.00    +0.000 C 
BRANCH  30  31
ATOM     31  C   UNL     1       1.336   9.637  18.727  0.00  0.00    +0.000 C 
ATOM     32  C   UNL     1      -0.076  10.083  18.263  0.00  0.00    +0.000 C 
ATOM     33  C   UNL     1      -0.345  10.492  19.729  0.00  0.00    +0.000 C 
ATOM     34  C   UNL     1       0.701   9.436  20.135  0.00  0.00    +0.000 C 
ENDBRANCH  30  31
ENDBRANCH  29  30
ENDBRANCH   7  29
TORSDOF 10
ENDMDL
MODEL 3
REMARK VINA RESULT:      -7.0      9.096     11.918
REMARK  Name = 
REMARK  10 active torsions:
REMARK  status: ('A' for Active; 'I' for Inactive)
REMARK    1  A    between atoms: N_1  and  C_2
REMARK    2  A    between atoms: C_8  and  S_9
REMARK    3  A    between atoms: S_9  and  C_10
REMARK    4  A    between atoms: C_10  and  C_11
REMARK    5  A    between atoms: N_16  and  C_17
REMARK    6  A    between atoms: C_19  and  C_20
REMARK    7  A    between atoms: C_20  and  O_21
REMARK    8  A    between atoms: O_21  and  S_22
REMARK    9  A    between atoms: S_22  and  N_23
REMARK   10  A    between atoms: C_26  and  O_27
REMARK                            x       y       z     vdW  Elec       q    Type
REMARK                         _______ _______ _______ _____ _____    ______ ____
ROOT
ATOM      1  C   UNL     1       0.563  10.004  20.733  0.00  0.00    +0.000 A 
ATOM      2  N   UNL     1       1.021   9.255  21.759  0.00  0.00    +0.000 NA
ATOM      3  C   UNL     1       0.488   9.442  22.983  0.00  0.00    +0.000 A 
ATOM      4  N   UNL     1      -0.469  10.315  23.345  0.00  0.00    +0.000 NA
ATOM      5  C   UNL     1      -0.913  11.014  22.284  0.00  0.00    +0.000 A 
ATOM      6  C   UNL     1      -0.471  10.911  20.980  0.00  0.00    +0.000 A 
ATOM      7  C   UNL     1      -1.273  11.830  20.268  0.00  0.00    +0.000 A 
ATOM      8  N   UNL     1      -2.123  12.506  21.050  0.00  0.00    +0.000 NA
ATOM      9  N   UNL     1      -1.870  11.995  22.287  0.00  0.00    +0.000 N 
ENDROOT
BRANCH   9  10
ATOM     10  C   UNL     1      -2.457  12.538  23.502  0.00  0.00    +0.000 C 
ATOM     11  O   UNL     1      -3.801  12.046  23.708  0.00  0.00    +0.000 OA
ATOM     12  C   UNL     1      -4.669  13.178  23.925  0.00  0.00    +0.000 C 
ATOM     13  C   UNL     1      -3.758  14.355  24.274  0.00  0.00    +0.000 C 
ATOM     14  C   UNL     1      -2.494  14.058  23.505  0.00  0.00    +0.000 C 
ATOM     15  F   UNL     1      -2.634  14.564  22.249  0.00  0.00    +0.000 F 
BRANCH  13  16
ATOM     16  O   UNL     1      -3.464  14.389  25.677  0.00  0.00    +0.000 OA
ATOM     17  H   UNL     1      -4.138  13.878  26.163  0.00  0.00    +0.000 HD
ENDBRANCH  13  16
BRANCH  12  18
ATOM     18  C   UNL     1      -5.530  13.385  22.673  0.00  0.00    +0.000 C 
BRANCH  18  19
ATOM     19  O   UNL     1      -5.363  12.321  21.735  0.00  0.00    +0.000 OA
BRANCH  19  20
ATOM     20  S   UNL     1      -6.074  12.425  20.283  0.00  0.00    +0.000 S 
ATOM     21  O   UNL     1      -6.562  11.122  19.901  0.00  0.00    +0.000 OA
ATOM     22  O   UNL     1      -6.912  13.598  20.279  0.00  0.00    +0.000 OA
BRANCH  20  23
ATOM     23  N   UNL     1      -4.774  12.746  19.285  0.00  0.00    +0.000 NA
ATOM     24  H   UNL     1      -5.083  12.809  18.317  0.00  0.00    +0.000 HD
ATOM     25  H   UNL     1      -4.024  12.078  19.441  0.00  0.00    +0.000 HD
ENDBRANCH  20  23
ENDBRANCH  19  20
ENDBRANCH  18  19
ENDBRANCH  12  18
ENDBRANCH   9  10
BRANCH   1  26
ATOM     26  N   UNL     1       1.168   9.837  19.501  0.00  0.00    +0.000 N 
ATOM     27  H   UNL     1       1.311   8.867  19.254  0.00  0.00    +0.000 HD
ATOM     28  H   UNL     1       0.892  10.480  18.770  0.00  0.00    +0.000 HD
ENDBRANCH   1  26
BRANCH   7  29
ATOM     29  S   UNL     1      -1.232  12.001  18.531  0.00  0.00    +0.000 S 
BRANCH  29  30
ATOM     30  C   UNL     1      -2.174  10.565  17.951  0.00  0.00    +0.000 C 
BRANCH  30  31
ATOM     31  C   UNL     1      -2.579  10.854  16.510  0.00  0.00    +0.000 C 
ATOM     32  C   UNL     1      -2.593   9.658  15.521  0.00  0.00    +0.000 C 
ATOM     33  C   UNL     1      -3.815  10.325  14.851  0.00  0.00    +0.000 C 
ATOM     34  C   UNL     1      -4.101  10.990  16.211  0.00  0.00    +0.000 C 
ENDBRANCH  30  31
ENDBRANCH  29  30
ENDBRANCH   7  29
TORSDOF 10
ENDMDL
MODEL 4
REMARK VINA RESULT:      -6.8      2.717      4.597
REMARK  Name = 
REMARK  10 active torsions:
REMARK  status: ('A' for Active; 'I' for Inactive)
REMARK    1  A    between atoms: N_1  and  C_2
REMARK    2  A    between atoms: C_8  and  S_9
REMARK    3  A    between atoms: S_9  and  C_10
REMARK    4  A    between atoms: C_10  and  C_11
REMARK    5  A    between atoms: N_16  and  C_17
REMARK    6  A    between atoms: C_19  and  C_20
REMARK    7  A    between atoms: C_20  and  O_21
REMARK    8  A    between atoms: O_21  and  S_22
REMARK    9  A    between atoms: S_22  and  N_23
REMARK   10  A    between atoms: C_26  and  O_27
REMARK                            x       y       z     vdW  Elec       q    Type
REMARK                         _______ _______ _______ _____ _____    ______ ____
ROOT
ATOM      1  C   UNL     1       1.708   9.025  18.494  0.00  0.00    +0.000 A 
ATOM      2  N   UNL     1       2.463   9.062  17.375  0.00  0.00    +0.000 NA
ATOM      3  C   UNL     1       3.309   8.041  17.132  0.00  0.00    +0.000 A 
ATOM      4  N   UNL     1       3.525   6.947  17.885  0.00  0.00    +0.000 NA
ATOM      5  C   UNL     1       2.728   6.942  18.969  0.00  0.00    +0.000 A 
ATOM      6  C   UNL     1       1.809   7.909  19.328  0.00  0.00    +0.000 A 
ATOM      7  C   UNL     1       1.228   7.412  20.515  0.00  0.00    +0.000 A 
ATOM      8  N   UNL     1       1.759   6.252  20.918  0.00  0.00    +0.000 NA
ATOM      9  N   UNL     1       2.690   5.993  19.958  0.00  0.00    +0.000 N 
ENDROOT
BRANCH   9  10
ATOM     10  C   UNL     1       3.638   4.895  20.052  0.00  0.00    +0.000 C 
ATOM     11  O   UNL     1       4.813   5.136  19.245  0.00  0.00    +0.000 OA
ATOM     12  C   UNL     1       5.026   3.986  18.401  0.00  0.00    +0.000 C 
ATOM     13  C   UNL     1       4.206   2.850  19.011  0.00  0.00    +0.000 C 
ATOM     14  C   UNL     1       3.034   3.563  19.638  0.00  0.00    +0.000 C 
ATOM     15  F   UNL     1       2.074   3.717  18.684  0.00  0.00    +0.000 F 
BRANCH  13  16
ATOM     16  O   UNL     1       4.944   2.162  20.031  0.00  0.00    +0.000 OA
ATOM     17  H   UNL     1       5.754   2.665  20.240  0.00  0.00    +0.000 HD
ENDBRANCH  13  16
BRANCH  12  18
ATOM     18  C   UNL     1       4.641   4.351  16.962  0.00  0.00    +0.000 C 
BRANCH  18  19
ATOM     19  O   UNL     1       5.692   4.054  16.043  0.00  0.00    +0.000 OA
BRANCH  19  20
ATOM     20  S   UNL     1       7.030   4.968  16.045  0.00  0.00    +0.000 S 
ATOM     21  O   UNL     1       7.962   4.440  17.012  0.00  0.00    +0.000 OA
ATOM     22  O   UNL     1       7.398   5.222  14.674  0.00  0.00    +0.000 OA
BRANCH  20  23
ATOM     23  N   UNL     1       6.464   6.405  16.677  0.00  0.00    +0.000 NA
ATOM     24  H   UNL     1       7.244   6.978  16.996  0.00  0.00    +0.000 HD
ATOM     25  H   UNL     1       5.755   6.235  17.386  0.00  0.00    +0.000 HD
ENDBRANCH  20  23
ENDBRANCH  19  20
ENDBRANCH  18  19
ENDBRANCH  12  18
ENDBRANCH   9  10
BRANCH   1  26
ATOM     26  N   UNL     1       0.894  10.113  18.751  0.00  0.00    +0.000 N 
ATOM     27  H   UNL     1      -0.058   9.982  18.437  0.00  0.00    +0.000 HD
ATOM     28  H   UNL     1       1.047  10.596  19.627  0.00  0.00    +0.000 HD
ENDBRANCH   1  26
BRANCH   7  29
ATOM     29  S   UNL     1      -0.115   8.179  21.326  0.00  0.00    +0.000 S 
BRANCH  29  30
ATOM     30  C   UNL     1       0.590   9.747  21.902  0.00  0.00    +0.000 C 
BRANCH  30  31
ATOM     31  C   UNL     1      -0.537  10.773  21.879  0.00  0.00    +0.000 C 
ATOM     32  C   UNL     1      -1.308  11.014  23.204  0.00  0.00    +0.000 C 
ATOM     33  C   UNL     1      -1.416  12.497  22.784  0.00  0.00    +0.000 C 
ATOM     34  C   UNL     1      -0.134  12.276  21.957  0.00  0.00    +0.000 C 
ENDBRANCH  30  31
ENDBRANCH  29  30
ENDBRANCH   7  29
TORSDOF 10
ENDMDL
MODEL 5
REMARK VINA RESULT:      -6.8      1.929      4.328
REMARK  Name = 
REMARK  10 active torsions:
REMARK  status: ('A' for Active; 'I' for Inactive)
REMARK    1  A    between atoms: N_1  and  C_2
REMARK    2  A    between atoms: C_8  and  S_9
REMARK    3  A    between atoms: S_9  and  C_10
REMARK    4  A    between atoms: C_10  and  C_11
REMARK    5  A    between atoms: N_16  and  C_17
REMARK    6  A    between atoms: C_19  and  C_20
REMARK    7  A    between atoms: C_20  and  O_21
REMARK    8  A    between atoms: O_21  and  S_22
REMARK    9  A    between atoms: S_22  and  N_23
REMARK   10  A    between atoms: C_26  and  O_27
REMARK                            x       y       z     vdW  Elec       q    Type
REMARK                         _______ _______ _______ _____ _____    ______ ____
ROOT
ATOM      1  C   UNL     1       1.641   8.262  19.811  0.00  0.00    +0.000 A 
ATOM      2  N   UNL     1       1.546   9.346  19.012  0.00  0.00    +0.000 NA
ATOM      3  C   UNL     1       2.087   9.291  17.779  0.00  0.00    +0.000 A 
ATOM      4  N   UNL     1       2.747   8.266  17.210  0.00  0.00    +0.000 NA
ATOM      5  C   UNL     1       2.788   7.201  18.031  0.00  0.00    +0.000 A 
ATOM      6  C   UNL     1       2.262   7.116  19.306  0.00  0.00    +0.000 A 
ATOM      7  C   UNL     1       2.548   5.795  19.712  0.00  0.00    +0.000 A 
ATOM      8  N   UNL     1       3.242   5.101  18.803  0.00  0.00    +0.000 NA
ATOM      9  N   UNL     1       3.390   5.994  17.786  0.00  0.00    +0.000 N 
ENDROOT
BRANCH   9  10
ATOM     10  C   UNL     1       4.221   5.736  16.621  0.00  0.00    +0.000 C 
ATOM     11  O   UNL     1       4.659   4.359  16.574  0.00  0.00    +0.000 OA
ATOM     12  C   UNL     1       6.091   4.345  16.409  0.00  0.00    +0.000 C 
ATOM     13  C   UNL     1       6.480   5.741  15.924  0.00  0.00    +0.000 C 
ATOM     14  C   UNL     1       5.447   6.634  16.566  0.00  0.00    +0.000 C 
ATOM     15  F   UNL     1       5.888   6.964  17.810  0.00  0.00    +0.000 F 
BRANCH  13  16
ATOM     16  O   UNL     1       6.378   5.846  14.497  0.00  0.00    +0.000 OA
ATOM     17  H   UNL     1       6.550   6.768  14.227  0.00  0.00    +0.000 HD
ENDBRANCH  13  16
BRANCH  12  18
ATOM     18  C   UNL     1       6.736   3.926  17.736  0.00  0.00    +0.000 C 
BRANCH  18  19
ATOM     19  O   UNL     1       7.896   4.706  18.028  0.00  0.00    +0.000 OA
BRANCH  19  20
ATOM     20  S   UNL     1       7.904   5.656  19.340  0.00  0.00    +0.000 S 
ATOM     21  O   UNL     1       8.362   6.973  18.968  0.00  0.00    +0.000 OA
ATOM     22  O   UNL     1       6.672   5.438  20.056  0.00  0.00    +0.000 OA
BRANCH  20  23
ATOM     23  N   UNL     1       9.128   4.977  20.250  0.00  0.00    +0.000 NA
ATOM     24  H   UNL     1       9.749   5.704  20.600  0.00  0.00    +0.000 HD
ATOM     25  H   UNL     1       9.600   4.241  19.731  0.00  0.00    +0.000 HD
ENDBRANCH  20  23
ENDBRANCH  19  20
ENDBRANCH  18  19
ENDBRANCH  12  18
ENDBRANCH   9  10
BRANCH   1  26
ATOM     26  N   UNL     1       1.133   8.366  21.092  0.00  0.00    +0.000 N 
ATOM     27  H   UNL     1       1.586   7.750  21.753  0.00  0.00    +0.000 HD
ATOM     28  H   UNL     1       0.874   9.294  21.403  0.00  0.00    +0.000 HD
ENDBRANCH   1  26
BRANCH   7  29
ATOM     29  S   UNL     1       1.971   5.100  21.207  0.00  0.00    +0.000 S 
BRANCH  29  30
ATOM     30  C   UNL     1       2.729   3.453  21.218  0.00  0.00    +0.000 C 
BRANCH  30  31
ATOM     31  C   UNL     1       1.747   2.509  20.533  0.00  0.00    +0.000 C 
ATOM     32  C   UNL     1       0.497   3.143  19.868  0.00  0.00    +0.000 C 
ATOM     33  C   UNL     1       0.619   2.056  18.777  0.00  0.00    +0.000 C 
ATOM     34  C   UNL     1       2.123   2.001  19.109  0.00  0.00    +0.000 C 
ENDBRANCH  30  31
ENDBRANCH  29  30
ENDBRANCH   7  29
TORSDOF 10
ENDMDL
MODEL 6
REMARK VINA RESULT:      -6.7      8.959     11.984
REMARK  Name = 
REMARK  10 active torsions:
REMARK  status: ('A' for Active; 'I' for Inactive)
REMARK    1  A    between atoms: N_1  and  C_2
REMARK    2  A    between atoms: C_8  and  S_9
REMARK    3  A    between atoms: S_9  and  C_10
REMARK    4  A    between atoms: C_10  and  C_11
REMARK    5  A    between atoms: N_16  and  C_17
REMARK    6  A    between atoms: C_19  and  C_20
REMARK    7  A    between atoms: C_20  and  O_21
REMARK    8  A    between atoms: O_21  and  S_22
REMARK    9  A    between atoms: S_22  and  N_23
REMARK   10  A    between atoms: C_26  and  O_27
REMARK                            x       y       z     vdW  Elec       q    Type
REMARK                         _______ _______ _______ _____ _____    ______ ____
ROOT
ATOM      1  C   UNL     1       0.690   9.783  20.796  0.00  0.00    +0.000 A 
ATOM      2  N   UNL     1       1.207   9.120  21.852  0.00  0.00    +0.000 NA
ATOM      3  C   UNL     1       0.710   9.372  23.080  0.00  0.00    +0.000 A 
ATOM      4  N   UNL     1      -0.263  10.238  23.418  0.00  0.00    +0.000 NA
ATOM      5  C   UNL     1      -0.765  10.849  22.330  0.00  0.00    +0.000 A 
ATOM      6  C   UNL     1      -0.364  10.672  21.020  0.00  0.00    +0.000 A 
ATOM      7  C   UNL     1      -1.220  11.516  20.278  0.00  0.00    +0.000 A 
ATOM      8  N   UNL     1      -2.066  12.216  21.043  0.00  0.00    +0.000 NA
ATOM      9  N   UNL     1      -1.754  11.798  22.302  0.00  0.00    +0.000 N 
ENDROOT
BRANCH   9  10
ATOM     10  C   UNL     1      -2.318  12.403  23.498  0.00  0.00    +0.000 C 
ATOM     11  O   UNL     1      -3.737  12.151  23.603  0.00  0.00    +0.000 OA
ATOM     12  C   UNL     1      -4.407  13.411  23.809  0.00  0.00    +0.000 C 
ATOM     13  C   UNL     1      -3.331  14.399  24.258  0.00  0.00    +0.000 C 
ATOM     14  C   UNL     1      -2.089  13.905  23.557  0.00  0.00    +0.000 C 
ATOM     15  F   UNL     1      -2.054  14.461  22.316  0.00  0.00    +0.000 F 
BRANCH  13  16
ATOM     16  O   UNL     1      -3.129  14.344  25.677  0.00  0.00    +0.000 OA
ATOM     17  H   UNL     1      -3.270  15.231  26.060  0.00  0.00    +0.000 HD
ENDBRANCH  13  16
BRANCH  12  18
ATOM     18  C   UNL     1      -5.133  13.801  22.516  0.00  0.00    +0.000 C 
BRANCH  18  19
ATOM     19  O   UNL     1      -6.369  13.100  22.373  0.00  0.00    +0.000 OA
BRANCH  19  20
ATOM     20  S   UNL     1      -6.778  12.498  20.925  0.00  0.00    +0.000 S 
ATOM     21  O   UNL     1      -7.872  13.267  20.385  0.00  0.00    +0.000 OA
ATOM     22  O   UNL     1      -5.564  12.254  20.186  0.00  0.00    +0.000 OA
BRANCH  20  23
ATOM     23  N   UNL     1      -7.411  11.010  21.337  0.00  0.00    +0.000 NA
ATOM     24  H   UNL     1      -7.715  11.016  22.310  0.00  0.00    +0.000 HD
ATOM     25  H   UNL     1      -6.761  10.263  21.108  0.00  0.00    +0.000 HD
ENDBRANCH  20  23
ENDBRANCH  19  20
ENDBRANCH  18  19
ENDBRANCH  12  18
ENDBRANCH   9  10
BRANCH   1  26
ATOM     26  N   UNL     1       1.258   9.552  19.557  0.00  0.00    +0.000 N 
ATOM     27  H   UNL     1       0.606   9.176  18.883  0.00  0.00    +0.000 HD
ATOM     28  H   UNL     1       1.939  10.229  19.238  0.00  0.00    +0.000 HD
ENDBRANCH   1  26
BRANCH   7  29
ATOM     29  S   UNL     1      -1.244  11.571  18.533  0.00  0.00    +0.000 S 
BRANCH  29  30
ATOM     30  C   UNL     1      -3.013  11.637  18.145  0.00  0.00    +0.000 C 
BRANCH  30  31
ATOM     31  C   UNL     1      -3.277  10.562  17.097  0.00  0.00    +0.000 C 
ATOM     32  C   UNL     1      -3.400  11.022  15.620  0.00  0.00    +0.000 C 
ATOM     33  C   UNL     1      -2.710   9.696  15.229  0.00  0.00    +0.000 C 
ATOM     34  C   UNL     1      -2.060   9.711  16.626  0.00  0.00    +0.000 C 
ENDBRANCH  30  31
ENDBRANCH  29  30
ENDBRANCH   7  29
TORSDOF 10
ENDMDL
MODEL 7
REMARK VINA RESULT:      -6.6      7.640     10.376
REMARK  Name = 
REMARK  10 active torsions:
REMARK  status: ('A' for Active; 'I' for Inactive)
REMARK    1  A    between atoms: N_1  and  C_2
REMARK    2  A    between atoms: C_8  and  S_9
REMARK    3  A    between atoms: S_9  and  C_10
REMARK    4  A    between atoms: C_10  and  C_11
REMARK    5  A    between atoms: N_16  and  C_17
REMARK    6  A    between atoms: C_19  and  C_20
REMARK    7  A    between atoms: C_20  and  O_21
REMARK    8  A    between atoms: O_21  and  S_22
REMARK    9  A    between atoms: S_22  and  N_23
REMARK   10  A    between atoms: C_26  and  O_27
REMARK                            x       y       z     vdW  Elec       q    Type
REMARK                         _______ _______ _______ _____ _____    ______ ____
ROOT
ATOM      1  C   UNL     1       1.139   9.098  20.643  0.00  0.00    +0.000 A 
ATOM      2  N   UNL     1       1.862   8.548  19.645  0.00  0.00    +0.000 NA
ATOM      3  C   UNL     1       1.539   8.851  18.371  0.00  0.00    +0.000 A 
ATOM      4  N   UNL     1       0.548   9.649  17.935  0.00  0.00    +0.000 NA
ATOM      5  C   UNL     1      -0.121  10.196  18.966  0.00  0.00    +0.000 A 
ATOM      6  C   UNL     1       0.114   9.988  20.311  0.00  0.00    +0.000 A 
ATOM      7  C   UNL     1      -0.835  10.808  20.960  0.00  0.00    +0.000 A 
ATOM      8  N   UNL     1      -1.646  11.451  20.112  0.00  0.00    +0.000 NA
ATOM      9  N   UNL     1      -1.195  11.045  18.893  0.00  0.00    +0.000 N 
ENDROOT
BRANCH   9  10
ATOM     10  C   UNL     1      -1.876  11.370  17.650  0.00  0.00    +0.000 C 
ATOM     11  O   UNL     1      -3.006  12.243  17.874  0.00  0.00    +0.000 OA
ATOM     12  C   UNL     1      -4.162  11.659  17.239  0.00  0.00    +0.000 C 
ATOM     13  C   UNL     1      -3.630  10.621  16.252  0.00  0.00    +0.000 C 
ATOM     14  C   UNL     1      -2.361  10.135  16.908  0.00  0.00    +0.000 C 
ATOM     15  F   UNL     1      -2.686   9.126  17.762  0.00  0.00    +0.000 F 
BRANCH  13  16
ATOM     16  O   UNL     1      -3.311  11.218  14.987  0.00  0.00    +0.000 OA
ATOM     17  H   UNL     1      -3.408  12.187  15.052  0.00  0.00    +0.000 HD
ENDBRANCH  13  16
BRANCH  12  18
ATOM     18  C   UNL     1      -5.088  11.094  18.323  0.00  0.00    +0.000 C 
BRANCH  18  19
ATOM     19  O   UNL     1      -5.175  11.966  19.450  0.00  0.00    +0.000 OA
BRANCH  19  20
ATOM     20  S   UNL     1      -6.633  12.445  19.972  0.00  0.00    +0.000 S 
ATOM     21  O   UNL     1      -6.525  13.775  20.521  0.00  0.00    +0.000 OA
ATOM     22  O   UNL     1      -7.603  12.101  18.962  0.00  0.00    +0.000 OA
BRANCH  20  23
ATOM     23  N   UNL     1      -6.887  11.425  21.268  0.00  0.00    +0.000 NA
ATOM     24  H   UNL     1      -6.643  10.469  21.014  0.00  0.00    +0.000 HD
ATOM     25  H   UNL     1      -7.830  11.531  21.633  0.00  0.00    +0.000 HD
ENDBRANCH  20  23
ENDBRANCH  19  20
ENDBRANCH  18  19
ENDBRANCH  12  18
ENDBRANCH   9  10
BRANCH   1  26
ATOM     26  N   UNL     1       1.450   8.724  21.937  0.00  0.00    +0.000 N 
ATOM     27  H   UNL     1       2.287   8.162  22.000  0.00  0.00    +0.000 HD
ATOM     28  H   UNL     1       1.281   9.412  22.661  0.00  0.00    +0.000 HD
ENDBRANCH   1  26
BRANCH   7  29
ATOM     29  S   UNL     1      -0.885  11.041  22.690  0.00  0.00    +0.000 S 
BRANCH  29  30
ATOM     30  C   UNL     1      -0.856  12.845  22.867  0.00  0.00    +0.000 C 
BRANCH  30  31
ATOM     31  C   UNL     1      -2.229  13.261  23.381  0.00  0.00    +0.000 C 
ATOM     32  C   UNL     1      -3.264  13.751  22.333  0.00  0.00    +0.000 C 
ATOM     33  C   UNL     1      -4.348  13.073  23.200  0.00  0.00    +0.000 C 
ATOM     34  C   UNL     1      -3.243  12.125  23.706  0.00  0.00    +0.000 C 
ENDBRANCH  30  31
ENDBRANCH  29  30
ENDBRANCH   7  29
TORSDOF 10
ENDMDL
MODEL 8
REMARK VINA RESULT:      -6.6      1.002      1.354
REMARK  Name = 
REMARK  10 active torsions:
REMARK  status: ('A' for Active; 'I' for Inactive)
REMARK    1  A    between atoms: N_1  and  C_2
REMARK    2  A    between atoms: C_8  and  S_9
REMARK    3  A    between atoms: S_9  and  C_10
REMARK    4  A    between atoms: C_10  and  C_11
REMARK    5  A    between atoms: N_16  and  C_17
REMARK    6  A    between atoms: C_19  and  C_20
REMARK    7  A    between atoms: C_20  and  O_21
REMARK    8  A    between atoms: O_21  and  S_22
REMARK    9  A    between atoms: S_22  and  N_23
REMARK   10  A    between atoms: C_26  and  O_27
REMARK                            x       y       z     vdW  Elec       q    Type
REMARK                         _______ _______ _______ _____ _____    ______ ____
ROOT
ATOM      1  C   UNL     1       1.702   4.236  19.639  0.00  0.00    +0.000 A 
ATOM      2  N   UNL     1       1.842   2.906  19.828  0.00  0.00    +0.000 NA
ATOM      3  C   UNL     1       2.701   2.228  19.042  0.00  0.00    +0.000 A 
ATOM      4  N   UNL     1       3.465   2.708  18.044  0.00  0.00    +0.000 NA
ATOM      5  C   UNL     1       3.314   4.039  17.916  0.00  0.00    +0.000 A 
ATOM      6  C   UNL     1       2.487   4.855  18.662  0.00  0.00    +0.000 A 
ATOM      7  C   UNL     1       2.723   6.150  18.151  0.00  0.00    +0.000 A 
ATOM      8  N   UNL     1       3.589   6.165  17.131  0.00  0.00    +0.000 NA
ATOM      9  N   UNL     1       3.925   4.852  16.997  0.00  0.00    +0.000 N 
ENDROOT
BRANCH   9  10
ATOM     10  C   UNL     1       4.739   4.352  15.900  0.00  0.00    +0.000 C 
ATOM     11  O   UNL     1       5.790   3.480  16.373  0.00  0.00    +0.000 OA
ATOM     12  C   UNL     1       7.042   3.943  15.826  0.00  0.00    +0.000 C 
ATOM     13  C   UNL     1       6.685   4.864  14.661  0.00  0.00    +0.000 C 
ATOM     14  C   UNL     1       5.369   5.468  15.083  0.00  0.00    +0.000 C 
ATOM     15  F   UNL     1       5.632   6.566  15.844  0.00  0.00    +0.000 F 
BRANCH  13  16
ATOM     16  O   UNL     1       6.499   4.123  13.447  0.00  0.00    +0.000 OA
ATOM     17  H   UNL     1       5.874   4.600  12.868  0.00  0.00    +0.000 HD
ENDBRANCH  13  16
BRANCH  12  18
ATOM     18  C   UNL     1       7.851   4.611  16.945  0.00  0.00    +0.000 C 
BRANCH  18  19
ATOM     19  O   UNL     1       7.269   4.378  18.228  0.00  0.00    +0.000 OA
BRANCH  19  20
ATOM     20  S   UNL     1       7.046   5.627  19.236  0.00  0.00    +0.000 S 
ATOM     21  O   UNL     1       7.522   6.835  18.606  0.00  0.00    +0.000 OA
ATOM     22  O   UNL     1       5.722   5.517  19.796  0.00  0.00    +0.000 OA
BRANCH  20  23
ATOM     23  N   UNL     1       8.128   5.281  20.459  0.00  0.00    +0.000 NA
ATOM     24  H   UNL     1       8.981   5.824  20.336  0.00  0.00    +0.000 HD
ATOM     25  H   UNL     1       8.280   4.279  20.535  0.00  0.00    +0.000 HD
ENDBRANCH  20  23
ENDBRANCH  19  20
ENDBRANCH  18  19
ENDBRANCH  12  18
ENDBRANCH   9  10
BRANCH   1  26
ATOM     26  N   UNL     1       0.770   4.897  20.417  0.00  0.00    +0.000 N 
ATOM     27  H   UNL     1       0.612   5.852  20.126  0.00  0.00    +0.000 HD
ATOM     28  H   UNL     1      -0.025   4.355  20.730  0.00  0.00    +0.000 HD
ENDBRANCH   1  26
BRANCH   7  29
ATOM     29  S   UNL     1       2.036   7.599  18.841  0.00  0.00    +0.000 S 
BRANCH  29  30
ATOM     30  C   UNL     1       2.120   7.289  20.625  0.00  0.00    +0.000 C 
BRANCH  30  31
ATOM     31  C   UNL     1       1.402   8.446  21.310  0.00  0.00    +0.000 C 
ATOM     32  C   UNL     1       0.925   9.619  20.413  0.00  0.00    +0.000 C 
ATOM     33  C   UNL     1      -0.301   9.735  21.346  0.00  0.00    +0.000 C 
ATOM     34  C   UNL     1      -0.100   8.241  21.668  0.00  0.00    +0.000 C 
ENDBRANCH  30  31
ENDBRANCH  29  30
ENDBRANCH   7  29
TORSDOF 10
ENDMDL
MODEL 9
REMARK VINA RESULT:      -6.6      1.340      1.664
REMARK  Name = 
REMARK  10 active torsions:
REMARK  status: ('A' for Active; 'I' for Inactive)
REMARK    1  A    between atoms: N_1  and  C_2
REMARK    2  A    between atoms: C_8  and  S_9
REMARK    3  A    between atoms: S_9  and  C_10
REMARK    4  A    between atoms: C_10  and  C_11
REMARK    5  A    between atoms: N_16  and  C_17
REMARK    6  A    between atoms: C_19  and  C_20
REMARK    7  A    between atoms: C_20  and  O_21
REMARK    8  A    between atoms: O_21  and  S_22
REMARK    9  A    between atoms: S_22  and  N_23
REMARK   10  A    between atoms: C_26  and  O_27
REMARK                            x       y       z     vdW  Elec       q    Type
REMARK                         _______ _______ _______ _____ _____    ______ ____
ROOT
ATOM      1  C   UNL     1       1.921   5.707  20.249  0.00  0.00    +0.000 A 
ATOM      2  N   UNL     1       1.987   4.458  20.759  0.00  0.00    +0.000 NA
ATOM      3  C   UNL     1       2.705   3.528  20.099  0.00  0.00    +0.000 A 
ATOM      4  N   UNL     1       3.387   3.671  18.948  0.00  0.00    +0.000 NA
ATOM      5  C   UNL     1       3.317   4.937  18.498  0.00  0.00    +0.000 A 
ATOM      6  C   UNL     1       2.635   5.987  19.082  0.00  0.00    +0.000 A 
ATOM      7  C   UNL     1       2.905   7.087  18.238  0.00  0.00    +0.000 A 
ATOM      8  N   UNL     1       3.652   6.767  17.175  0.00  0.00    +0.000 NA
ATOM      9  N   UNL     1       3.878   5.435  17.352  0.00  0.00    +0.000 N 
ENDROOT
BRANCH   9  10
ATOM     10  C   UNL     1       4.530   4.605  16.352  0.00  0.00    +0.000 C 
ATOM     11  O   UNL     1       5.569   3.786  16.936  0.00  0.00    +0.000 OA
ATOM     12  C   UNL     1       6.779   3.981  16.176  0.00  0.00    +0.000 C 
ATOM     13  C   UNL     1       6.356   4.610  14.850  0.00  0.00    +0.000 C 
ATOM     14  C   UNL     1       5.137   5.419  15.220  0.00  0.00    +0.000 C 
ATOM     15  F   UNL     1       5.554   6.643  15.645  0.00  0.00    +0.000 F 
BRANCH  13  16
ATOM     16  O   UNL     1       5.987   3.609  13.891  0.00  0.00    +0.000 OA
ATOM     17  H   UNL     1       6.783   3.119  13.611  0.00  0.00    +0.000 HD
ENDBRANCH  13  16
BRANCH  12  18
ATOM     18  C   UNL     1       7.750   4.831  17.005  0.00  0.00    +0.000 C 
BRANCH  18  19
ATOM     19  O   UNL     1       7.800   4.399  18.365  0.00  0.00    +0.000 OA
BRANCH  19  20
ATOM     20  S   UNL     1       7.540   5.475  19.549  0.00  0.00    +0.000 S 
ATOM     21  O   UNL     1       6.120   5.679  19.699  0.00  0.00    +0.000 OA
ATOM     22  O   UNL     1       8.394   5.132  20.659  0.00  0.00    +0.000 OA
BRANCH  20  23
ATOM     23  N   UNL     1       8.145   6.879  18.878  0.00  0.00    +0.000 NA
ATOM     24  H   UNL     1       8.515   6.691  17.948  0.00  0.00    +0.000 HD
ATOM     25  H   UNL     1       8.807   7.325  19.508  0.00  0.00    +0.000 HD
ENDBRANCH  20  23
ENDBRANCH  19  20
ENDBRANCH  18  19
ENDBRANCH  12  18
ENDBRANCH   9  10
BRANCH   1  26
ATOM     26  N   UNL     1       1.128   6.625  20.912  0.00  0.00    +0.000 N 
ATOM     27  H   UNL     1       0.162   6.605  20.617  0.00  0.00    +0.000 HD
ATOM     28  H   UNL     1       1.325   6.768  21.894  0.00  0.00    +0.000 HD
ENDBRANCH   1  26
BRANCH   7  29
ATOM     29  S   UNL     1       2.400   8.720  18.593  0.00  0.00    +0.000 S 
BRANCH  29  30
ATOM     30  C   UNL     1       0.835   8.876  17.691  0.00  0.00    +0.000 C 
BRANCH  30  31
ATOM     31  C   UNL     1      -0.074   9.763  18.533  0.00  0.00    +0.000 C 
ATOM     32  C   UNL     1       0.342  11.248  18.707  0.00  0.00    +0.000 C 
ATOM     33  C   UNL     1      -1.164  11.594  18.679  0.00  0.00    +0.000 C 
ATOM     34  C   UNL     1      -1.366  10.308  17.854  0.00  0.00    +0.000 C 
ENDBRANCH  30  31
ENDBRANCH  29  30
ENDBRANCH   7  29
TORSDOF 10
ENDMDL
