MODEL 1
REMARK VINA RESULT:      -8.1      0.000      0.000
REMARK  Name = 
REMARK  8 active torsions:
REMARK  status: ('A' for Active; 'I' for Inactive)
REMARK    1  A    between atoms: C_1  and  N_2
REMARK    2  A    between atoms: C_3  and  C_5
REMARK    3  A    between atoms: C_6  and  N_7
REMARK    4  A    between atoms: C_8  and  C_10
REMARK    5  A    between atoms: C_12  and  S_13
REMARK    6  A    between atoms: S_13  and  C_14
REMARK    7  A    between atoms: C_14  and  C_15
REMARK    8  A    between atoms: C_18  and  C_19
REMARK                            x       y       z     vdW  Elec       q    Type
REMARK                         _______ _______ _______ _____ _____    ______ ____
ROOT
ATOM      1  N   UNL     1       4.392   5.190  17.679  0.00  0.00    +0.000 N 
ATOM      2  C   UNL     1       3.794   6.434  17.865  0.00  0.00    +0.000 C 
ATOM      3  O   UNL     1       3.910   7.382  17.099  0.00  0.00    +0.000 OA
ATOM      4  H   UNL     1       3.930   4.418  18.156  0.00  0.00    +0.000 HD
ENDROOT
BRANCH   1   6
ATOM      5  C   UNL     1       6.341   5.385  16.119  0.00  0.00    +0.000 A 
ATOM      6  C   UNL     1       5.102   4.905  16.520  0.00  0.00    +0.000 A 
ATOM      7  S   UNL     1       4.331   3.955  15.337  0.00  0.00    +0.000 S 
ATOM      8  C   UNL     1       5.611   4.176  14.242  0.00  0.00    +0.000 A 
ATOM      9  C   UNL     1       6.634   4.947  14.766  0.00  0.00    +0.000 A 
ATOM     10  C   UNL     1       7.894   5.199  13.980  0.00  0.00    +0.000 C 
ATOM     11  C   UNL     1       7.691   4.954  12.475  0.00  0.00    +0.000 C 
ATOM     12  C   UNL     1       6.961   3.633  12.206  0.00  0.00    +0.000 C 
ATOM     13  C   UNL     1       5.571   3.603  12.857  0.00  0.00    +0.000 C 
BRANCH   5  16
ATOM     14  C   UNL     1       7.839   8.466  17.635  0.00  0.00    +0.000 C 
ATOM     15  N   UNL     1       7.092   7.540  16.828  0.00  0.00    +0.000 N 
ATOM     16  C   UNL     1       7.231   6.173  16.976  0.00  0.00    +0.000 C 
ATOM     17  O   UNL     1       8.006   5.668  17.780  0.00  0.00    +0.000 OA
ATOM     18  H   UNL     1       6.245   7.864  16.379  0.00  0.00    +0.000 HD
ENDBRANCH   5  16
ENDBRANCH   1   6
BRANCH   2  19
ATOM     19  C   UNL     1       2.857   6.492  19.049  0.00  0.00    +0.000 A 
ATOM     20  N   UNL     1       2.316   7.729  19.275  0.00  0.00    +0.000 NA
ATOM     21  C   UNL     1       1.478   7.845  20.320  0.00  0.00    +0.000 A 
ATOM     22  N   UNL     1       1.184   6.846  21.166  0.00  0.00    +0.000 NA
ATOM     23  C   UNL     1       1.755   5.648  20.910  0.00  0.00    +0.000 A 
ATOM     24  C   UNL     1       2.605   5.397  19.856  0.00  0.00    +0.000 A 
ATOM     25 CL   UNL     1       3.247   3.813  19.691  0.00  0.00    +0.000 Cl
BRANCH  21  26
ATOM     26  S   UNL     1       0.637   9.396  20.507  0.00  0.00    +0.000 S 
BRANCH  26  27
ATOM     27  C   UNL     1       0.529   9.949  18.770  0.00  0.00    +0.000 C 
BRANCH  27  28
ATOM     28  C   UNL     1      -0.883  10.362  18.406  0.00  0.00    +0.000 A 
ATOM     29  C   UNL     1      -1.519   9.828  17.277  0.00  0.00    +0.000 A 
ATOM     30  C   UNL     1      -2.805  10.244  16.911  0.00  0.00    +0.000 A 
ATOM     31  C   UNL     1      -3.481  11.209  17.667  0.00  0.00    +0.000 A 
ATOM     32  C   UNL     1      -4.830  11.724  17.241  0.00  0.00    +0.000 C 
ATOM     33  C   UNL     1      -2.859  11.731  18.805  0.00  0.00    +0.000 A 
ATOM     34  C   UNL     1      -1.574  11.313  19.174  0.00  0.00    +0.000 A 
ENDBRANCH  27  28
ENDBRANCH  26  27
ENDBRANCH  21  26
ENDBRANCH   2  19
TORSDOF 6
ENDMDL
MODEL 2
REMARK VINA RESULT:      -7.9      2.512      3.877
REMARK  Name = 
REMARK  8 active torsions:
REMARK  status: ('A' for Active; 'I' for Inactive)
REMARK    1  A    between atoms: C_1  and  N_2
REMARK    2  A    between atoms: C_3  and  C_5
REMARK    3  A    between atoms: C_6  and  N_7
REMARK    4  A    between atoms: C_8  and  C_10
REMARK    5  A    between atoms: C_12  and  S_13
REMARK    6  A    between atoms: S_13  and  C_14
REMARK    7  A    between atoms: C_14  and  C_15
REMARK    8  A    between atoms: C_18  and  C_19
REMARK                            x       y       z     vdW  Elec       q    Type
REMARK                         _______ _______ _______ _____ _____    ______ ____
ROOT
ATOM      1  N   UNL     1       2.900   7.478  18.942  0.00  0.00    +0.000 N 
ATOM      2  C   UNL     1       2.065   8.509  18.518  0.00  0.00    +0.000 C 
ATOM      3  O   UNL     1       1.949   8.876  17.355  0.00  0.00    +0.000 OA
ATOM      4  H   UNL     1       2.629   7.042  19.821  0.00  0.00    +0.000 HD
ENDROOT
BRANCH   1   6
ATOM      5  C   UNL     1       3.384   5.390  17.648  0.00  0.00    +0.000 A 
ATOM      6  C   UNL     1       3.604   6.707  18.025  0.00  0.00    +0.000 A 
ATOM      7  S   UNL     1       5.018   7.374  17.355  0.00  0.00    +0.000 S 
ATOM      8  C   UNL     1       5.398   5.921  16.561  0.00  0.00    +0.000 A 
ATOM      9  C   UNL     1       4.454   4.933  16.778  0.00  0.00    +0.000 A 
ATOM     10  C   UNL     1       4.568   3.591  16.102  0.00  0.00    +0.000 C 
ATOM     11  C   UNL     1       5.999   3.315  15.611  0.00  0.00    +0.000 C 
ATOM     12  C   UNL     1       6.587   4.519  14.864  0.00  0.00    +0.000 C 
ATOM     13  C   UNL     1       6.650   5.770  15.751  0.00  0.00    +0.000 C 
BRANCH   5  16
ATOM     14  C   UNL     1       1.231   3.253  19.845  0.00  0.00    +0.000 C 
ATOM     15  N   UNL     1       2.315   4.004  19.275  0.00  0.00    +0.000 N 
ATOM     16  C   UNL     1       2.206   4.610  18.038  0.00  0.00    +0.000 C 
ATOM     17  O   UNL     1       1.196   4.531  17.347  0.00  0.00    +0.000 OA
ATOM     18  H   UNL     1       3.036   4.357  19.891  0.00  0.00    +0.000 HD
ENDBRANCH   5  16
ENDBRANCH   1   6
BRANCH   2  19
ATOM     19  C   UNL     1       1.187   9.073  19.610  0.00  0.00    +0.000 A 
ATOM     20  N   UNL     1       0.819  10.377  19.416  0.00  0.00    +0.000 NA
ATOM     21  C   UNL     1       0.042  10.937  20.359  0.00  0.00    +0.000 A 
ATOM     22  N   UNL     1      -0.349  10.316  21.482  0.00  0.00    +0.000 NA
ATOM     23  C   UNL     1       0.052   9.034  21.636  0.00  0.00    +0.000 A 
ATOM     24  C   UNL     1       0.824   8.343  20.728  0.00  0.00    +0.000 A 
ATOM     25 CL   UNL     1       1.248   6.720  21.094  0.00  0.00    +0.000 Cl
BRANCH  21  26
ATOM     26  S   UNL     1      -0.584  12.563  20.023  0.00  0.00    +0.000 S 
BRANCH  26  27
ATOM     27  C   UNL     1      -2.378  12.237  19.929  0.00  0.00    +0.000 C 
BRANCH  27  28
ATOM     28  C   UNL     1      -2.781  11.749  18.552  0.00  0.00    +0.000 A 
ATOM     29  C   UNL     1      -4.126  11.503  18.242  0.00  0.00    +0.000 A 
ATOM     30  C   UNL     1      -4.496  11.005  16.986  0.00  0.00    +0.000 A 
ATOM     31  C   UNL     1      -3.526  10.740  16.013  0.00  0.00    +0.000 A 
ATOM     32  C   UNL     1      -3.900  10.130  14.689  0.00  0.00    +0.000 C 
ATOM     33  C   UNL     1      -2.184  11.001  16.311  0.00  0.00    +0.000 A 
ATOM     34  C   UNL     1      -1.813  11.502  17.565  0.00  0.00    +0.000 A 
ENDBRANCH  27  28
ENDBRANCH  26  27
ENDBRANCH  21  26
ENDBRANCH   2  19
TORSDOF 6
ENDMDL
MODEL 3
REMARK VINA RESULT:      -7.7      2.513      3.896
REMARK  Name = 
REMARK  8 active torsions:
REMARK  status: ('A' for Active; 'I' for Inactive)
REMARK    1  A    between atoms: C_1  and  N_2
REMARK    2  A    between atoms: C_3  and  C_5
REMARK    3  A    between atoms: C_6  and  N_7
REMARK    4  A    between atoms: C_8  and  C_10
REMARK    5  A    between atoms: C_12  and  S_13
REMARK    6  A    between atoms: S_13  and  C_14
REMARK    7  A    between atoms: C_14  and  C_15
REMARK    8  A    between atoms: C_18  and  C_19
REMARK                            x       y       z     vdW  Elec       q    Type
REMARK                         _______ _______ _______ _____ _____    ______ ____
ROOT
ATOM      1  N   UNL     1       2.867   7.352  18.974  0.00  0.00    +0.000 N 
ATOM      2  C   UNL     1       2.111   8.452  18.581  0.00  0.00    +0.000 C 
ATOM      3  O   UNL     1       2.065   8.891  17.438  0.00  0.00    +0.000 OA
ATOM      4  H   UNL     1       2.535   6.882  19.815  0.00  0.00    +0.000 HD
ENDROOT
BRANCH   1   6
ATOM      5  C   UNL     1       3.356   5.276  17.662  0.00  0.00    +0.000 A 
ATOM      6  C   UNL     1       3.565   6.594  18.042  0.00  0.00    +0.000 A 
ATOM      7  S   UNL     1       4.958   7.284  17.349  0.00  0.00    +0.000 S 
ATOM      8  C   UNL     1       5.343   5.839  16.542  0.00  0.00    +0.000 A 
ATOM      9  C   UNL     1       4.417   4.837  16.771  0.00  0.00    +0.000 A 
ATOM     10  C   UNL     1       4.536   3.500  16.088  0.00  0.00    +0.000 C 
ATOM     11  C   UNL     1       5.963   3.246  15.569  0.00  0.00    +0.000 C 
ATOM     12  C   UNL     1       6.520   4.461  14.817  0.00  0.00    +0.000 C 
ATOM     13  C   UNL     1       6.582   5.710  15.708  0.00  0.00    +0.000 C 
BRANCH   5  16
ATOM     14  C   UNL     1       1.270   3.107  19.892  0.00  0.00    +0.000 C 
ATOM     15  N   UNL     1       2.334   3.874  19.305  0.00  0.00    +0.000 N 
ATOM     16  C   UNL     1       2.196   4.478  18.071  0.00  0.00    +0.000 C 
ATOM     17  O   UNL     1       1.178   4.384  17.395  0.00  0.00    +0.000 OA
ATOM     18  H   UNL     1       3.058   4.238  19.911  0.00  0.00    +0.000 HD
ENDBRANCH   5  16
ENDBRANCH   1   6
BRANCH   2  19
ATOM     19  C   UNL     1       1.220   9.004  19.669  0.00  0.00    +0.000 A 
ATOM     20  N   UNL     1       0.858  10.312  19.489  0.00  0.00    +0.000 NA
ATOM     21  C   UNL     1       0.070  10.860  20.430  0.00  0.00    +0.000 A 
ATOM     22  N   UNL     1      -0.337  10.224  21.538  0.00  0.00    +0.000 NA
ATOM     23  C   UNL     1       0.059   8.939  21.680  0.00  0.00    +0.000 A 
ATOM     24  C   UNL     1       0.841   8.259  20.772  0.00  0.00    +0.000 A 
ATOM     25 CL   UNL     1       1.257   6.630  21.121  0.00  0.00    +0.000 Cl
BRANCH  21  26
ATOM     26  S   UNL     1      -0.547  12.493  20.109  0.00  0.00    +0.000 S 
BRANCH  26  27
ATOM     27  C   UNL     1      -1.169  12.304  18.403  0.00  0.00    +0.000 C 
BRANCH  27  28
ATOM     28  C   UNL     1      -2.648  11.974  18.385  0.00  0.00    +0.000 A 
ATOM     29  C   UNL     1      -3.483  12.366  19.440  0.00  0.00    +0.000 A 
ATOM     30  C   UNL     1      -4.841  12.020  19.450  0.00  0.00    +0.000 A 
ATOM     31  C   UNL     1      -5.390  11.271  18.403  0.00  0.00    +0.000 A 
ATOM     32  C   UNL     1      -6.827  10.824  18.438  0.00  0.00    +0.000 C 
ATOM     33  C   UNL     1      -4.565  10.894  17.338  0.00  0.00    +0.000 A 
ATOM     34  C   UNL     1      -3.209  11.241  17.326  0.00  0.00    +0.000 A 
ENDBRANCH  27  28
ENDBRANCH  26  27
ENDBRANCH  21  26
ENDBRANCH   2  19
TORSDOF 6
ENDMDL
MODEL 4
REMARK VINA RESULT:      -7.7      3.690      5.614
REMARK  Name = 
REMARK  8 active torsions:
REMARK  status: ('A' for Active; 'I' for Inactive)
REMARK    1  A    between atoms: C_1  and  N_2
REMARK    2  A    between atoms: C_3  and  C_5
REMARK    3  A    between atoms: C_6  and  N_7
REMARK    4  A    between atoms: C_8  and  C_10
REMARK    5  A    between atoms: C_12  and  S_13
REMARK    6  A    between atoms: S_13  and  C_14
REMARK    7  A    between atoms: C_14  and  C_15
REMARK    8  A    between atoms: C_18  and  C_19
REMARK                            x       y       z     vdW  Elec       q    Type
REMARK                         _______ _______ _______ _____ _____    ______ ____
ROOT
ATOM      1  N   UNL     1       2.095   7.941  19.896  0.00  0.00    +0.000 N 
ATOM      2  C   UNL     1       1.347   8.782  19.076  0.00  0.00    +0.000 C 
ATOM      3  O   UNL     1       0.884   8.461  17.988  0.00  0.00    +0.000 OA
ATOM      4  H   UNL     1       2.089   8.190  20.883  0.00  0.00    +0.000 HD
ENDROOT
BRANCH   1   6
ATOM      5  C   UNL     1       3.091   6.063  18.573  0.00  0.00    +0.000 A 
ATOM      6  C   UNL     1       2.286   6.606  19.565  0.00  0.00    +0.000 A 
ATOM      7  S   UNL     1       1.320   5.451  20.358  0.00  0.00    +0.000 S 
ATOM      8  C   UNL     1       1.924   4.194  19.387  0.00  0.00    +0.000 A 
ATOM      9  C   UNL     1       2.869   4.631  18.476  0.00  0.00    +0.000 A 
ATOM     10  C   UNL     1       3.580   3.659  17.571  0.00  0.00    +0.000 C 
ATOM     11  C   UNL     1       2.815   2.330  17.441  0.00  0.00    +0.000 C 
ATOM     12  C   UNL     1       2.359   1.800  18.806  0.00  0.00    +0.000 C 
ATOM     13  C   UNL     1       1.427   2.786  19.523  0.00  0.00    +0.000 C 
BRANCH   5  16
ATOM     14  C   UNL     1       6.444   7.033  17.212  0.00  0.00    +0.000 C 
ATOM     15  N   UNL     1       5.370   6.431  17.953  0.00  0.00    +0.000 N 
ATOM     16  C   UNL     1       4.059   6.835  17.788  0.00  0.00    +0.000 C 
ATOM     17  O   UNL     1       3.733   7.735  17.022  0.00  0.00    +0.000 OA
ATOM     18  H   UNL     1       5.515   5.514  18.357  0.00  0.00    +0.000 HD
ENDBRANCH   5  16
ENDBRANCH   1   6
BRANCH   2  19
ATOM     19  C   UNL     1       1.025  10.120  19.701  0.00  0.00    +0.000 A 
ATOM     20  N   UNL     1       0.190  10.046  20.783  0.00  0.00    +0.000 NA
ATOM     21  C   UNL     1      -0.137  11.206  21.379  0.00  0.00    +0.000 A 
ATOM     22  N   UNL     1       0.263  12.413  20.952  0.00  0.00    +0.000 NA
ATOM     23  C   UNL     1       1.073  12.435  19.870  0.00  0.00    +0.000 A 
ATOM     24  C   UNL     1       1.502  11.315  19.193  0.00  0.00    +0.000 A 
ATOM     25 CL   UNL     1       2.523  11.533  17.830  0.00  0.00    +0.000 Cl
BRANCH  21  26
ATOM     26  S   UNL     1      -1.069  11.101  22.885  0.00  0.00    +0.000 S 
BRANCH  26  27
ATOM     27  C   UNL     1      -1.709  12.805  23.023  0.00  0.00    +0.000 C 
BRANCH  27  28
ATOM     28  C   UNL     1      -3.216  12.821  23.179  0.00  0.00    +0.000 A 
ATOM     29  C   UNL     1      -3.814  12.511  24.409  0.00  0.00    +0.000 A 
ATOM     30  C   UNL     1      -5.208  12.478  24.543  0.00  0.00    +0.000 A 
ATOM     31  C   UNL     1      -6.034  12.750  23.447  0.00  0.00    +0.000 A 
ATOM     32  C   UNL     1      -7.531  12.639  23.556  0.00  0.00    +0.000 C 
ATOM     33  C   UNL     1      -5.442  13.078  22.223  0.00  0.00    +0.000 A 
ATOM     34  C   UNL     1      -4.049  13.115  22.088  0.00  0.00    +0.000 A 
ENDBRANCH  27  28
ENDBRANCH  26  27
ENDBRANCH  21  26
ENDBRANCH   2  19
TORSDOF 6
ENDMDL
MODEL 5
REMARK VINA RESULT:      -7.7      2.722      8.810
REMARK  Name = 
REMARK  8 active torsions:
REMARK  status: ('A' for Active; 'I' for Inactive)
REMARK    1  A    between atoms: C_1  and  N_2
REMARK    2  A    between atoms: C_3  and  C_5
REMARK    3  A    between atoms: C_6  and  N_7
REMARK    4  A    between atoms: C_8  and  C_10
REMARK    5  A    between atoms: C_12  and  S_13
REMARK    6  A    between atoms: S_13  and  C_14
REMARK    7  A    between atoms: C_14  and  C_15
REMARK    8  A    between atoms: C_18  and  C_19
REMARK                            x       y       z     vdW  Elec       q    Type
REMARK                         _______ _______ _______ _____ _____    ______ ____
ROOT
ATOM      1  N   UNL     1       2.266   7.120  20.788  0.00  0.00    +0.000 N 
ATOM      2  C   UNL     1       1.762   5.849  20.526  0.00  0.00    +0.000 C 
ATOM      3  O   UNL     1       0.574   5.586  20.387  0.00  0.00    +0.000 OA
ATOM      4  H   UNL     1       3.236   7.262  20.512  0.00  0.00    +0.000 HD
ENDROOT
BRANCH   1   6
ATOM      5  C   UNL     1       1.124   9.106  19.776  0.00  0.00    +0.000 A 
ATOM      6  C   UNL     1       1.430   8.229  20.808  0.00  0.00    +0.000 A 
ATOM      7  S   UNL     1       0.780   8.700  22.308  0.00  0.00    +0.000 S 
ATOM      8  C   UNL     1       0.093  10.102  21.637  0.00  0.00    +0.000 A 
ATOM      9  C   UNL     1       0.330  10.214  20.278  0.00  0.00    +0.000 A 
ATOM     10  C   UNL     1      -0.256  11.349  19.480  0.00  0.00    +0.000 C 
ATOM     11  C   UNL     1      -0.669  12.529  20.378  0.00  0.00    +0.000 C 
ATOM     12  C   UNL     1      -1.462  12.061  21.604  0.00  0.00    +0.000 C 
ATOM     13  C   UNL     1      -0.652  11.094  22.478  0.00  0.00    +0.000 C 
BRANCH   5  16
ATOM     14  C   UNL     1       3.201   7.857  16.919  0.00  0.00    +0.000 C 
ATOM     15  N   UNL     1       2.701   8.210  18.220  0.00  0.00    +0.000 N 
ATOM     16  C   UNL     1       1.512   8.895  18.378  0.00  0.00    +0.000 C 
ATOM     17  O   UNL     1       0.825   9.260  17.431  0.00  0.00    +0.000 OA
ATOM     18  H   UNL     1       3.040   7.696  19.023  0.00  0.00    +0.000 HD
ENDBRANCH   5  16
ENDBRANCH   1   6
BRANCH   2  19
ATOM     19  C   UNL     1       2.828   4.804  20.290  0.00  0.00    +0.000 A 
ATOM     20  N   UNL     1       3.963   5.286  19.694  0.00  0.00    +0.000 NA
ATOM     21  C   UNL     1       4.946   4.402  19.453  0.00  0.00    +0.000 A 
ATOM     22  N   UNL     1       4.861   3.089  19.715  0.00  0.00    +0.000 NA
ATOM     23  C   UNL     1       3.715   2.658  20.289  0.00  0.00    +0.000 A 
ATOM     24  C   UNL     1       2.651   3.470  20.611  0.00  0.00    +0.000 A 
ATOM     25 CL   UNL     1       1.268   2.748  21.328  0.00  0.00    +0.000 Cl
BRANCH  21  26
ATOM     26  S   UNL     1       6.482   5.053  18.849  0.00  0.00    +0.000 S 
BRANCH  26  27
ATOM     27  C   UNL     1       5.905   6.072  17.448  0.00  0.00    +0.000 C 
BRANCH  27  28
ATOM     28  C   UNL     1       6.038   5.333  16.132  0.00  0.00    +0.000 A 
ATOM     29  C   UNL     1       7.209   5.433  15.367  0.00  0.00    +0.000 A 
ATOM     30  C   UNL     1       7.316   4.790  14.127  0.00  0.00    +0.000 A 
ATOM     31  C   UNL     1       6.251   4.034  13.625  0.00  0.00    +0.000 A 
ATOM     32  C   UNL     1       6.322   3.404  12.260  0.00  0.00    +0.000 C 
ATOM     33  C   UNL     1       5.088   3.914  14.393  0.00  0.00    +0.000 A 
ATOM     34  C   UNL     1       4.981   4.555  15.634  0.00  0.00    +0.000 A 
ENDBRANCH  27  28
ENDBRANCH  26  27
ENDBRANCH  21  26
ENDBRANCH   2  19
TORSDOF 6
ENDMDL
MODEL 6
REMARK VINA RESULT:      -7.7      5.184     11.447
REMARK  Name = 
REMARK  8 active torsions:
REMARK  status: ('A' for Active; 'I' for Inactive)
REMARK    1  A    between atoms: C_1  and  N_2
REMARK    2  A    between atoms: C_3  and  C_5
REMARK    3  A    between atoms: C_6  and  N_7
REMARK    4  A    between atoms: C_8  and  C_10
REMARK    5  A    between atoms: C_12  and  S_13
REMARK    6  A    between atoms: S_13  and  C_14
REMARK    7  A    between atoms: C_14  and  C_15
REMARK    8  A    between atoms: C_18  and  C_19
REMARK                            x       y       z     vdW  Elec       q    Type
REMARK                         _______ _______ _______ _____ _____    ______ ____
ROOT
ATOM      1  N   UNL     1      -2.002  12.819  19.531  0.00  0.00    +0.000 N 
ATOM      2  C   UNL     1      -1.000  12.072  20.145  0.00  0.00    +0.000 C 
ATOM      3  O   UNL     1      -1.119  11.500  21.221  0.00  0.00    +0.000 OA
ATOM      4  H   UNL     1      -1.909  12.912  18.521  0.00  0.00    +0.000 HD
ENDROOT
BRANCH   1   6
ATOM      5  C   UNL     1      -3.706  13.539  21.218  0.00  0.00    +0.000 A 
ATOM      6  C   UNL     1      -3.279  12.881  20.072  0.00  0.00    +0.000 A 
ATOM      7  S   UNL     1      -4.489  11.927  19.351  0.00  0.00    +0.000 S 
ATOM      8  C   UNL     1      -5.614  12.337  20.557  0.00  0.00    +0.000 A 
ATOM      9  C   UNL     1      -5.094  13.210  21.497  0.00  0.00    +0.000 A 
ATOM     10  C   UNL     1      -5.952  13.753  22.608  0.00  0.00    +0.000 C 
ATOM     11  C   UNL     1      -7.203  12.889  22.843  0.00  0.00    +0.000 C 
ATOM     12  C   UNL     1      -7.911  12.543  21.527  0.00  0.00    +0.000 C 
ATOM     13  C   UNL     1      -6.998  11.761  20.572  0.00  0.00    +0.000 C 
BRANCH   5  16
ATOM     14  C   UNL     1      -1.242  14.624  23.822  0.00  0.00    +0.000 C 
ATOM     15  N   UNL     1      -2.158  13.875  23.006  0.00  0.00    +0.000 N 
ATOM     16  C   UNL     1      -2.876  14.470  21.987  0.00  0.00    +0.000 C 
ATOM     17  O   UNL     1      -2.794  15.665  21.728  0.00  0.00    +0.000 OA
ATOM     18  H   UNL     1      -2.052  12.869  22.960  0.00  0.00    +0.000 HD
ENDBRANCH   5  16
ENDBRANCH   1   6
BRANCH   2  19
ATOM     19  C   UNL     1       0.242  11.903  19.301  0.00  0.00    +0.000 A 
ATOM     20  N   UNL     1       0.582  10.600  19.057  0.00  0.00    +0.000 NA
ATOM     21  C   UNL     1       1.683  10.386  18.316  0.00  0.00    +0.000 A 
ATOM     22  N   UNL     1       2.479  11.359  17.850  0.00  0.00    +0.000 NA
ATOM     23  C   UNL     1       2.112  12.630  18.130  0.00  0.00    +0.000 A 
ATOM     24  C   UNL     1       0.992  12.977  18.853  0.00  0.00    +0.000 A 
ATOM     25 CL   UNL     1       0.685  14.645  19.122  0.00  0.00    +0.000 Cl
BRANCH  21  26
ATOM     26  S   UNL     1       2.022   8.709  17.847  0.00  0.00    +0.000 S 
BRANCH  26  27
ATOM     27  C   UNL     1       2.147   7.905  19.482  0.00  0.00    +0.000 C 
BRANCH  27  28
ATOM     28  C   UNL     1       2.189   6.395  19.356  0.00  0.00    +0.000 A 
ATOM     29  C   UNL     1       2.568   5.786  18.152  0.00  0.00    +0.000 A 
ATOM     30  C   UNL     1       2.561   4.391  18.018  0.00  0.00    +0.000 A 
ATOM     31  C   UNL     1       2.169   3.577  19.087  0.00  0.00    +0.000 A 
ATOM     32  C   UNL     1       2.079   2.082  18.932  0.00  0.00    +0.000 C 
ATOM     33  C   UNL     1       1.808   4.180  20.296  0.00  0.00    +0.000 A 
ATOM     34  C   UNL     1       1.818   5.574  20.432  0.00  0.00    +0.000 A 
ENDBRANCH  27  28
ENDBRANCH  26  27
ENDBRANCH  21  26
ENDBRANCH   2  19
TORSDOF 6
ENDMDL
MODEL 7
REMARK VINA RESULT:      -7.6      2.751      4.369
REMARK  Name = 
REMARK  8 active torsions:
REMARK  status: ('A' for Active; 'I' for Inactive)
REMARK    1  A    between atoms: C_1  and  N_2
REMARK    2  A    between atoms: C_3  and  C_5
REMARK    3  A    between atoms: C_6  and  N_7
REMARK    4  A    between atoms: C_8  and  C_10
REMARK    5  A    between atoms: C_12  and  S_13
REMARK    6  A    between atoms: S_13  and  C_14
REMARK    7  A    between atoms: C_14  and  C_15
REMARK    8  A    between atoms: C_18  and  C_19
REMARK                            x       y       z     vdW  Elec       q    Type
REMARK                         _______ _______ _______ _____ _____    ______ ____
ROOT
ATOM      1  N   UNL     1       2.603   7.648  18.823  0.00  0.00    +0.000 N 
ATOM      2  C   UNL     1       2.008   8.807  18.329  0.00  0.00    +0.000 C 
ATOM      3  O   UNL     1       2.152   9.230  17.188  0.00  0.00    +0.000 OA
ATOM      4  H   UNL     1       2.122   7.225  19.615  0.00  0.00    +0.000 HD
ENDROOT
BRANCH   1   6
ATOM      5  C   UNL     1       3.172   5.461  17.746  0.00  0.00    +0.000 A 
ATOM      6  C   UNL     1       3.343   6.816  17.994  0.00  0.00    +0.000 A 
ATOM      7  S   UNL     1       4.742   7.462  17.272  0.00  0.00    +0.000 S 
ATOM      8  C   UNL     1       5.179   5.952  16.629  0.00  0.00    +0.000 A 
ATOM      9  C   UNL     1       4.266   4.957  16.934  0.00  0.00    +0.000 A 
ATOM     10  C   UNL     1       4.433   3.561  16.396  0.00  0.00    +0.000 C 
ATOM     11  C   UNL     1       5.879   3.287  15.946  0.00  0.00    +0.000 C 
ATOM     12  C   UNL     1       6.434   4.431  15.089  0.00  0.00    +0.000 C 
ATOM     13  C   UNL     1       6.445   5.765  15.848  0.00  0.00    +0.000 C 
BRANCH   5  16
ATOM     14  C   UNL     1       0.910   3.748  20.192  0.00  0.00    +0.000 C 
ATOM     15  N   UNL     1       2.001   4.439  19.561  0.00  0.00    +0.000 N 
ATOM     16  C   UNL     1       2.016   4.683  18.202  0.00  0.00    +0.000 C 
ATOM     17  O   UNL     1       1.120   4.312  17.451  0.00  0.00    +0.000 OA
ATOM     18  H   UNL     1       2.600   5.021  20.134  0.00  0.00    +0.000 HD
ENDBRANCH   5  16
ENDBRANCH   1   6
BRANCH   2  19
ATOM     19  C   UNL     1       1.039   9.455  19.289  0.00  0.00    +0.000 A 
ATOM     20  N   UNL     1       0.533  10.650  18.854  0.00  0.00    +0.000 NA
ATOM     21  C   UNL     1      -0.331  11.278  19.670  0.00  0.00    +0.000 A 
ATOM     22  N   UNL     1      -0.685  10.831  20.884  0.00  0.00    +0.000 NA
ATOM     23  C   UNL     1      -0.147   9.654  21.276  0.00  0.00    +0.000 A 
ATOM     24  C   UNL     1       0.725   8.903  20.519  0.00  0.00    +0.000 A 
ATOM     25 CL   UNL     1       1.318   7.435  21.182  0.00  0.00    +0.000 Cl
BRANCH  21  26
ATOM     26  S   UNL     1      -1.125  12.732  19.033  0.00  0.00    +0.000 S 
BRANCH  26  27
ATOM     27  C   UNL     1      -2.042  13.304  20.505  0.00  0.00    +0.000 C 
BRANCH  27  28
ATOM     28  C   UNL     1      -3.478  12.821  20.486  0.00  0.00    +0.000 A 
ATOM     29  C   UNL     1      -4.033  12.265  19.324  0.00  0.00    +0.000 A 
ATOM     30  C   UNL     1      -5.375  11.861  19.289  0.00  0.00    +0.000 A 
ATOM     31  C   UNL     1      -6.190  12.010  20.417  0.00  0.00    +0.000 A 
ATOM     32  C   UNL     1      -7.653  11.657  20.369  0.00  0.00    +0.000 C 
ATOM     33  C   UNL     1      -5.636  12.547  21.583  0.00  0.00    +0.000 A 
ATOM     34  C   UNL     1      -4.295  12.948  21.621  0.00  0.00    +0.000 A 
ENDBRANCH  27  28
ENDBRANCH  26  27
ENDBRANCH  21  26
ENDBRANCH   2  19
TORSDOF 6
ENDMDL
MODEL 8
REMARK VINA RESULT:      -7.6      1.075      1.589
REMARK  Name = 
REMARK  8 active torsions:
REMARK  status: ('A' for Active; 'I' for Inactive)
REMARK    1  A    between atoms: C_1  and  N_2
REMARK    2  A    between atoms: C_3  and  C_5
REMARK    3  A    between atoms: C_6  and  N_7
REMARK    4  A    between atoms: C_8  and  C_10
REMARK    5  A    between atoms: C_12  and  S_13
REMARK    6  A    between atoms: S_13  and  C_14
REMARK    7  A    between atoms: C_14  and  C_15
REMARK    8  A    between atoms: C_18  and  C_19
REMARK                            x       y       z     vdW  Elec       q    Type
REMARK                         _______ _______ _______ _____ _____    ______ ____
ROOT
ATOM      1  N   UNL     1       4.488   4.793  17.546  0.00  0.00    +0.000 N 
ATOM      2  C   UNL     1       3.799   5.973  17.818  0.00  0.00    +0.000 C 
ATOM      3  O   UNL     1       3.841   6.979  17.121  0.00  0.00    +0.000 OA
ATOM      4  H   UNL     1       4.087   3.957  17.966  0.00  0.00    +0.000 HD
ENDROOT
BRANCH   1   6
ATOM      5  C   UNL     1       6.409   5.250  16.006  0.00  0.00    +0.000 A 
ATOM      6  C   UNL     1       5.215   4.645  16.372  0.00  0.00    +0.000 A 
ATOM      7  S   UNL     1       4.519   3.718  15.126  0.00  0.00    +0.000 S 
ATOM      8  C   UNL     1       5.773   4.116  14.050  0.00  0.00    +0.000 A 
ATOM      9  C   UNL     1       6.732   4.929  14.627  0.00  0.00    +0.000 A 
ATOM     10  C   UNL     1       7.965   5.334  13.863  0.00  0.00    +0.000 C 
ATOM     11  C   UNL     1       7.777   5.176  12.344  0.00  0.00    +0.000 C 
ATOM     12  C   UNL     1       7.154   3.821  11.986  0.00  0.00    +0.000 C 
ATOM     13  C   UNL     1       5.774   3.635  12.630  0.00  0.00    +0.000 C 
BRANCH   5  16
ATOM     14  C   UNL     1       7.755   8.345  17.630  0.00  0.00    +0.000 C 
ATOM     15  N   UNL     1       7.072   7.413  16.777  0.00  0.00    +0.000 N 
ATOM     16  C   UNL     1       7.237   6.048  16.916  0.00  0.00    +0.000 C 
ATOM     17  O   UNL     1       7.982   5.551  17.753  0.00  0.00    +0.000 OA
ATOM     18  H   UNL     1       6.242   7.723  16.289  0.00  0.00    +0.000 HD
ENDBRANCH   5  16
ENDBRANCH   1   6
BRANCH   2  19
ATOM     19  C   UNL     1       2.863   5.876  19.000  0.00  0.00    +0.000 A 
ATOM     20  N   UNL     1       2.561   7.081  19.575  0.00  0.00    +0.000 NA
ATOM     21  C   UNL     1       1.736   7.058  20.637  0.00  0.00    +0.000 A 
ATOM     22  N   UNL     1       1.239   5.939  21.183  0.00  0.00    +0.000 NA
ATOM     23  C   UNL     1       1.580   4.772  20.590  0.00  0.00    +0.000 A 
ATOM     24  C   UNL     1       2.391   4.668  19.482  0.00  0.00    +0.000 A 
ATOM     25 CL   UNL     1       2.726   3.100  18.866  0.00  0.00    +0.000 Cl
BRANCH  21  26
ATOM     26  S   UNL     1       1.199   8.627  21.270  0.00  0.00    +0.000 S 
BRANCH  26  27
ATOM     27  C   UNL     1       0.836   9.525  19.723  0.00  0.00    +0.000 C 
BRANCH  27  28
ATOM     28  C   UNL     1      -0.262  10.550  19.921  0.00  0.00    +0.000 A 
ATOM     29  C   UNL     1      -0.492  11.122  21.181  0.00  0.00    +0.000 A 
ATOM     30  C   UNL     1      -1.537  12.034  21.378  0.00  0.00    +0.000 A 
ATOM     31  C   UNL     1      -2.378  12.390  20.318  0.00  0.00    +0.000 A 
ATOM     32  C   UNL     1      -3.553  13.306  20.533  0.00  0.00    +0.000 C 
ATOM     33  C   UNL     1      -2.141  11.837  19.055  0.00  0.00    +0.000 A 
ATOM     34  C   UNL     1      -1.095  10.928  18.856  0.00  0.00    +0.000 A 
ENDBRANCH  27  28
ENDBRANCH  26  27
ENDBRANCH  21  26
ENDBRANCH   2  19
TORSDOF 6
ENDMDL
MODEL 9
REMARK VINA RESULT:      -7.6      2.301      9.675
REMARK  Name = 
REMARK  8 active torsions:
REMARK  status: ('A' for Active; 'I' for Inactive)
REMARK    1  A    between atoms: C_1  and  N_2
REMARK    2  A    between atoms: C_3  and  C_5
REMARK    3  A    between atoms: C_6  and  N_7
REMARK    4  A    between atoms: C_8  and  C_10
REMARK    5  A    between atoms: C_12  and  S_13
REMARK    6  A    between atoms: S_13  and  C_14
REMARK    7  A    between atoms: C_14  and  C_15
REMARK    8  A    between atoms: C_18  and  C_19
REMARK                            x       y       z     vdW  Elec       q    Type
REMARK                         _______ _______ _______ _____ _____    ______ ____
ROOT
ATOM      1  N   UNL     1       1.680   8.437  20.205  0.00  0.00    +0.000 N 
ATOM      2  C   UNL     1       1.554   7.073  20.453  0.00  0.00    +0.000 C 
ATOM      3  O   UNL     1       0.648   6.565  21.102  0.00  0.00    +0.000 OA
ATOM      4  H   UNL     1       2.227   8.673  19.379  0.00  0.00    +0.000 HD
ENDROOT
BRANCH   1   6
ATOM      5  C   UNL     1      -0.173  10.077  19.822  0.00  0.00    +0.000 A 
ATOM      6  C   UNL     1       0.695   9.330  20.607  0.00  0.00    +0.000 A 
ATOM      7  S   UNL     1       0.595   9.700  22.265  0.00  0.00    +0.000 S 
ATOM      8  C   UNL     1      -0.590  10.886  21.988  0.00  0.00    +0.000 A 
ATOM      9  C   UNL     1      -0.933  10.996  20.652  0.00  0.00    +0.000 A 
ATOM     10  C   UNL     1      -2.018  11.940  20.206  0.00  0.00    +0.000 C 
ATOM     11  C   UNL     1      -2.299  13.030  21.255  0.00  0.00    +0.000 C 
ATOM     12  C   UNL     1      -2.427  12.443  22.666  0.00  0.00    +0.000 C 
ATOM     13  C   UNL     1      -1.148  11.716  23.105  0.00  0.00    +0.000 C 
BRANCH   5  16
ATOM     14  C   UNL     1      -1.956   9.923  16.532  0.00  0.00    +0.000 C 
ATOM     15  N   UNL     1      -1.629  10.001  17.929  0.00  0.00    +0.000 N 
ATOM     16  C   UNL     1      -0.325   9.905  18.375  0.00  0.00    +0.000 C 
ATOM     17  O   UNL     1       0.624   9.728  17.619  0.00  0.00    +0.000 OA
ATOM     18  H   UNL     1      -2.293  10.436  18.557  0.00  0.00    +0.000 HD
ENDBRANCH   5  16
ENDBRANCH   1   6
BRANCH   2  19
ATOM     19  C   UNL     1       2.575   6.223  19.734  0.00  0.00    +0.000 A 
ATOM     20  N   UNL     1       3.139   6.827  18.642  0.00  0.00    +0.000 NA
ATOM     21  C   UNL     1       4.051   6.116  17.957  0.00  0.00    +0.000 A 
ATOM     22  N   UNL     1       4.400   4.854  18.249  0.00  0.00    +0.000 NA
ATOM     23  C   UNL     1       3.805   4.295  19.327  0.00  0.00    +0.000 A 
ATOM     24  C   UNL     1       2.879   4.930  20.124  0.00  0.00    +0.000 A 
ATOM     25 CL   UNL     1       2.217   4.061  21.449  0.00  0.00    +0.000 Cl
BRANCH  21  26
ATOM     26  S   UNL     1       4.913   6.958  16.654  0.00  0.00    +0.000 S 
BRANCH  26  27
ATOM     27  C   UNL     1       6.378   5.887  16.453  0.00  0.00    +0.000 C 
BRANCH  27  28
ATOM     28  C   UNL     1       6.334   5.128  15.142  0.00  0.00    +0.000 A 
ATOM     29  C   UNL     1       5.248   4.300  14.828  0.00  0.00    +0.000 A 
ATOM     30  C   UNL     1       5.227   3.560  13.638  0.00  0.00    +0.000 A 
ATOM     31  C   UNL     1       6.298   3.631  12.739  0.00  0.00    +0.000 A 
ATOM     32  C   UNL     1       6.326   2.781  11.497  0.00  0.00    +0.000 C 
ATOM     33  C   UNL     1       7.375   4.470  13.039  0.00  0.00    +0.000 A 
ATOM     34  C   UNL     1       7.396   5.213  14.226  0.00  0.00    +0.000 A 
ENDBRANCH  27  28
ENDBRANCH  26  27
ENDBRANCH  21  26
ENDBRANCH   2  19
TORSDOF 6
ENDMDL
