MODEL 1
REMARK VINA RESULT:      -6.5      0.000      0.000
REMARK  Name = 
REMARK  4 active torsions:
REMARK  status: ('A' for Active; 'I' for Inactive)
REMARK    1  A    between atoms: C_1  and  C_2
REMARK    2  A    between atoms: C_2  and  C_3
REMARK    3  A    between atoms: C_3  and  N_4
REMARK    4  A    between atoms: N_4  and  C_5
REMARK                            x       y       z     vdW  Elec       q    Type
REMARK                         _______ _______ _______ _____ _____    ______ ____
ROOT
ATOM      1  C   UNL     1       4.935   4.165  17.164  0.00  0.00    +0.000 C 
ATOM      2  C   UNL     1       5.556   4.610  18.496  0.00  0.00    +0.000 C 
ATOM      3  C   UNL     1       4.497   5.256  19.395  0.00  0.00    +0.000 C 
ATOM      4  C   UNL     1       3.219   4.462  19.496  0.00  0.00    +0.000 A 
ATOM      5  C   UNL     1       2.298   4.750  20.513  0.00  0.00    +0.000 A 
ATOM      6  C   UNL     1       1.092   4.051  20.604  0.00  0.00    +0.000 A 
ATOM      7  C   UNL     1       0.789   3.059  19.677  0.00  0.00    +0.000 A 
ATOM      8  C   UNL     1       1.691   2.769  18.657  0.00  0.00    +0.000 A 
ATOM      9  C   UNL     1       2.900   3.474  18.551  0.00  0.00    +0.000 A 
ATOM     10  C   UNL     1       3.851   3.106  17.446  0.00  0.00    +0.000 C 
ENDROOT
BRANCH   1  11
ATOM     11  N   UNL     1       5.987   3.647  16.264  0.00  0.00    +0.000 NA
ATOM     12  H   UNL     1       6.486   2.887  16.730  0.00  0.00    +0.000 HD
BRANCH  11  13
ATOM     13  C   UNL     1       6.940   4.690  15.877  0.00  0.00    +0.000 C 
BRANCH  13  15
ATOM     14  C   UNL     1       6.051   3.871  13.687  0.00  0.00    +0.000 C 
ATOM     15  C   UNL     1       7.006   4.849  14.359  0.00  0.00    +0.000 C 
ENDBRANCH  13  15
ENDBRANCH  11  13
ENDBRANCH   1  11
TORSDOF 3
ENDMDL
MODEL 2
REMARK VINA RESULT:      -6.5      1.937      5.584
REMARK  Name = 
REMARK  4 active torsions:
REMARK  status: ('A' for Active; 'I' for Inactive)
REMARK    1  A    between atoms: C_1  and  C_2
REMARK    2  A    between atoms: C_2  and  C_3
REMARK    3  A    between atoms: C_3  and  N_4
REMARK    4  A    between atoms: N_4  and  C_5
REMARK                            x       y       z     vdW  Elec       q    Type
REMARK                         _______ _______ _______ _____ _____    ______ ____
ROOT
ATOM      1  C   UNL     1       2.483   4.145  18.087  0.00  0.00    +0.000 C 
ATOM      2  C   UNL     1       2.277   5.658  17.936  0.00  0.00    +0.000 C 
ATOM      3  C   UNL     1       3.593   6.407  18.170  0.00  0.00    +0.000 C 
ATOM      4  C   UNL     1       4.765   5.823  17.422  0.00  0.00    +0.000 A 
ATOM      5  C   UNL     1       5.943   6.571  17.279  0.00  0.00    +0.000 A 
ATOM      6  C   UNL     1       7.052   6.037  16.620  0.00  0.00    +0.000 A 
ATOM      7  C   UNL     1       7.002   4.748  16.101  0.00  0.00    +0.000 A 
ATOM      8  C   UNL     1       5.842   3.992  16.245  0.00  0.00    +0.000 A 
ATOM      9  C   UNL     1       4.725   4.515  16.914  0.00  0.00    +0.000 A 
ATOM     10  C   UNL     1       3.488   3.667  17.020  0.00  0.00    +0.000 C 
ENDROOT
BRANCH   1  11
ATOM     11  N   UNL     1       1.186   3.444  17.970  0.00  0.00    +0.000 NA
ATOM     12  H   UNL     1       0.440   4.131  17.846  0.00  0.00    +0.000 HD
BRANCH  11  13
ATOM     13  C   UNL     1       0.899   2.622  19.147  0.00  0.00    +0.000 C 
BRANCH  13  15
ATOM     14  C   UNL     1       1.590   2.656  21.551  0.00  0.00    +0.000 C 
ATOM     15  C   UNL     1       0.933   3.451  20.429  0.00  0.00    +0.000 C 
ENDBRANCH  13  15
ENDBRANCH  11  13
ENDBRANCH   1  11
TORSDOF 3
ENDMDL
MODEL 3
REMARK VINA RESULT:      -6.4      2.061      2.849
REMARK  Name = 
REMARK  4 active torsions:
REMARK  status: ('A' for Active; 'I' for Inactive)
REMARK    1  A    between atoms: C_1  and  C_2
REMARK    2  A    between atoms: C_2  and  C_3
REMARK    3  A    between atoms: C_3  and  N_4
REMARK    4  A    between atoms: N_4  and  C_5
REMARK                            x       y       z     vdW  Elec       q    Type
REMARK                         _______ _______ _______ _____ _____    ______ ____
ROOT
ATOM      1  C   UNL     1       4.909   5.748  16.619  0.00  0.00    +0.000 C 
ATOM      2  C   UNL     1       4.186   6.600  17.671  0.00  0.00    +0.000 C 
ATOM      3  C   UNL     1       2.741   6.124  17.851  0.00  0.00    +0.000 C 
ATOM      4  C   UNL     1       2.609   4.630  18.009  0.00  0.00    +0.000 A 
ATOM      5  C   UNL     1       1.413   4.084  18.495  0.00  0.00    +0.000 A 
ATOM      6  C   UNL     1       1.257   2.701  18.618  0.00  0.00    +0.000 A 
ATOM      7  C   UNL     1       2.292   1.847  18.251  0.00  0.00    +0.000 A 
ATOM      8  C   UNL     1       3.481   2.376  17.757  0.00  0.00    +0.000 A 
ATOM      9  C   UNL     1       3.644   3.764  17.621  0.00  0.00    +0.000 A 
ATOM     10  C   UNL     1       4.956   4.285  17.106  0.00  0.00    +0.000 C 
ENDROOT
BRANCH   1  11
ATOM     11  N   UNL     1       6.264   6.288  16.375  0.00  0.00    +0.000 NA
ATOM     12  H   UNL     1       6.951   5.540  16.485  0.00  0.00    +0.000 HD
BRANCH  11  13
ATOM     13  C   UNL     1       6.589   7.385  17.289  0.00  0.00    +0.000 C 
BRANCH  13  15
ATOM     14  C   UNL     1       7.699   5.861  18.932  0.00  0.00    +0.000 C 
ATOM     15  C   UNL     1       7.873   7.102  18.066  0.00  0.00    +0.000 C 
ENDBRANCH  13  15
ENDBRANCH  11  13
ENDBRANCH   1  11
TORSDOF 3
ENDMDL
MODEL 4
REMARK VINA RESULT:      -6.4      2.183      5.602
REMARK  Name = 
REMARK  4 active torsions:
REMARK  status: ('A' for Active; 'I' for Inactive)
REMARK    1  A    between atoms: C_1  and  C_2
REMARK    2  A    between atoms: C_2  and  C_3
REMARK    3  A    between atoms: C_3  and  N_4
REMARK    4  A    between atoms: N_4  and  C_5
REMARK                            x       y       z     vdW  Elec       q    Type
REMARK                         _______ _______ _______ _____ _____    ______ ____
ROOT
ATOM      1  C   UNL     1       3.520   5.481  19.684  0.00  0.00    +0.000 C 
ATOM      2  C   UNL     1       2.827   6.576  18.862  0.00  0.00    +0.000 C 
ATOM      3  C   UNL     1       3.761   7.100  17.766  0.00  0.00    +0.000 C 
ATOM      4  C   UNL     1       4.440   6.010  16.974  0.00  0.00    +0.000 A 
ATOM      5  C   UNL     1       5.060   6.318  15.755  0.00  0.00    +0.000 A 
ATOM      6  C   UNL     1       5.723   5.332  15.022  0.00  0.00    +0.000 A 
ATOM      7  C   UNL     1       5.781   4.028  15.501  0.00  0.00    +0.000 A 
ATOM      8  C   UNL     1       5.178   3.711  16.715  0.00  0.00    +0.000 A 
ATOM      9  C   UNL     1       4.518   4.697  17.464  0.00  0.00    +0.000 A 
ATOM     10  C   UNL     1       3.862   4.298  18.756  0.00  0.00    +0.000 C 
ENDROOT
BRANCH   1  11
ATOM     11  N   UNL     1       2.650   5.064  20.805  0.00  0.00    +0.000 NA
ATOM     12  H   UNL     1       3.018   4.206  21.218  0.00  0.00    +0.000 HD
BRANCH  11  13
ATOM     13  C   UNL     1       1.268   4.843  20.374  0.00  0.00    +0.000 C 
BRANCH  13  15
ATOM     14  C   UNL     1       1.566   2.665  21.567  0.00  0.00    +0.000 C 
ATOM     15  C   UNL     1       0.913   3.357  20.377  0.00  0.00    +0.000 C 
ENDBRANCH  13  15
ENDBRANCH  11  13
ENDBRANCH   1  11
TORSDOF 3
ENDMDL
MODEL 5
REMARK VINA RESULT:      -6.3      3.018      4.165
REMARK  Name = 
REMARK  4 active torsions:
REMARK  status: ('A' for Active; 'I' for Inactive)
REMARK    1  A    between atoms: C_1  and  C_2
REMARK    2  A    between atoms: C_2  and  C_3
REMARK    3  A    between atoms: C_3  and  N_4
REMARK    4  A    between atoms: N_4  and  C_5
REMARK                            x       y       z     vdW  Elec       q    Type
REMARK                         _______ _______ _______ _____ _____    ______ ____
ROOT
ATOM      1  C   UNL     1       6.522   6.244  17.134  0.00  0.00    +0.000 C 
ATOM      2  C   UNL     1       6.486   5.262  15.955  0.00  0.00    +0.000 C 
ATOM      3  C   UNL     1       5.645   4.029  16.306  0.00  0.00    +0.000 C 
ATOM      4  C   UNL     1       4.312   4.361  16.929  0.00  0.00    +0.000 A 
ATOM      5  C   UNL     1       3.316   3.378  17.006  0.00  0.00    +0.000 A 
ATOM      6  C   UNL     1       2.087   3.653  17.609  0.00  0.00    +0.000 A 
ATOM      7  C   UNL     1       1.840   4.911  18.148  0.00  0.00    +0.000 A 
ATOM      8  C   UNL     1       2.824   5.893  18.086  0.00  0.00    +0.000 A 
ATOM      9  C   UNL     1       4.067   5.624  17.491  0.00  0.00    +0.000 A 
ATOM     10  C   UNL     1       5.087   6.726  17.428  0.00  0.00    +0.000 C 
ENDROOT
BRANCH   1  11
ATOM     11  N   UNL     1       7.426   7.373  16.823  0.00  0.00    +0.000 NA
ATOM     12  H   UNL     1       8.156   7.055  16.185  0.00  0.00    +0.000 HD
BRANCH  11  13
ATOM     13  C   UNL     1       8.042   7.929  18.030  0.00  0.00    +0.000 C 
BRANCH  13  15
ATOM     14  C   UNL     1       9.137   9.943  19.030  0.00  0.00    +0.000 C 
ATOM     15  C   UNL     1       8.231   9.440  17.914  0.00  0.00    +0.000 C 
ENDBRANCH  13  15
ENDBRANCH  11  13
ENDBRANCH   1  11
TORSDOF 3
ENDMDL
MODEL 6
REMARK VINA RESULT:      -6.3      1.596      1.906
REMARK  Name = 
REMARK  4 active torsions:
REMARK  status: ('A' for Active; 'I' for Inactive)
REMARK    1  A    between atoms: C_1  and  C_2
REMARK    2  A    between atoms: C_2  and  C_3
REMARK    3  A    between atoms: C_3  and  N_4
REMARK    4  A    between atoms: N_4  and  C_5
REMARK                            x       y       z     vdW  Elec       q    Type
REMARK                         _______ _______ _______ _____ _____    ______ ____
ROOT
ATOM      1  C   UNL     1       5.212   5.535  15.700  0.00  0.00    +0.000 C 
ATOM      2  C   UNL     1       5.350   6.488  16.896  0.00  0.00    +0.000 C 
ATOM      3  C   UNL     1       4.003   6.664  17.604  0.00  0.00    +0.000 C 
ATOM      4  C   UNL     1       3.285   5.365  17.875  0.00  0.00    +0.000 A 
ATOM      5  C   UNL     1       2.218   5.336  18.783  0.00  0.00    +0.000 A 
ATOM      6  C   UNL     1       1.517   4.152  19.024  0.00  0.00    +0.000 A 
ATOM      7  C   UNL     1       1.869   2.985  18.355  0.00  0.00    +0.000 A 
ATOM      8  C   UNL     1       2.921   3.003  17.443  0.00  0.00    +0.000 A 
ATOM      9  C   UNL     1       3.625   4.189  17.187  0.00  0.00    +0.000 A 
ATOM     10  C   UNL     1       4.768   4.150  16.212  0.00  0.00    +0.000 C 
ENDROOT
BRANCH   1  11
ATOM     11  N   UNL     1       6.491   5.463  14.962  0.00  0.00    +0.000 NA
ATOM     12  H   UNL     1       6.505   6.184  14.239  0.00  0.00    +0.000 HD
BRANCH  11  13
ATOM     13  C   UNL     1       6.694   4.150  14.345  0.00  0.00    +0.000 C 
BRANCH  13  15
ATOM     14  C   UNL     1       5.754   3.211  12.225  0.00  0.00    +0.000 C 
ATOM     15  C   UNL     1       6.702   4.245  12.820  0.00  0.00    +0.000 C 
ENDBRANCH  13  15
ENDBRANCH  11  13
ENDBRANCH   1  11
TORSDOF 3
ENDMDL
MODEL 7
REMARK VINA RESULT:      -6.3      2.158      3.247
REMARK  Name = 
REMARK  4 active torsions:
REMARK  status: ('A' for Active; 'I' for Inactive)
REMARK    1  A    between atoms: C_1  and  C_2
REMARK    2  A    between atoms: C_2  and  C_3
REMARK    3  A    between atoms: C_3  and  N_4
REMARK    4  A    between atoms: N_4  and  C_5
REMARK                            x       y       z     vdW  Elec       q    Type
REMARK                         _______ _______ _______ _____ _____    ______ ____
ROOT
ATOM      1  C   UNL     1       6.423   4.653  17.795  0.00  0.00    +0.000 C 
ATOM      2  C   UNL     1       5.714   4.770  16.438  0.00  0.00    +0.000 C 
ATOM      3  C   UNL     1       4.403   3.977  16.445  0.00  0.00    +0.000 C 
ATOM      4  C   UNL     1       3.547   4.229  17.661  0.00  0.00    +0.000 A 
ATOM      5  C   UNL     1       2.202   3.836  17.659  0.00  0.00    +0.000 A 
ATOM      6  C   UNL     1       1.400   4.029  18.787  0.00  0.00    +0.000 A 
ATOM      7  C   UNL     1       1.933   4.612  19.931  0.00  0.00    +0.000 A 
ATOM      8  C   UNL     1       3.270   4.998  19.949  0.00  0.00    +0.000 A 
ATOM      9  C   UNL     1       4.087   4.799  18.825  0.00  0.00    +0.000 A 
ATOM     10  C   UNL     1       5.518   5.256  18.887  0.00  0.00    +0.000 C 
ENDROOT
BRANCH   1  11
ATOM     11  N   UNL     1       7.738   5.328  17.737  0.00  0.00    +0.000 NA
ATOM     12  H   UNL     1       8.448   4.721  18.148  0.00  0.00    +0.000 HD
BRANCH  11  13
ATOM     13  C   UNL     1       7.726   6.611  18.444  0.00  0.00    +0.000 C 
BRANCH  13  15
ATOM     14  C   UNL     1       8.307   9.017  18.082  0.00  0.00    +0.000 C 
ATOM     15  C   UNL     1       7.651   7.785  17.470  0.00  0.00    +0.000 C 
ENDBRANCH  13  15
ENDBRANCH  11  13
ENDBRANCH   1  11
TORSDOF 3
ENDMDL
MODEL 8
REMARK VINA RESULT:      -6.3      2.156      5.727
REMARK  Name = 
REMARK  4 active torsions:
REMARK  status: ('A' for Active; 'I' for Inactive)
REMARK    1  A    between atoms: C_1  and  C_2
REMARK    2  A    between atoms: C_2  and  C_3
REMARK    3  A    between atoms: C_3  and  N_4
REMARK    4  A    between atoms: N_4  and  C_5
REMARK                            x       y       z     vdW  Elec       q    Type
REMARK                         _______ _______ _______ _____ _____    ______ ____
ROOT
ATOM      1  C   UNL     1       3.813   3.904  18.875  0.00  0.00    +0.000 C 
ATOM      2  C   UNL     1       3.687   4.103  17.358  0.00  0.00    +0.000 C 
ATOM      3  C   UNL     1       4.186   5.494  16.953  0.00  0.00    +0.000 C 
ATOM      4  C   UNL     1       5.518   5.861  17.559  0.00  0.00    +0.000 A 
ATOM      5  C   UNL     1       6.244   6.942  17.040  0.00  0.00    +0.000 A 
ATOM      6  C   UNL     1       7.463   7.321  17.607  0.00  0.00    +0.000 A 
ATOM      7  C   UNL     1       7.968   6.630  18.702  0.00  0.00    +0.000 A 
ATOM      8  C   UNL     1       7.252   5.561  19.233  0.00  0.00    +0.000 A 
ATOM      9  C   UNL     1       6.022   5.178  18.677  0.00  0.00    +0.000 A 
ATOM     10  C   UNL     1       5.299   4.001  19.272  0.00  0.00    +0.000 C 
ENDROOT
BRANCH   1  11
ATOM     11  N   UNL     1       3.225   2.604  19.265  0.00  0.00    +0.000 NA
ATOM     12  H   UNL     1       3.611   1.868  18.671  0.00  0.00    +0.000 HD
BRANCH  11  13
ATOM     13  C   UNL     1       1.765   2.607  19.152  0.00  0.00    +0.000 C 
BRANCH  13  15
ATOM     14  C   UNL     1       1.438   2.770  21.626  0.00  0.00    +0.000 C 
ATOM     15  C   UNL     1       1.120   3.408  20.280  0.00  0.00    +0.000 C 
ENDBRANCH  13  15
ENDBRANCH  11  13
ENDBRANCH   1  11
TORSDOF 3
ENDMDL
MODEL 9
REMARK VINA RESULT:      -6.3      1.604      2.793
REMARK  Name = 
REMARK  4 active torsions:
REMARK  status: ('A' for Active; 'I' for Inactive)
REMARK    1  A    between atoms: C_1  and  C_2
REMARK    2  A    between atoms: C_2  and  C_3
REMARK    3  A    between atoms: C_3  and  N_4
REMARK    4  A    between atoms: N_4  and  C_5
REMARK                            x       y       z     vdW  Elec       q    Type
REMARK                         _______ _______ _______ _____ _____    ______ ____
ROOT
ATOM      1  C   UNL     1       5.260   4.329  17.730  0.00  0.00    +0.000 C 
ATOM      2  C   UNL     1       4.319   3.858  16.613  0.00  0.00    +0.000 C 
ATOM      3  C   UNL     1       3.231   2.938  17.178  0.00  0.00    +0.000 C 
ATOM      4  C   UNL     1       2.565   3.475  18.419  0.00  0.00    +0.000 A 
ATOM      5  C   UNL     1       1.356   2.917  18.859  0.00  0.00    +0.000 A 
ATOM      6  C   UNL     1       0.740   3.376  20.025  0.00  0.00    +0.000 A 
ATOM      7  C   UNL     1       1.325   4.395  20.769  0.00  0.00    +0.000 A 
ATOM      8  C   UNL     1       2.530   4.951  20.348  0.00  0.00    +0.000 A 
ATOM      9  C   UNL     1       3.162   4.490  19.184  0.00  0.00    +0.000 A 
ATOM     10  C   UNL     1       4.449   5.141  18.760  0.00  0.00    +0.000 C 
ENDROOT
BRANCH   1  11
ATOM     11  N   UNL     1       6.367   5.123  17.155  0.00  0.00    +0.000 NA
ATOM     12  H   UNL     1       6.586   4.773  16.221  0.00  0.00    +0.000 HD
BRANCH  11  13
ATOM     13  C   UNL     1       7.570   5.071  17.989  0.00  0.00    +0.000 C 
BRANCH  13  15
ATOM     14  C   UNL     1       7.678   7.544  17.635  0.00  0.00    +0.000 C 
ATOM     15  C   UNL     1       7.852   6.419  18.648  0.00  0.00    +0.000 C 
ENDBRANCH  13  15
ENDBRANCH  11  13
ENDBRANCH   1  11
TORSDOF 3
ENDMDL
