MODEL 1
REMARK VINA RESULT:      -8.0      0.000      0.000
REMARK  Name = 
REMARK  10 active torsions:
REMARK  status: ('A' for Active; 'I' for Inactive)
REMARK    1  A    between atoms: C_1  and  C_2
REMARK    2  A    between atoms: C_2  and  O_3
REMARK    3  A    between atoms: O_3  and  C_4
REMARK    4  A    between atoms: C_4  and  C_5
REMARK    5  A    between atoms: C_5  and  C_6
REMARK    6  A    between atoms: C_6  and  N_7
REMARK    7  A    between atoms: N_7  and  C_8
REMARK    8  A    between atoms: C_10  and  C_11
REMARK    9  A    between atoms: N_20  and  C_21
REMARK   10  A    between atoms: C_21  and  C_22
REMARK                            x       y       z     vdW  Elec       q    Type
REMARK                         _______ _______ _______ _____ _____    ______ ____
ROOT
ATOM      1  C   UNL     1       7.219   6.214  16.738  0.00  0.00    +0.000 A 
ATOM      2  N   UNL     1       6.977   5.761  15.478  0.00  0.00    +0.000 NA
ATOM      3  C   UNL     1       6.140   4.707  15.250  0.00  0.00    +0.000 A 
ATOM      4  N   UNL     1       5.443   4.053  16.215  0.00  0.00    +0.000 NA
ATOM      5  C   UNL     1       5.745   4.489  17.442  0.00  0.00    +0.000 A 
ATOM      6  C   UNL     1       6.592   5.527  17.795  0.00  0.00    +0.000 A 
ATOM      7  N   UNL     1       6.640   5.634  19.160  0.00  0.00    +0.000 NA
ATOM      8  N   UNL     1       5.896   4.651  19.674  0.00  0.00    +0.000 NA
ATOM      9  N   UNL     1       5.363   3.961  18.640  0.00  0.00    +0.000 N 
ENDROOT
BRANCH   3  10
ATOM     10  C   UNL     1       6.083   4.128  13.838  0.00  0.00    +0.000 C 
ATOM     11  F   UNL     1       6.962   4.699  12.960  0.00  0.00    +0.000 F 
ATOM     12  F   UNL     1       6.381   2.792  13.821  0.00  0.00    +0.000 F 
ATOM     13  F   UNL     1       4.855   4.236  13.249  0.00  0.00    +0.000 F 
ENDBRANCH   3  10
BRANCH   1  14
ATOM     14  N   UNL     1       8.106   7.288  16.917  0.00  0.00    +0.000 N 
ATOM     15  H   UNL     1       9.004   6.966  17.266  0.00  0.00    +0.000 HD
BRANCH  14  16
ATOM     16  C   UNL     1       7.508   8.391  17.670  0.00  0.00    +0.000 C 
BRANCH  16  17
ATOM     17  C   UNL     1       8.524   9.013  18.623  0.00  0.00    +0.000 C 
BRANCH  17  18
ATOM     18  C   UNL     1       8.896  10.421  18.164  0.00  0.00    +0.000 C 
BRANCH  18  19
ATOM     19  O   UNL     1       9.294  11.191  19.297  0.00  0.00    +0.000 OA
BRANCH  19  21
ATOM     20  C   UNL     1      11.152  11.758  17.905  0.00  0.00    +0.000 C 
ATOM     21  C   UNL     1      10.700  11.428  19.313  0.00  0.00    +0.000 C 
ENDBRANCH  19  21
ENDBRANCH  18  19
ENDBRANCH  17  18
ENDBRANCH  16  17
ENDBRANCH  14  16
ENDBRANCH   1  14
BRANCH   9  22
ATOM     22  C   UNL     1       4.652   2.707  18.856  0.00  0.00    +0.000 C 
BRANCH  22  23
ATOM     23  C   UNL     1       3.335   2.940  19.556  0.00  0.00    +0.000 A 
ATOM     24  C   UNL     1       3.232   2.655  20.931  0.00  0.00    +0.000 A 
ATOM     25  C   UNL     1       2.108   3.043  21.660  0.00  0.00    +0.000 A 
ATOM     26  C   UNL     1       1.055   3.691  21.026  0.00  0.00    +0.000 A 
ATOM     27  C   UNL     1       1.099   3.898  19.648  0.00  0.00    +0.000 A 
ATOM     28  C   UNL     1       2.224   3.515  18.913  0.00  0.00    +0.000 A 
ATOM     29 CL   UNL     1       2.191   3.810  17.211  0.00  0.00    +0.000 Cl
ENDBRANCH  22  23
ENDBRANCH   9  22
TORSDOF 9
ENDMDL
MODEL 2
REMARK VINA RESULT:      -7.8      0.559      1.004
REMARK  Name = 
REMARK  10 active torsions:
REMARK  status: ('A' for Active; 'I' for Inactive)
REMARK    1  A    between atoms: C_1  and  C_2
REMARK    2  A    between atoms: C_2  and  O_3
REMARK    3  A    between atoms: O_3  and  C_4
REMARK    4  A    between atoms: C_4  and  C_5
REMARK    5  A    between atoms: C_5  and  C_6
REMARK    6  A    between atoms: C_6  and  N_7
REMARK    7  A    between atoms: N_7  and  C_8
REMARK    8  A    between atoms: C_10  and  C_11
REMARK    9  A    between atoms: N_20  and  C_21
REMARK   10  A    between atoms: C_21  and  C_22
REMARK                            x       y       z     vdW  Elec       q    Type
REMARK                         _______ _______ _______ _____ _____    ______ ____
ROOT
ATOM      1  C   UNL     1       7.231   6.237  16.896  0.00  0.00    +0.000 A 
ATOM      2  N   UNL     1       7.025   5.818  15.619  0.00  0.00    +0.000 NA
ATOM      3  C   UNL     1       6.192   4.773  15.339  0.00  0.00    +0.000 A 
ATOM      4  N   UNL     1       5.466   4.097  16.266  0.00  0.00    +0.000 NA
ATOM      5  C   UNL     1       5.733   4.500  17.512  0.00  0.00    +0.000 A 
ATOM      6  C   UNL     1       6.572   5.526  17.916  0.00  0.00    +0.000 A 
ATOM      7  N   UNL     1       6.580   5.598  19.284  0.00  0.00    +0.000 NA
ATOM      8  N   UNL     1       5.819   4.604  19.751  0.00  0.00    +0.000 NA
ATOM      9  N   UNL     1       5.315   3.943  18.685  0.00  0.00    +0.000 N 
ENDROOT
BRANCH   3  10
ATOM     10  C   UNL     1       6.175   4.231  13.912  0.00  0.00    +0.000 C 
ATOM     11  F   UNL     1       4.973   4.364  13.273  0.00  0.00    +0.000 F 
ATOM     12  F   UNL     1       7.076   4.877  13.108  0.00  0.00    +0.000 F 
ATOM     13  F   UNL     1       6.492   2.905  13.823  0.00  0.00    +0.000 F 
ENDBRANCH   3  10
BRANCH   1  14
ATOM     14  N   UNL     1       8.116   7.304  17.128  0.00  0.00    +0.000 N 
ATOM     15  H   UNL     1       8.944   6.990  17.626  0.00  0.00    +0.000 HD
BRANCH  14  16
ATOM     16  C   UNL     1       7.449   8.470  17.708  0.00  0.00    +0.000 C 
BRANCH  16  17
ATOM     17  C   UNL     1       8.361   9.692  17.673  0.00  0.00    +0.000 C 
BRANCH  17  18
ATOM     18  C   UNL     1       8.975   9.941  19.049  0.00  0.00    +0.000 C 
BRANCH  18  19
ATOM     19  O   UNL     1       9.567  11.239  19.068  0.00  0.00    +0.000 OA
BRANCH  19  21
ATOM     20  C   UNL     1      10.260  12.616  20.895  0.00  0.00    +0.000 C 
ATOM     21  C   UNL     1      10.549  11.362  20.095  0.00  0.00    +0.000 C 
ENDBRANCH  19  21
ENDBRANCH  18  19
ENDBRANCH  17  18
ENDBRANCH  16  17
ENDBRANCH  14  16
ENDBRANCH   1  14
BRANCH   9  22
ATOM     22  C   UNL     1       4.595   2.686  18.848  0.00  0.00    +0.000 C 
BRANCH  22  23
ATOM     23  C   UNL     1       3.280   2.898  19.558  0.00  0.00    +0.000 A 
ATOM     24  C   UNL     1       3.180   2.570  20.924  0.00  0.00    +0.000 A 
ATOM     25  C   UNL     1       2.060   2.936  21.668  0.00  0.00    +0.000 A 
ATOM     26  C   UNL     1       1.005   3.606  21.058  0.00  0.00    +0.000 A 
ATOM     27  C   UNL     1       1.046   3.856  19.687  0.00  0.00    +0.000 A 
ATOM     28  C   UNL     1       2.169   3.496  18.937  0.00  0.00    +0.000 A 
ATOM     29 CL   UNL     1       2.131   3.845  17.246  0.00  0.00    +0.000 Cl
ENDBRANCH  22  23
ENDBRANCH   9  22
TORSDOF 9
ENDMDL
MODEL 3
REMARK VINA RESULT:      -7.6      7.348      9.227
REMARK  Name = 
REMARK  10 active torsions:
REMARK  status: ('A' for Active; 'I' for Inactive)
REMARK    1  A    between atoms: C_1  and  C_2
REMARK    2  A    between atoms: C_2  and  O_3
REMARK    3  A    between atoms: O_3  and  C_4
REMARK    4  A    between atoms: C_4  and  C_5
REMARK    5  A    between atoms: C_5  and  C_6
REMARK    6  A    between atoms: C_6  and  N_7
REMARK    7  A    between atoms: N_7  and  C_8
REMARK    8  A    between atoms: C_10  and  C_11
REMARK    9  A    between atoms: N_20  and  C_21
REMARK   10  A    between atoms: C_21  and  C_22
REMARK                            x       y       z     vdW  Elec       q    Type
REMARK                         _______ _______ _______ _____ _____    ______ ____
ROOT
ATOM      1  C   UNL     1       0.301  10.550  19.087  0.00  0.00    +0.000 A 
ATOM      2  N   UNL     1      -0.076  10.556  20.393  0.00  0.00    +0.000 NA
ATOM      3  C   UNL     1       0.385   9.618  21.271  0.00  0.00    +0.000 A 
ATOM      4  N   UNL     1       1.278   8.643  20.958  0.00  0.00    +0.000 NA
ATOM      5  C   UNL     1       1.585   8.635  19.657  0.00  0.00    +0.000 A 
ATOM      6  C   UNL     1       1.162   9.516  18.675  0.00  0.00    +0.000 A 
ATOM      7  N   UNL     1       1.691   9.142  17.468  0.00  0.00    +0.000 NA
ATOM      8  N   UNL     1       2.383   8.015  17.655  0.00  0.00    +0.000 NA
ATOM      9  N   UNL     1       2.313   7.709  18.970  0.00  0.00    +0.000 N 
ENDROOT
BRANCH   3  10
ATOM     10  C   UNL     1      -0.242   9.566  22.662  0.00  0.00    +0.000 C 
ATOM     11  F   UNL     1      -1.036  10.638  22.962  0.00  0.00    +0.000 F 
ATOM     12  F   UNL     1      -1.052   8.472  22.817  0.00  0.00    +0.000 F 
ATOM     13  F   UNL     1       0.671   9.491  23.675  0.00  0.00    +0.000 F 
ENDBRANCH   3  10
BRANCH   1  14
ATOM     14  N   UNL     1      -0.222  11.527  18.222  0.00  0.00    +0.000 N 
ATOM     15  H   UNL     1       0.381  12.345  18.188  0.00  0.00    +0.000 HD
BRANCH  14  16
ATOM     16  C   UNL     1      -1.634  11.809  18.483  0.00  0.00    +0.000 C 
BRANCH  16  17
ATOM     17  C   UNL     1      -2.525  10.730  17.876  0.00  0.00    +0.000 C 
BRANCH  17  18
ATOM     18  C   UNL     1      -3.754  11.357  17.221  0.00  0.00    +0.000 C 
BRANCH  18  19
ATOM     19  O   UNL     1      -3.608  11.297  15.803  0.00  0.00    +0.000 OA
BRANCH  19  21
ATOM     20  C   UNL     1      -3.070   9.963  13.892  0.00  0.00    +0.000 C 
ATOM     21  C   UNL     1      -2.901  10.129  15.390  0.00  0.00    +0.000 C 
ENDBRANCH  19  21
ENDBRANCH  18  19
ENDBRANCH  17  18
ENDBRANCH  16  17
ENDBRANCH  14  16
ENDBRANCH   1  14
BRANCH   9  22
ATOM     22  C   UNL     1       2.805   6.433  19.475  0.00  0.00    +0.000 C 
BRANCH  22  23
ATOM     23  C   UNL     1       3.584   5.690  18.418  0.00  0.00    +0.000 A 
ATOM     24  C   UNL     1       4.933   6.029  18.199  0.00  0.00    +0.000 A 
ATOM     25  C   UNL     1       5.746   5.241  17.385  0.00  0.00    +0.000 A 
ATOM     26  C   UNL     1       5.220   4.122  16.747  0.00  0.00    +0.000 A 
ATOM     27  C   UNL     1       3.864   3.826  16.878  0.00  0.00    +0.000 A 
ATOM     28  C   UNL     1       3.046   4.609  17.696  0.00  0.00    +0.000 A 
ATOM     29 CL   UNL     1       1.379   4.167  17.798  0.00  0.00    +0.000 Cl
ENDBRANCH  22  23
ENDBRANCH   9  22
TORSDOF 9
ENDMDL
MODEL 4
REMARK VINA RESULT:      -7.5      7.162      8.914
REMARK  Name = 
REMARK  10 active torsions:
REMARK  status: ('A' for Active; 'I' for Inactive)
REMARK    1  A    between atoms: C_1  and  C_2
REMARK    2  A    between atoms: C_2  and  O_3
REMARK    3  A    between atoms: O_3  and  C_4
REMARK    4  A    between atoms: C_4  and  C_5
REMARK    5  A    between atoms: C_5  and  C_6
REMARK    6  A    between atoms: C_6  and  N_7
REMARK    7  A    between atoms: N_7  and  C_8
REMARK    8  A    between atoms: C_10  and  C_11
REMARK    9  A    between atoms: N_20  and  C_21
REMARK   10  A    between atoms: C_21  and  C_22
REMARK                            x       y       z     vdW  Elec       q    Type
REMARK                         _______ _______ _______ _____ _____    ______ ____
ROOT
ATOM      1  C   UNL     1       0.609  10.090  19.109  0.00  0.00    +0.000 A 
ATOM      2  N   UNL     1       0.176  10.299  20.381  0.00  0.00    +0.000 NA
ATOM      3  C   UNL     1       0.550   9.477  21.404  0.00  0.00    +0.000 A 
ATOM      4  N   UNL     1       1.405   8.429  21.277  0.00  0.00    +0.000 NA
ATOM      5  C   UNL     1       1.769   8.222  20.008  0.00  0.00    +0.000 A 
ATOM      6  C   UNL     1       1.434   8.971  18.891  0.00  0.00    +0.000 A 
ATOM      7  N   UNL     1       1.997   8.406  17.777  0.00  0.00    +0.000 NA
ATOM      8  N   UNL     1       2.621   7.287  18.156  0.00  0.00    +0.000 NA
ATOM      9  N   UNL     1       2.478   7.176  19.496  0.00  0.00    +0.000 N 
ENDROOT
BRANCH   3  10
ATOM     10  C   UNL     1      -0.140   9.651  22.755  0.00  0.00    +0.000 C 
ATOM     11  F   UNL     1      -0.724  10.875  22.935  0.00  0.00    +0.000 F 
ATOM     12  F   UNL     1      -1.153   8.747  22.932  0.00  0.00    +0.000 F 
ATOM     13  F   UNL     1       0.693   9.482  23.824  0.00  0.00    +0.000 F 
ENDBRANCH   3  10
BRANCH   1  14
ATOM     14  N   UNL     1       0.175  10.956  18.090  0.00  0.00    +0.000 N 
ATOM     15  H   UNL     1       0.959  11.449  17.671  0.00  0.00    +0.000 HD
BRANCH  14  16
ATOM     16  C   UNL     1      -0.936  11.808  18.514  0.00  0.00    +0.000 C 
BRANCH  16  17
ATOM     17  C   UNL     1      -2.148  11.611  17.608  0.00  0.00    +0.000 C 
BRANCH  17  18
ATOM     18  C   UNL     1      -2.720  10.205  17.778  0.00  0.00    +0.000 C 
BRANCH  18  19
ATOM     19  O   UNL     1      -2.911   9.621  16.490  0.00  0.00    +0.000 OA
BRANCH  19  21
ATOM     20  C   UNL     1      -3.485  10.068  14.212  0.00  0.00    +0.000 C 
ATOM     21  C   UNL     1      -2.764  10.579  15.444  0.00  0.00    +0.000 C 
ENDBRANCH  19  21
ENDBRANCH  18  19
ENDBRANCH  17  18
ENDBRANCH  16  17
ENDBRANCH  14  16
ENDBRANCH   1  14
BRANCH   9  22
ATOM     22  C   UNL     1       2.882   5.965  20.200  0.00  0.00    +0.000 C 
BRANCH  22  23
ATOM     23  C   UNL     1       2.806   4.758  19.297  0.00  0.00    +0.000 A 
ATOM     24  C   UNL     1       1.555   4.159  19.059  0.00  0.00    +0.000 A 
ATOM     25  C   UNL     1       1.404   3.178  18.080  0.00  0.00    +0.000 A 
ATOM     26  C   UNL     1       2.504   2.752  17.344  0.00  0.00    +0.000 A 
ATOM     27  C   UNL     1       3.768   3.267  17.630  0.00  0.00    +0.000 A 
ATOM     28  C   UNL     1       3.924   4.254  18.607  0.00  0.00    +0.000 A 
ATOM     29 CL   UNL     1       5.526   4.833  18.894  0.00  0.00    +0.000 Cl
ENDBRANCH  22  23
ENDBRANCH   9  22
TORSDOF 9
ENDMDL
MODEL 5
REMARK VINA RESULT:      -7.5      1.170      1.527
REMARK  Name = 
REMARK  10 active torsions:
REMARK  status: ('A' for Active; 'I' for Inactive)
REMARK    1  A    between atoms: C_1  and  C_2
REMARK    2  A    between atoms: C_2  and  O_3
REMARK    3  A    between atoms: O_3  and  C_4
REMARK    4  A    between atoms: C_4  and  C_5
REMARK    5  A    between atoms: C_5  and  C_6
REMARK    6  A    between atoms: C_6  and  N_7
REMARK    7  A    between atoms: N_7  and  C_8
REMARK    8  A    between atoms: C_10  and  C_11
REMARK    9  A    between atoms: N_20  and  C_21
REMARK   10  A    between atoms: C_21  and  C_22
REMARK                            x       y       z     vdW  Elec       q    Type
REMARK                         _______ _______ _______ _____ _____    ______ ____
ROOT
ATOM      1  C   UNL     1       7.078   6.135  16.339  0.00  0.00    +0.000 A 
ATOM      2  N   UNL     1       6.971   5.665  15.068  0.00  0.00    +0.000 NA
ATOM      3  C   UNL     1       6.069   4.694  14.741  0.00  0.00    +0.000 A 
ATOM      4  N   UNL     1       5.177   4.149  15.608  0.00  0.00    +0.000 NA
ATOM      5  C   UNL     1       5.345   4.595  16.856  0.00  0.00    +0.000 A 
ATOM      6  C   UNL     1       6.238   5.554  17.308  0.00  0.00    +0.000 A 
ATOM      7  N   UNL     1       6.101   5.703  18.663  0.00  0.00    +0.000 NA
ATOM      8  N   UNL     1       5.192   4.819  19.083  0.00  0.00    +0.000 NA
ATOM      9  N   UNL     1       4.743   4.151  17.997  0.00  0.00    +0.000 N 
ENDROOT
BRANCH   3  10
ATOM     10  C   UNL     1       6.154   4.075  13.348  0.00  0.00    +0.000 C 
ATOM     11  F   UNL     1       7.086   4.652  12.531  0.00  0.00    +0.000 F 
ATOM     12  F   UNL     1       6.497   2.751  13.397  0.00  0.00    +0.000 F 
ATOM     13  F   UNL     1       4.978   4.122  12.654  0.00  0.00    +0.000 F 
ENDBRANCH   3  10
BRANCH   1  14
ATOM     14  N   UNL     1       8.039   7.120  16.624  0.00  0.00    +0.000 N 
ATOM     15  H   UNL     1       8.980   6.755  16.513  0.00  0.00    +0.000 HD
BRANCH  14  16
ATOM     16  C   UNL     1       7.785   7.802  17.893  0.00  0.00    +0.000 C 
BRANCH  16  17
ATOM     17  C   UNL     1       8.070   9.296  17.775  0.00  0.00    +0.000 C 
BRANCH  17  18
ATOM     18  C   UNL     1       8.937   9.769  18.939  0.00  0.00    +0.000 C 
BRANCH  18  19
ATOM     19  O   UNL     1       9.377  11.102  18.680  0.00  0.00    +0.000 OA
BRANCH  19  21
ATOM     20  C   UNL     1      10.632  11.897  20.553  0.00  0.00    +0.000 C 
ATOM     21  C   UNL     1      10.704  11.325  19.151  0.00  0.00    +0.000 C 
ENDBRANCH  19  21
ENDBRANCH  18  19
ENDBRANCH  17  18
ENDBRANCH  16  17
ENDBRANCH  14  16
ENDBRANCH   1  14
BRANCH   9  22
ATOM     22  C   UNL     1       3.880   2.984  18.132  0.00  0.00    +0.000 C 
BRANCH  22  23
ATOM     23  C   UNL     1       3.006   3.090  19.359  0.00  0.00    +0.000 A 
ATOM     24  C   UNL     1       1.763   3.742  19.257  0.00  0.00    +0.000 A 
ATOM     25  C   UNL     1       0.838   3.687  20.300  0.00  0.00    +0.000 A 
ATOM     26  C   UNL     1       1.150   3.010  21.474  0.00  0.00    +0.000 A 
ATOM     27  C   UNL     1       2.412   2.438  21.627  0.00  0.00    +0.000 A 
ATOM     28  C   UNL     1       3.341   2.486  20.584  0.00  0.00    +0.000 A 
ATOM     29 CL   UNL     1       4.879   1.752  20.865  0.00  0.00    +0.000 Cl
ENDBRANCH  22  23
ENDBRANCH   9  22
TORSDOF 9
ENDMDL
MODEL 6
REMARK VINA RESULT:      -7.5      6.991      8.665
REMARK  Name = 
REMARK  10 active torsions:
REMARK  status: ('A' for Active; 'I' for Inactive)
REMARK    1  A    between atoms: C_1  and  C_2
REMARK    2  A    between atoms: C_2  and  O_3
REMARK    3  A    between atoms: O_3  and  C_4
REMARK    4  A    between atoms: C_4  and  C_5
REMARK    5  A    between atoms: C_5  and  C_6
REMARK    6  A    between atoms: C_6  and  N_7
REMARK    7  A    between atoms: N_7  and  C_8
REMARK    8  A    between atoms: C_10  and  C_11
REMARK    9  A    between atoms: N_20  and  C_21
REMARK   10  A    between atoms: C_21  and  C_22
REMARK                            x       y       z     vdW  Elec       q    Type
REMARK                         _______ _______ _______ _____ _____    ______ ____
ROOT
ATOM      1  C   UNL     1       0.658   9.783  18.940  0.00  0.00    +0.000 A 
ATOM      2  N   UNL     1       0.236   9.990  20.216  0.00  0.00    +0.000 NA
ATOM      3  C   UNL     1       0.681   9.214  21.247  0.00  0.00    +0.000 A 
ATOM      4  N   UNL     1       1.600   8.221  21.124  0.00  0.00    +0.000 NA
ATOM      5  C   UNL     1       1.953   8.012  19.852  0.00  0.00    +0.000 A 
ATOM      6  C   UNL     1       1.550   8.715  18.727  0.00  0.00    +0.000 A 
ATOM      7  N   UNL     1       2.127   8.164  17.614  0.00  0.00    +0.000 NA
ATOM      8  N   UNL     1       2.829   7.096  18.002  0.00  0.00    +0.000 NA
ATOM      9  N   UNL     1       2.719   7.003  19.346  0.00  0.00    +0.000 N 
ENDROOT
BRANCH   3  10
ATOM     10  C   UNL     1       0.006   9.372  22.608  0.00  0.00    +0.000 C 
ATOM     11  F   UNL     1       0.848   9.223  23.675  0.00  0.00    +0.000 F 
ATOM     12  F   UNL     1      -0.546  10.615  22.764  0.00  0.00    +0.000 F 
ATOM     13  F   UNL     1      -1.015   8.490  22.820  0.00  0.00    +0.000 F 
ENDBRANCH   3  10
BRANCH   1  14
ATOM     14  N   UNL     1       0.151  10.598  17.914  0.00  0.00    +0.000 N 
ATOM     15  H   UNL     1       0.835  10.721  17.172  0.00  0.00    +0.000 HD
BRANCH  14  16
ATOM     16  C   UNL     1      -0.441  11.836  18.421  0.00  0.00    +0.000 C 
BRANCH  16  17
ATOM     17  C   UNL     1      -1.809  12.083  17.791  0.00  0.00    +0.000 C 
BRANCH  17  18
ATOM     18  C   UNL     1      -2.784  10.972  18.177  0.00  0.00    +0.000 C 
BRANCH  18  19
ATOM     19  O   UNL     1      -2.847  10.019  17.117  0.00  0.00    +0.000 OA
BRANCH  19  21
ATOM     20  C   UNL     1      -2.934  10.193  14.734  0.00  0.00    +0.000 C 
ATOM     21  C   UNL     1      -3.656  10.479  16.036  0.00  0.00    +0.000 C 
ENDBRANCH  19  21
ENDBRANCH  18  19
ENDBRANCH  17  18
ENDBRANCH  16  17
ENDBRANCH  14  16
ENDBRANCH   1  14
BRANCH   9  22
ATOM     22  C   UNL     1       3.213   5.835  20.065  0.00  0.00    +0.000 C 
BRANCH  22  23
ATOM     23  C   UNL     1       2.475   4.586  19.650  0.00  0.00    +0.000 A 
ATOM     24  C   UNL     1       1.290   4.236  20.324  0.00  0.00    +0.000 A 
ATOM     25  C   UNL     1       0.470   3.214  19.846  0.00  0.00    +0.000 A 
ATOM     26  C   UNL     1       0.833   2.501  18.709  0.00  0.00    +0.000 A 
ATOM     27  C   UNL     1       2.049   2.772  18.083  0.00  0.00    +0.000 A 
ATOM     28  C   UNL     1       2.872   3.798  18.554  0.00  0.00    +0.000 A 
ATOM     29 CL   UNL     1       4.360   4.062  17.716  0.00  0.00    +0.000 Cl
ENDBRANCH  22  23
ENDBRANCH   9  22
TORSDOF 9
ENDMDL
MODEL 7
REMARK VINA RESULT:      -7.4      7.195      8.988
REMARK  Name = 
REMARK  10 active torsions:
REMARK  status: ('A' for Active; 'I' for Inactive)
REMARK    1  A    between atoms: C_1  and  C_2
REMARK    2  A    between atoms: C_2  and  O_3
REMARK    3  A    between atoms: O_3  and  C_4
REMARK    4  A    between atoms: C_4  and  C_5
REMARK    5  A    between atoms: C_5  and  C_6
REMARK    6  A    between atoms: C_6  and  N_7
REMARK    7  A    between atoms: N_7  and  C_8
REMARK    8  A    between atoms: C_10  and  C_11
REMARK    9  A    between atoms: N_20  and  C_21
REMARK   10  A    between atoms: C_21  and  C_22
REMARK                            x       y       z     vdW  Elec       q    Type
REMARK                         _______ _______ _______ _____ _____    ______ ____
ROOT
ATOM      1  C   UNL     1       0.247  10.122  18.952  0.00  0.00    +0.000 A 
ATOM      2  N   UNL     1      -0.098  10.232  20.262  0.00  0.00    +0.000 NA
ATOM      3  C   UNL     1       0.502   9.470  21.223  0.00  0.00    +0.000 A 
ATOM      4  N   UNL     1       1.508   8.588  20.989  0.00  0.00    +0.000 NA
ATOM      5  C   UNL     1       1.784   8.466  19.687  0.00  0.00    +0.000 A 
ATOM      6  C   UNL     1       1.227   9.165  18.627  0.00  0.00    +0.000 A 
ATOM      7  N   UNL     1       1.774   8.723  17.452  0.00  0.00    +0.000 NA
ATOM      8  N   UNL     1       2.611   7.722  17.739  0.00  0.00    +0.000 NA
ATOM      9  N   UNL     1       2.612   7.567  19.083  0.00  0.00    +0.000 N 
ENDROOT
BRANCH   3  10
ATOM     10  C   UNL     1      -0.081   9.502  22.633  0.00  0.00    +0.000 C 
ATOM     11  F   UNL     1      -1.026   8.542  22.873  0.00  0.00    +0.000 F 
ATOM     12  F   UNL     1       0.878   9.301  23.589  0.00  0.00    +0.000 F 
ATOM     13  F   UNL     1      -0.675  10.689  22.956  0.00  0.00    +0.000 F 
ENDBRANCH   3  10
BRANCH   1  14
ATOM     14  N   UNL     1      -0.419  10.916  18.002  0.00  0.00    +0.000 N 
ATOM     15  H   UNL     1       0.171  11.681  17.688  0.00  0.00    +0.000 HD
BRANCH  14  16
ATOM     16  C   UNL     1      -1.760  11.306  18.438  0.00  0.00    +0.000 C 
BRANCH  16  17
ATOM     17  C   UNL     1      -2.820  10.409  17.806  0.00  0.00    +0.000 C 
BRANCH  17  18
ATOM     18  C   UNL     1      -2.271   9.735  16.551  0.00  0.00    +0.000 C 
BRANCH  18  19
ATOM     19  O   UNL     1      -3.327   9.586  15.603  0.00  0.00    +0.000 OA
BRANCH  19  21
ATOM     20  C   UNL     1      -4.075   9.846  13.347  0.00  0.00    +0.000 C 
ATOM     21  C   UNL     1      -3.036  10.249  14.374  0.00  0.00    +0.000 C 
ENDBRANCH  19  21
ENDBRANCH  18  19
ENDBRANCH  17  18
ENDBRANCH  16  17
ENDBRANCH  14  16
ENDBRANCH   1  14
BRANCH   9  22
ATOM     22  C   UNL     1       3.278   6.432  19.710  0.00  0.00    +0.000 C 
BRANCH  22  23
ATOM     23  C   UNL     1       2.521   5.150  19.464  0.00  0.00    +0.000 A 
ATOM     24  C   UNL     1       1.530   4.754  20.382  0.00  0.00    +0.000 A 
ATOM     25  C   UNL     1       0.669   3.695  20.095  0.00  0.00    +0.000 A 
ATOM     26  C   UNL     1       0.802   2.992  18.903  0.00  0.00    +0.000 A 
ATOM     27  C   UNL     1       1.837   3.310  18.025  0.00  0.00    +0.000 A 
ATOM     28  C   UNL     1       2.700   4.373  18.305  0.00  0.00    +0.000 A 
ATOM     29 CL   UNL     1       3.952   4.694  17.160  0.00  0.00    +0.000 Cl
ENDBRANCH  22  23
ENDBRANCH   9  22
TORSDOF 9
ENDMDL
MODEL 8
REMARK VINA RESULT:      -7.4      7.310      9.079
REMARK  Name = 
REMARK  10 active torsions:
REMARK  status: ('A' for Active; 'I' for Inactive)
REMARK    1  A    between atoms: C_1  and  C_2
REMARK    2  A    between atoms: C_2  and  O_3
REMARK    3  A    between atoms: O_3  and  C_4
REMARK    4  A    between atoms: C_4  and  C_5
REMARK    5  A    between atoms: C_5  and  C_6
REMARK    6  A    between atoms: C_6  and  N_7
REMARK    7  A    between atoms: N_7  and  C_8
REMARK    8  A    between atoms: C_10  and  C_11
REMARK    9  A    between atoms: N_20  and  C_21
REMARK   10  A    between atoms: C_21  and  C_22
REMARK                            x       y       z     vdW  Elec       q    Type
REMARK                         _______ _______ _______ _____ _____    ______ ____
ROOT
ATOM      1  C   UNL     1       0.554  10.412  19.124  0.00  0.00    +0.000 A 
ATOM      2  N   UNL     1       0.146  10.498  20.419  0.00  0.00    +0.000 NA
ATOM      3  C   UNL     1       0.555   9.592  21.355  0.00  0.00    +0.000 A 
ATOM      4  N   UNL     1       1.422   8.575  21.115  0.00  0.00    +0.000 NA
ATOM      5  C   UNL     1       1.760   8.489  19.825  0.00  0.00    +0.000 A 
ATOM      6  C   UNL     1       1.390   9.331  18.788  0.00  0.00    +0.000 A 
ATOM      7  N   UNL     1       1.936   8.878  17.616  0.00  0.00    +0.000 NA
ATOM      8  N   UNL     1       2.585   7.740  17.879  0.00  0.00    +0.000 NA
ATOM      9  N   UNL     1       2.474   7.506  19.206  0.00  0.00    +0.000 N 
ENDROOT
BRANCH   3  10
ATOM     10  C   UNL     1      -0.108   9.633  22.730  0.00  0.00    +0.000 C 
ATOM     11  F   UNL     1      -0.738  10.812  23.016  0.00  0.00    +0.000 F 
ATOM     12  F   UNL     1      -1.075   8.673  22.860  0.00  0.00    +0.000 F 
ATOM     13  F   UNL     1       0.759   9.420  23.764  0.00  0.00    +0.000 F 
ENDBRANCH   3  10
BRANCH   1  14
ATOM     14  N   UNL     1       0.085  11.358  18.197  0.00  0.00    +0.000 N 
ATOM     15  H   UNL     1       0.691  12.173  18.169  0.00  0.00    +0.000 HD
BRANCH  14  16
ATOM     16  C   UNL     1      -1.339  11.651  18.366  0.00  0.00    +0.000 C 
BRANCH  16  17
ATOM     17  C   UNL     1      -2.196  10.634  17.620  0.00  0.00    +0.000 C 
BRANCH  17  18
ATOM     18  C   UNL     1      -3.549  11.241  17.254  0.00  0.00    +0.000 C 
BRANCH  18  19
ATOM     19  O   UNL     1      -4.033  10.617  16.065  0.00  0.00    +0.000 OA
BRANCH  19  21
ATOM     20  C   UNL     1      -3.144  10.042  13.921  0.00  0.00    +0.000 C 
ATOM     21  C   UNL     1      -3.023   9.845  15.420  0.00  0.00    +0.000 C 
ENDBRANCH  19  21
ENDBRANCH  18  19
ENDBRANCH  17  18
ENDBRANCH  16  17
ENDBRANCH  14  16
ENDBRANCH   1  14
BRANCH   9  22
ATOM     22  C   UNL     1       2.911   6.243  19.789  0.00  0.00    +0.000 C 
BRANCH  22  23
ATOM     23  C   UNL     1       2.714   5.100  18.823  0.00  0.00    +0.000 A 
ATOM     24  C   UNL     1       3.554   5.004  17.697  0.00  0.00    +0.000 A 
ATOM     25  C   UNL     1       3.548   3.864  16.894  0.00  0.00    +0.000 A 
ATOM     26  C   UNL     1       2.682   2.814  17.180  0.00  0.00    +0.000 A 
ATOM     27  C   UNL     1       1.778   2.931  18.235  0.00  0.00    +0.000 A 
ATOM     28  C   UNL     1       1.783   4.069  19.045  0.00  0.00    +0.000 A 
ATOM     29 CL   UNL     1       0.628   4.127  20.329  0.00  0.00    +0.000 Cl
ENDBRANCH  22  23
ENDBRANCH   9  22
TORSDOF 9
ENDMDL
MODEL 9
REMARK VINA RESULT:      -7.4      1.109      1.664
REMARK  Name = 
REMARK  10 active torsions:
REMARK  status: ('A' for Active; 'I' for Inactive)
REMARK    1  A    between atoms: C_1  and  C_2
REMARK    2  A    between atoms: C_2  and  O_3
REMARK    3  A    between atoms: O_3  and  C_4
REMARK    4  A    between atoms: C_4  and  C_5
REMARK    5  A    between atoms: C_5  and  C_6
REMARK    6  A    between atoms: C_6  and  N_7
REMARK    7  A    between atoms: N_7  and  C_8
REMARK    8  A    between atoms: C_10  and  C_11
REMARK    9  A    between atoms: N_20  and  C_21
REMARK   10  A    between atoms: C_21  and  C_22
REMARK                            x       y       z     vdW  Elec       q    Type
REMARK                         _______ _______ _______ _____ _____    ______ ____
ROOT
ATOM      1  C   UNL     1       7.293   6.286  16.857  0.00  0.00    +0.000 A 
ATOM      2  N   UNL     1       7.048   5.832  15.598  0.00  0.00    +0.000 NA
ATOM      3  C   UNL     1       6.191   4.794  15.370  0.00  0.00    +0.000 A 
ATOM      4  N   UNL     1       5.477   4.160  16.335  0.00  0.00    +0.000 NA
ATOM      5  C   UNL     1       5.780   4.595  17.561  0.00  0.00    +0.000 A 
ATOM      6  C   UNL     1       6.646   5.618  17.914  0.00  0.00    +0.000 A 
ATOM      7  N   UNL     1       6.689   5.731  19.278  0.00  0.00    +0.000 NA
ATOM      8  N   UNL     1       5.922   4.766  19.793  0.00  0.00    +0.000 NA
ATOM      9  N   UNL     1       5.381   4.081  18.760  0.00  0.00    +0.000 N 
ENDROOT
BRANCH   3  10
ATOM     10  C   UNL     1       6.131   4.210  13.961  0.00  0.00    +0.000 C 
ATOM     11  F   UNL     1       4.908   4.320  13.358  0.00  0.00    +0.000 F 
ATOM     12  F   UNL     1       7.002   4.834  13.110  0.00  0.00    +0.000 F 
ATOM     13  F   UNL     1       6.450   2.883  13.902  0.00  0.00    +0.000 F 
ENDBRANCH   3  10
BRANCH   1  14
ATOM     14  N   UNL     1       8.201   7.344  17.035  0.00  0.00    +0.000 N 
ATOM     15  H   UNL     1       9.039   7.028  17.516  0.00  0.00    +0.000 HD
BRANCH  14  16
ATOM     16  C   UNL     1       7.571   8.535  17.606  0.00  0.00    +0.000 C 
BRANCH  16  17
ATOM     17  C   UNL     1       8.565   9.324  18.451  0.00  0.00    +0.000 C 
BRANCH  17  18
ATOM     18  C   UNL     1       8.566  10.795  18.041  0.00  0.00    +0.000 C 
BRANCH  18  19
ATOM     19  O   UNL     1       9.652  11.458  18.687  0.00  0.00    +0.000 OA
BRANCH  19  21
ATOM     20  C   UNL     1      12.002  11.898  18.728  0.00  0.00    +0.000 C 
ATOM     21  C   UNL     1      10.822  11.481  17.872  0.00  0.00    +0.000 C 
ENDBRANCH  19  21
ENDBRANCH  18  19
ENDBRANCH  17  18
ENDBRANCH  16  17
ENDBRANCH  14  16
ENDBRANCH   1  14
BRANCH   9  22
ATOM     22  C   UNL     1       4.644   2.843  18.979  0.00  0.00    +0.000 C 
BRANCH  22  23
ATOM     23  C   UNL     1       3.157   3.098  19.043  0.00  0.00    +0.000 A 
ATOM     24  C   UNL     1       2.491   3.555  17.890  0.00  0.00    +0.000 A 
ATOM     25  C   UNL     1       1.099   3.607  17.841  0.00  0.00    +0.000 A 
ATOM     26  C   UNL     1       0.347   3.237  18.950  0.00  0.00    +0.000 A 
ATOM     27  C   UNL     1       0.992   2.872  20.131  0.00  0.00    +0.000 A 
ATOM     28  C   UNL     1       2.387   2.813  20.185  0.00  0.00    +0.000 A 
ATOM     29 CL   UNL     1       3.098   2.350  21.689  0.00  0.00    +0.000 Cl
ENDBRANCH  22  23
ENDBRANCH   9  22
TORSDOF 9
ENDMDL
