MODEL 1
REMARK VINA RESULT:      -8.1      0.000      0.000
REMARK  Name = 
REMARK  6 active torsions:
REMARK  status: ('A' for Active; 'I' for Inactive)
REMARK    1  A    between atoms: C_1  and  O_2
REMARK    2  A    between atoms: O_2  and  C_3
REMARK    3  A    between atoms: C_6  and  S_7
REMARK    4  A    between atoms: S_7  and  N_10
REMARK    5  A    between atoms: N_10  and  C_11
REMARK    6  A    between atoms: C_16  and  C_17
REMARK                            x       y       z     vdW  Elec       q    Type
REMARK                         _______ _______ _______ _____ _____    ______ ____
ROOT
ATOM      1  N   UNL     1       3.162   6.106  19.755  0.00  0.00    +0.000 N 
ATOM      2  H   UNL     1       2.826   6.534  20.610  0.00  0.00    +0.000 HD
ENDROOT
BRANCH   1   3
ATOM      3  C   UNL     1       2.814   4.710  19.598  0.00  0.00    +0.000 A 
ATOM      4  C   UNL     1       1.699   4.282  20.335  0.00  0.00    +0.000 A 
ATOM      5  C   UNL     1       1.309   2.938  20.325  0.00  0.00    +0.000 A 
ATOM      6  C   UNL     1       2.025   2.013  19.586  0.00  0.00    +0.000 A 
ATOM      7  C   UNL     1       3.113   2.439  18.829  0.00  0.00    +0.000 A 
ATOM      8  C   UNL     1       3.550   3.793  18.815  0.00  0.00    +0.000 A 
BRANCH   8   9
ATOM      9  C   UNL     1       4.705   4.134  17.953  0.00  0.00    +0.000 A 
ATOM     10  C   UNL     1       5.952   4.469  18.516  0.00  0.00    +0.000 A 
ATOM     11  C   UNL     1       7.086   4.671  17.724  0.00  0.00    +0.000 A 
ATOM     12  C   UNL     1       6.991   4.578  16.339  0.00  0.00    +0.000 A 
ATOM     13  C   UNL     1       5.768   4.271  15.759  0.00  0.00    +0.000 A 
ATOM     14 CL   UNL     1       5.632   4.112  14.050  0.00  0.00    +0.000 Cl
ATOM     15  C   UNL     1       4.649   4.029  16.554  0.00  0.00    +0.000 A 
ENDBRANCH   8   9
ENDBRANCH   1   3
BRANCH   1  16
ATOM     16  S   UNL     1       2.647   7.168  18.527  0.00  0.00    +0.000 S 
ATOM     17  O   UNL     1       1.727   6.407  17.715  0.00  0.00    +0.000 OA
ATOM     18  O   UNL     1       3.775   7.871  17.951  0.00  0.00    +0.000 OA
BRANCH  16  22
ATOM     19  C   UNL     1       0.353  10.233  21.028  0.00  0.00    +0.000 A 
ATOM     20  C   UNL     1       0.753   9.012  21.579  0.00  0.00    +0.000 A 
ATOM     21  C   UNL     1       1.430   8.070  20.804  0.00  0.00    +0.000 A 
ATOM     22  C   UNL     1       1.685   8.339  19.461  0.00  0.00    +0.000 A 
ATOM     23  C   UNL     1       1.265   9.550  18.889  0.00  0.00    +0.000 A 
ATOM     24  C   UNL     1       0.591  10.495  19.680  0.00  0.00    +0.000 A 
BRANCH  19  26
ATOM     25  C   UNL     1      -0.844  10.464  23.058  0.00  0.00    +0.000 C 
ATOM     26  O   UNL     1      -0.281  11.073  21.902  0.00  0.00    +0.000 OA
ENDBRANCH  19  26
ENDBRANCH  16  22
ENDBRANCH   1  16
TORSDOF 5
ENDMDL
MODEL 2
REMARK VINA RESULT:      -8.0      1.005      1.532
REMARK  Name = 
REMARK  6 active torsions:
REMARK  status: ('A' for Active; 'I' for Inactive)
REMARK    1  A    between atoms: C_1  and  O_2
REMARK    2  A    between atoms: O_2  and  C_3
REMARK    3  A    between atoms: C_6  and  S_7
REMARK    4  A    between atoms: S_7  and  N_10
REMARK    5  A    between atoms: N_10  and  C_11
REMARK    6  A    between atoms: C_16  and  C_17
REMARK                            x       y       z     vdW  Elec       q    Type
REMARK                         _______ _______ _______ _____ _____    ______ ____
ROOT
ATOM      1  N   UNL     1       3.417   6.344  19.810  0.00  0.00    +0.000 N 
ATOM      2  H   UNL     1       2.971   6.901  20.530  0.00  0.00    +0.000 HD
ENDROOT
BRANCH   1   3
ATOM      3  C   UNL     1       3.318   4.913  20.001  0.00  0.00    +0.000 A 
ATOM      4  C   UNL     1       2.349   4.496  20.927  0.00  0.00    +0.000 A 
ATOM      5  C   UNL     1       2.208   3.143  21.254  0.00  0.00    +0.000 A 
ATOM      6  C   UNL     1       3.030   2.198  20.665  0.00  0.00    +0.000 A 
ATOM      7  C   UNL     1       3.971   2.604  19.724  0.00  0.00    +0.000 A 
ATOM      8  C   UNL     1       4.155   3.969  19.367  0.00  0.00    +0.000 A 
BRANCH   8   9
ATOM      9  C   UNL     1       5.170   4.279  18.335  0.00  0.00    +0.000 A 
ATOM     10  C   UNL     1       6.472   4.677  18.700  0.00  0.00    +0.000 A 
ATOM     11  C   UNL     1       7.481   4.853  17.748  0.00  0.00    +0.000 A 
ATOM     12  C   UNL     1       7.202   4.669  16.398  0.00  0.00    +0.000 A 
ATOM     13  C   UNL     1       5.920   4.297  16.011  0.00  0.00    +0.000 A 
ATOM     14 CL   UNL     1       5.559   4.026  14.351  0.00  0.00    +0.000 Cl
ATOM     15  C   UNL     1       4.929   4.083  16.966  0.00  0.00    +0.000 A 
ENDBRANCH   8   9
ENDBRANCH   1   3
BRANCH   1  16
ATOM     16  S   UNL     1       2.792   6.969  18.353  0.00  0.00    +0.000 S 
ATOM     17  O   UNL     1       1.885   5.962  17.857  0.00  0.00    +0.000 OA
ATOM     18  O   UNL     1       3.853   7.516  17.534  0.00  0.00    +0.000 OA
BRANCH  16  22
ATOM     19  C   UNL     1       0.081  10.355  19.803  0.00  0.00    +0.000 A 
ATOM     20  C   UNL     1       0.488  10.283  18.467  0.00  0.00    +0.000 A 
ATOM     21  C   UNL     1       1.336   9.262  18.036  0.00  0.00    +0.000 A 
ATOM     22  C   UNL     1       1.803   8.323  18.952  0.00  0.00    +0.000 A 
ATOM     23  C   UNL     1       1.424   8.400  20.302  0.00  0.00    +0.000 A 
ATOM     24  C   UNL     1       0.564   9.427  20.723  0.00  0.00    +0.000 A 
BRANCH  19  26
ATOM     25  C   UNL     1      -1.817  11.611  19.153  0.00  0.00    +0.000 C 
ATOM     26  O   UNL     1      -0.767  11.391  20.086  0.00  0.00    +0.000 OA
ENDBRANCH  19  26
ENDBRANCH  16  22
ENDBRANCH   1  16
TORSDOF 5
ENDMDL
MODEL 3
REMARK VINA RESULT:      -7.9      1.505      2.128
REMARK  Name = 
REMARK  6 active torsions:
REMARK  status: ('A' for Active; 'I' for Inactive)
REMARK    1  A    between atoms: C_1  and  O_2
REMARK    2  A    between atoms: O_2  and  C_3
REMARK    3  A    between atoms: C_6  and  S_7
REMARK    4  A    between atoms: S_7  and  N_10
REMARK    5  A    between atoms: N_10  and  C_11
REMARK    6  A    between atoms: C_16  and  C_17
REMARK                            x       y       z     vdW  Elec       q    Type
REMARK                         _______ _______ _______ _____ _____    ______ ____
ROOT
ATOM      1  N   UNL     1       2.902   6.369  19.910  0.00  0.00    +0.000 N 
ATOM      2  H   UNL     1       2.418   6.912  20.616  0.00  0.00    +0.000 HD
ENDROOT
BRANCH   1   3
ATOM      3  C   UNL     1       2.603   4.953  19.923  0.00  0.00    +0.000 A 
ATOM      4  C   UNL     1       1.432   4.593  20.608  0.00  0.00    +0.000 A 
ATOM      5  C   UNL     1       1.075   3.247  20.753  0.00  0.00    +0.000 A 
ATOM      6  C   UNL     1       1.879   2.255  20.222  0.00  0.00    +0.000 A 
ATOM      7  C   UNL     1       3.025   2.609  19.516  0.00  0.00    +0.000 A 
ATOM      8  C   UNL     1       3.431   3.963  19.350  0.00  0.00    +0.000 A 
BRANCH   8   9
ATOM      9  C   UNL     1       4.655   4.221  18.557  0.00  0.00    +0.000 A 
ATOM     10  C   UNL     1       4.727   3.851  17.199  0.00  0.00    +0.000 A 
ATOM     11  C   UNL     1       5.820   4.197  16.400  0.00  0.00    +0.000 A 
ATOM     12  C   UNL     1       6.890   4.895  16.951  0.00  0.00    +0.000 A 
ATOM     13  C   UNL     1       6.853   5.252  18.293  0.00  0.00    +0.000 A 
ATOM     14 CL   UNL     1       8.146   6.149  18.989  0.00  0.00    +0.000 Cl
ATOM     15  C   UNL     1       5.743   4.942  19.076  0.00  0.00    +0.000 A 
ENDBRANCH   8   9
ENDBRANCH   1   3
BRANCH   1  16
ATOM     16  S   UNL     1       2.597   7.206  18.458  0.00  0.00    +0.000 S 
ATOM     17  O   UNL     1       1.739   6.339  17.684  0.00  0.00    +0.000 OA
ATOM     18  O   UNL     1       3.822   7.756  17.916  0.00  0.00    +0.000 OA
BRANCH  16  22
ATOM     19  C   UNL     1      -0.146  10.582  19.871  0.00  0.00    +0.000 A 
ATOM     20  C   UNL     1       0.242  10.485  18.531  0.00  0.00    +0.000 A 
ATOM     21  C   UNL     1       1.099   9.468  18.110  0.00  0.00    +0.000 A 
ATOM     22  C   UNL     1       1.595   8.557  19.041  0.00  0.00    +0.000 A 
ATOM     23  C   UNL     1       1.235   8.660  20.394  0.00  0.00    +0.000 A 
ATOM     24  C   UNL     1       0.364   9.682  20.805  0.00  0.00    +0.000 A 
BRANCH  19  26
ATOM     25  C   UNL     1      -1.895  11.976  19.094  0.00  0.00    +0.000 C 
ATOM     26  O   UNL     1      -1.007  11.610  20.143  0.00  0.00    +0.000 OA
ENDBRANCH  19  26
ENDBRANCH  16  22
ENDBRANCH   1  16
TORSDOF 5
ENDMDL
MODEL 4
REMARK VINA RESULT:      -7.9      1.425      1.942
REMARK  Name = 
REMARK  6 active torsions:
REMARK  status: ('A' for Active; 'I' for Inactive)
REMARK    1  A    between atoms: C_1  and  O_2
REMARK    2  A    between atoms: O_2  and  C_3
REMARK    3  A    between atoms: C_6  and  S_7
REMARK    4  A    between atoms: S_7  and  N_10
REMARK    5  A    between atoms: N_10  and  C_11
REMARK    6  A    between atoms: C_16  and  C_17
REMARK                            x       y       z     vdW  Elec       q    Type
REMARK                         _______ _______ _______ _____ _____    ______ ____
ROOT
ATOM      1  N   UNL     1       2.321   5.701  17.625  0.00  0.00    +0.000 N 
ATOM      2  H   UNL     1       2.568   5.941  16.672  0.00  0.00    +0.000 HD
ENDROOT
BRANCH   1   3
ATOM      3  C   UNL     1       2.387   4.287  17.931  0.00  0.00    +0.000 A 
ATOM      4  C   UNL     1       1.229   3.743  18.507  0.00  0.00    +0.000 A 
ATOM      5  C   UNL     1       1.196   2.405  18.916  0.00  0.00    +0.000 A 
ATOM      6  C   UNL     1       2.311   1.603  18.757  0.00  0.00    +0.000 A 
ATOM      7  C   UNL     1       3.451   2.131  18.158  0.00  0.00    +0.000 A 
ATOM      8  C   UNL     1       3.534   3.486  17.734  0.00  0.00    +0.000 A 
BRANCH   8   9
ATOM      9  C   UNL     1       4.789   3.930  17.086  0.00  0.00    +0.000 A 
ATOM     10  C   UNL     1       5.899   4.327  17.859  0.00  0.00    +0.000 A 
ATOM     11  C   UNL     1       7.132   4.629  17.274  0.00  0.00    +0.000 A 
ATOM     12  C   UNL     1       7.277   4.573  15.892  0.00  0.00    +0.000 A 
ATOM     13  C   UNL     1       6.192   4.205  15.107  0.00  0.00    +0.000 A 
ATOM     14 CL   UNL     1       6.356   4.092  13.397  0.00  0.00    +0.000 Cl
ATOM     15  C   UNL     1       4.976   3.865  15.697  0.00  0.00    +0.000 A 
ENDBRANCH   8   9
ENDBRANCH   1   3
BRANCH   1  16
ATOM     16  S   UNL     1       3.279   6.738  18.578  0.00  0.00    +0.000 S 
ATOM     17  O   UNL     1       4.261   7.295  17.678  0.00  0.00    +0.000 OA
ATOM     18  O   UNL     1       3.654   6.093  19.819  0.00  0.00    +0.000 OA
BRANCH  16  22
ATOM     19  C   UNL     1       0.139   9.945  19.460  0.00  0.00    +0.000 A 
ATOM     20  C   UNL     1       0.668   9.792  18.175  0.00  0.00    +0.000 A 
ATOM     21  C   UNL     1       1.644   8.829  17.917  0.00  0.00    +0.000 A 
ATOM     22  C   UNL     1       2.116   8.032  18.957  0.00  0.00    +0.000 A 
ATOM     23  C   UNL     1       1.613   8.193  20.258  0.00  0.00    +0.000 A 
ATOM     24  C   UNL     1       0.624   9.160  20.504  0.00  0.00    +0.000 A 
BRANCH  19  26
ATOM     25  C   UNL     1      -0.740  11.986  18.645  0.00  0.00    +0.000 C 
ATOM     26  O   UNL     1      -0.826  10.909  19.569  0.00  0.00    +0.000 OA
ENDBRANCH  19  26
ENDBRANCH  16  22
ENDBRANCH   1  16
TORSDOF 5
ENDMDL
MODEL 5
REMARK VINA RESULT:      -7.9      1.380      1.509
REMARK  Name = 
REMARK  6 active torsions:
REMARK  status: ('A' for Active; 'I' for Inactive)
REMARK    1  A    between atoms: C_1  and  O_2
REMARK    2  A    between atoms: O_2  and  C_3
REMARK    3  A    between atoms: C_6  and  S_7
REMARK    4  A    between atoms: S_7  and  N_10
REMARK    5  A    between atoms: N_10  and  C_11
REMARK    6  A    between atoms: C_16  and  C_17
REMARK                            x       y       z     vdW  Elec       q    Type
REMARK                         _______ _______ _______ _____ _____    ______ ____
ROOT
ATOM      1  N   UNL     1       2.355   5.667  17.589  0.00  0.00    +0.000 N 
ATOM      2  H   UNL     1       2.613   5.908  16.640  0.00  0.00    +0.000 HD
ENDROOT
BRANCH   1   3
ATOM      3  C   UNL     1       2.436   4.256  17.901  0.00  0.00    +0.000 A 
ATOM      4  C   UNL     1       1.293   3.707  18.504  0.00  0.00    +0.000 A 
ATOM      5  C   UNL     1       1.277   2.371  18.919  0.00  0.00    +0.000 A 
ATOM      6  C   UNL     1       2.394   1.575  18.741  0.00  0.00    +0.000 A 
ATOM      7  C   UNL     1       3.518   2.107  18.117  0.00  0.00    +0.000 A 
ATOM      8  C   UNL     1       3.583   3.461  17.685  0.00  0.00    +0.000 A 
BRANCH   8   9
ATOM      9  C   UNL     1       4.822   3.909  17.010  0.00  0.00    +0.000 A 
ATOM     10  C   UNL     1       5.933   4.348  17.758  0.00  0.00    +0.000 A 
ATOM     11  C   UNL     1       7.153   4.656  17.149  0.00  0.00    +0.000 A 
ATOM     12  C   UNL     1       7.283   4.565  15.767  0.00  0.00    +0.000 A 
ATOM     13  C   UNL     1       6.196   4.155  15.006  0.00  0.00    +0.000 A 
ATOM     14 CL   UNL     1       6.342   3.997  13.299  0.00  0.00    +0.000 Cl
ATOM     15  C   UNL     1       4.994   3.809  15.620  0.00  0.00    +0.000 A 
ENDBRANCH   8   9
ENDBRANCH   1   3
BRANCH   1  16
ATOM     16  S   UNL     1       3.281   6.721  18.555  0.00  0.00    +0.000 S 
ATOM     17  O   UNL     1       4.234   7.331  17.658  0.00  0.00    +0.000 OA
ATOM     18  O   UNL     1       3.691   6.067  19.780  0.00  0.00    +0.000 OA
BRANCH  16  22
ATOM     19  C   UNL     1       0.335  10.020  19.718  0.00  0.00    +0.000 A 
ATOM     20  C   UNL     1       0.763   9.076  20.656  0.00  0.00    +0.000 A 
ATOM     21  C   UNL     1       1.642   8.056  20.290  0.00  0.00    +0.000 A 
ATOM     22  C   UNL     1       2.075   7.963  18.969  0.00  0.00    +0.000 A 
ATOM     23  C   UNL     1       1.631   8.888  18.011  0.00  0.00    +0.000 A 
ATOM     24  C   UNL     1       0.753   9.916  18.393  0.00  0.00    +0.000 A 
BRANCH  19  26
ATOM     25  C   UNL     1       0.109  12.178  20.665  0.00  0.00    +0.000 C 
ATOM     26  O   UNL     1      -0.506  10.977  20.215  0.00  0.00    +0.000 OA
ENDBRANCH  19  26
ENDBRANCH  16  22
ENDBRANCH   1  16
TORSDOF 5
ENDMDL
MODEL 6
REMARK VINA RESULT:      -7.9      1.384      1.698
REMARK  Name = 
REMARK  6 active torsions:
REMARK  status: ('A' for Active; 'I' for Inactive)
REMARK    1  A    between atoms: C_1  and  O_2
REMARK    2  A    between atoms: O_2  and  C_3
REMARK    3  A    between atoms: C_6  and  S_7
REMARK    4  A    between atoms: S_7  and  N_10
REMARK    5  A    between atoms: N_10  and  C_11
REMARK    6  A    between atoms: C_16  and  C_17
REMARK                            x       y       z     vdW  Elec       q    Type
REMARK                         _______ _______ _______ _____ _____    ______ ____
ROOT
ATOM      1  N   UNL     1       2.894   6.320  19.890  0.00  0.00    +0.000 N 
ATOM      2  H   UNL     1       2.403   6.870  20.586  0.00  0.00    +0.000 HD
ENDROOT
BRANCH   1   3
ATOM      3  C   UNL     1       2.586   4.906  19.905  0.00  0.00    +0.000 A 
ATOM      4  C   UNL     1       1.414   4.553  20.593  0.00  0.00    +0.000 A 
ATOM      5  C   UNL     1       1.050   3.210  20.741  0.00  0.00    +0.000 A 
ATOM      6  C   UNL     1       1.848   2.212  20.211  0.00  0.00    +0.000 A 
ATOM      7  C   UNL     1       2.995   2.559  19.503  0.00  0.00    +0.000 A 
ATOM      8  C   UNL     1       3.409   3.910  19.333  0.00  0.00    +0.000 A 
BRANCH   8   9
ATOM      9  C   UNL     1       4.633   4.160  18.539  0.00  0.00    +0.000 A 
ATOM     10  C   UNL     1       4.684   3.830  17.170  0.00  0.00    +0.000 A 
ATOM     11  C   UNL     1       5.781   4.171  16.372  0.00  0.00    +0.000 A 
ATOM     12  C   UNL     1       6.873   4.823  16.935  0.00  0.00    +0.000 A 
ATOM     13  C   UNL     1       6.856   5.139  18.288  0.00  0.00    +0.000 A 
ATOM     14 CL   UNL     1       8.178   5.978  19.001  0.00  0.00    +0.000 Cl
ATOM     15  C   UNL     1       5.743   4.834  19.070  0.00  0.00    +0.000 A 
ENDBRANCH   8   9
ENDBRANCH   1   3
BRANCH   1  16
ATOM     16  S   UNL     1       2.612   7.151  18.430  0.00  0.00    +0.000 S 
ATOM     17  O   UNL     1       1.667   6.340  17.698  0.00  0.00    +0.000 OA
ATOM     18  O   UNL     1       3.859   7.593  17.842  0.00  0.00    +0.000 OA
BRANCH  16  22
ATOM     19  C   UNL     1       0.538  10.899  20.031  0.00  0.00    +0.000 A 
ATOM     20  C   UNL     1       0.727   9.780  20.847  0.00  0.00    +0.000 A 
ATOM     21  C   UNL     1       1.338   8.629  20.346  0.00  0.00    +0.000 A 
ATOM     22  C   UNL     1       1.736   8.588  19.011  0.00  0.00    +0.000 A 
ATOM     23  C   UNL     1       1.528   9.696  18.175  0.00  0.00    +0.000 A 
ATOM     24  C   UNL     1       0.920  10.851  18.692  0.00  0.00    +0.000 A 
BRANCH  19  26
ATOM     25  C   UNL     1      -0.614  11.709  21.935  0.00  0.00    +0.000 C 
ATOM     26  O   UNL     1      -0.051  11.966  20.654  0.00  0.00    +0.000 OA
ENDBRANCH  19  26
ENDBRANCH  16  22
ENDBRANCH   1  16
TORSDOF 5
ENDMDL
MODEL 7
REMARK VINA RESULT:      -7.7      1.740      2.173
REMARK  Name = 
REMARK  6 active torsions:
REMARK  status: ('A' for Active; 'I' for Inactive)
REMARK    1  A    between atoms: C_1  and  O_2
REMARK    2  A    between atoms: O_2  and  C_3
REMARK    3  A    between atoms: C_6  and  S_7
REMARK    4  A    between atoms: S_7  and  N_10
REMARK    5  A    between atoms: N_10  and  C_11
REMARK    6  A    between atoms: C_16  and  C_17
REMARK                            x       y       z     vdW  Elec       q    Type
REMARK                         _______ _______ _______ _____ _____    ______ ____
ROOT
ATOM      1  N   UNL     1       2.241   5.681  17.649  0.00  0.00    +0.000 N 
ATOM      2  H   UNL     1       2.565   5.917  16.718  0.00  0.00    +0.000 HD
ENDROOT
BRANCH   1   3
ATOM      3  C   UNL     1       2.261   4.267  17.958  0.00  0.00    +0.000 A 
ATOM      4  C   UNL     1       1.046   3.736  18.418  0.00  0.00    +0.000 A 
ATOM      5  C   UNL     1       0.957   2.399  18.820  0.00  0.00    +0.000 A 
ATOM      6  C   UNL     1       2.074   1.584  18.770  0.00  0.00    +0.000 A 
ATOM      7  C   UNL     1       3.273   2.098  18.286  0.00  0.00    +0.000 A 
ATOM      8  C   UNL     1       3.412   3.453  17.874  0.00  0.00    +0.000 A 
BRANCH   8   9
ATOM      9  C   UNL     1       4.730   3.882  17.353  0.00  0.00    +0.000 A 
ATOM     10  C   UNL     1       4.958   3.986  15.966  0.00  0.00    +0.000 A 
ATOM     11  C   UNL     1       6.149   4.508  15.454  0.00  0.00    +0.000 A 
ATOM     12  C   UNL     1       7.161   4.908  16.321  0.00  0.00    +0.000 A 
ATOM     13  C   UNL     1       6.969   4.795  17.692  0.00  0.00    +0.000 A 
ATOM     14 CL   UNL     1       8.190   5.318  18.786  0.00  0.00    +0.000 Cl
ATOM     15  C   UNL     1       5.764   4.313  18.198  0.00  0.00    +0.000 A 
ENDBRANCH   8   9
ENDBRANCH   1   3
BRANCH   1  16
ATOM     16  S   UNL     1       3.138   6.704  18.674  0.00  0.00    +0.000 S 
ATOM     17  O   UNL     1       4.187   7.257  17.850  0.00  0.00    +0.000 OA
ATOM     18  O   UNL     1       3.420   6.048  19.934  0.00  0.00    +0.000 OA
BRANCH  16  22
ATOM     19  C   UNL     1       0.274  10.160  19.553  0.00  0.00    +0.000 A 
ATOM     20  C   UNL     1       0.662   9.275  20.563  0.00  0.00    +0.000 A 
ATOM     21  C   UNL     1       1.516   8.207  20.284  0.00  0.00    +0.000 A 
ATOM     22  C   UNL     1       1.963   8.006  18.980  0.00  0.00    +0.000 A 
ATOM     23  C   UNL     1       1.559   8.872  17.951  0.00  0.00    +0.000 A 
ATOM     24  C   UNL     1       0.706   9.948  18.245  0.00  0.00    +0.000 A 
BRANCH  19  26
ATOM     25  C   UNL     1      -0.940  12.106  18.967  0.00  0.00    +0.000 C 
ATOM     26  O   UNL     1      -0.545  11.174  19.967  0.00  0.00    +0.000 OA
ENDBRANCH  19  26
ENDBRANCH  16  22
ENDBRANCH   1  16
TORSDOF 5
ENDMDL
MODEL 8
REMARK VINA RESULT:      -7.7      1.718      2.265
REMARK  Name = 
REMARK  6 active torsions:
REMARK  status: ('A' for Active; 'I' for Inactive)
REMARK    1  A    between atoms: C_1  and  O_2
REMARK    2  A    between atoms: O_2  and  C_3
REMARK    3  A    between atoms: C_6  and  S_7
REMARK    4  A    between atoms: S_7  and  N_10
REMARK    5  A    between atoms: N_10  and  C_11
REMARK    6  A    between atoms: C_16  and  C_17
REMARK                            x       y       z     vdW  Elec       q    Type
REMARK                         _______ _______ _______ _____ _____    ______ ____
ROOT
ATOM      1  N   UNL     1       2.217   5.703  17.682  0.00  0.00    +0.000 N 
ATOM      2  H   UNL     1       2.501   5.953  16.742  0.00  0.00    +0.000 HD
ENDROOT
BRANCH   1   3
ATOM      3  C   UNL     1       2.233   4.283  17.964  0.00  0.00    +0.000 A 
ATOM      4  C   UNL     1       1.023   3.751  18.435  0.00  0.00    +0.000 A 
ATOM      5  C   UNL     1       0.933   2.406  18.813  0.00  0.00    +0.000 A 
ATOM      6  C   UNL     1       2.043   1.586  18.727  0.00  0.00    +0.000 A 
ATOM      7  C   UNL     1       3.237   2.103  18.231  0.00  0.00    +0.000 A 
ATOM      8  C   UNL     1       3.377   3.464  17.843  0.00  0.00    +0.000 A 
BRANCH   8   9
ATOM      9  C   UNL     1       4.688   3.895  17.306  0.00  0.00    +0.000 A 
ATOM     10  C   UNL     1       4.887   4.041  15.918  0.00  0.00    +0.000 A 
ATOM     11  C   UNL     1       6.072   4.566  15.397  0.00  0.00    +0.000 A 
ATOM     12  C   UNL     1       7.108   4.927  16.253  0.00  0.00    +0.000 A 
ATOM     13  C   UNL     1       6.945   4.772  17.623  0.00  0.00    +0.000 A 
ATOM     14 CL   UNL     1       8.195   5.247  18.706  0.00  0.00    +0.000 Cl
ATOM     15  C   UNL     1       5.745   4.288  18.142  0.00  0.00    +0.000 A 
ENDBRANCH   8   9
ENDBRANCH   1   3
BRANCH   1  16
ATOM     16  S   UNL     1       3.172   6.696  18.684  0.00  0.00    +0.000 S 
ATOM     17  O   UNL     1       4.211   7.223  17.831  0.00  0.00    +0.000 OA
ATOM     18  O   UNL     1       3.472   6.026  19.932  0.00  0.00    +0.000 OA
BRANCH  16  22
ATOM     19  C   UNL     1       0.117  10.006  19.478  0.00  0.00    +0.000 A 
ATOM     20  C   UNL     1       0.659   9.820  18.202  0.00  0.00    +0.000 A 
ATOM     21  C   UNL     1       1.610   8.824  17.971  0.00  0.00    +0.000 A 
ATOM     22  C   UNL     1       2.043   8.028  19.029  0.00  0.00    +0.000 A 
ATOM     23  C   UNL     1       1.527   8.223  20.320  0.00  0.00    +0.000 A 
ATOM     24  C   UNL     1       0.565   9.222  20.540  0.00  0.00    +0.000 A 
BRANCH  19  26
ATOM     25  C   UNL     1      -1.010  11.574  20.848  0.00  0.00    +0.000 C 
ATOM     26  O   UNL     1      -0.819  10.999  19.560  0.00  0.00    +0.000 OA
ENDBRANCH  19  26
ENDBRANCH  16  22
ENDBRANCH   1  16
TORSDOF 5
ENDMDL
MODEL 9
REMARK VINA RESULT:      -7.7      3.697      7.038
REMARK  Name = 
REMARK  6 active torsions:
REMARK  status: ('A' for Active; 'I' for Inactive)
REMARK    1  A    between atoms: C_1  and  O_2
REMARK    2  A    between atoms: O_2  and  C_3
REMARK    3  A    between atoms: C_6  and  S_7
REMARK    4  A    between atoms: S_7  and  N_10
REMARK    5  A    between atoms: N_10  and  C_11
REMARK    6  A    between atoms: C_16  and  C_17
REMARK                            x       y       z     vdW  Elec       q    Type
REMARK                         _______ _______ _______ _____ _____    ______ ____
ROOT
ATOM      1  N   UNL     1       5.621   5.828  19.263  0.00  0.00    +0.000 N 
ATOM      2  H   UNL     1       5.378   6.810  19.325  0.00  0.00    +0.000 HD
ENDROOT
BRANCH   1   3
ATOM      3  C   UNL     1       4.567   4.973  18.759  0.00  0.00    +0.000 A 
ATOM      4  C   UNL     1       4.937   3.641  18.517  0.00  0.00    +0.000 A 
ATOM      5  C   UNL     1       4.027   2.736  17.959  0.00  0.00    +0.000 A 
ATOM      6  C   UNL     1       2.747   3.150  17.637  0.00  0.00    +0.000 A 
ATOM      7  C   UNL     1       2.366   4.462  17.903  0.00  0.00    +0.000 A 
ATOM      8  C   UNL     1       3.259   5.418  18.461  0.00  0.00    +0.000 A 
BRANCH   8   9
ATOM      9  C   UNL     1       2.736   6.778  18.724  0.00  0.00    +0.000 A 
ATOM     10  C   UNL     1       2.751   7.764  17.717  0.00  0.00    +0.000 A 
ATOM     11  C   UNL     1       2.150   9.012  17.902  0.00  0.00    +0.000 A 
ATOM     12  C   UNL     1       1.545   9.319  19.116  0.00  0.00    +0.000 A 
ATOM     13  C   UNL     1       1.536   8.372  20.132  0.00  0.00    +0.000 A 
ATOM     14 CL   UNL     1       0.762   8.713  21.631  0.00  0.00    +0.000 Cl
ATOM     15  C   UNL     1       2.101   7.114  19.930  0.00  0.00    +0.000 A 
ENDBRANCH   8   9
ENDBRANCH   1   3
BRANCH   1  16
ATOM     16  S   UNL     1       7.094   5.815  18.408  0.00  0.00    +0.000 S 
ATOM     17  O   UNL     1       7.826   4.678  18.914  0.00  0.00    +0.000 OA
ATOM     18  O   UNL     1       7.673   7.142  18.365  0.00  0.00    +0.000 OA
BRANCH  16  22
ATOM     19  C   UNL     1       5.548   4.598  14.279  0.00  0.00    +0.000 A 
ATOM     20  C   UNL     1       6.504   3.824  14.945  0.00  0.00    +0.000 A 
ATOM     21  C   UNL     1       6.991   4.214  16.193  0.00  0.00    +0.000 A 
ATOM     22  C   UNL     1       6.540   5.400  16.768  0.00  0.00    +0.000 A 
ATOM     23  C   UNL     1       5.601   6.200  16.098  0.00  0.00    +0.000 A 
ATOM     24  C   UNL     1       5.111   5.794  14.846  0.00  0.00    +0.000 A 
BRANCH  19  26
ATOM     25  C   UNL     1       6.085   3.280  12.387  0.00  0.00    +0.000 C 
ATOM     26  O   UNL     1       5.140   4.091  13.076  0.00  0.00    +0.000 OA
ENDBRANCH  19  26
ENDBRANCH  16  22
ENDBRANCH   1  16
TORSDOF 5
ENDMDL
