MODEL 1
REMARK VINA RESULT:      -8.1      0.000      0.000
REMARK  Name = 
REMARK  5 active torsions:
REMARK  status: ('A' for Active; 'I' for Inactive)
REMARK    1  A    between atoms: C_8  and  C_9
REMARK    2  A    between atoms: C_10  and  C_11
REMARK    3  A    between atoms: C_11  and  C_12
REMARK    4  A    between atoms: C_12  and  C_13
REMARK    5  A    between atoms: C_13  and  C_14
REMARK                            x       y       z     vdW  Elec       q    Type
REMARK                         _______ _______ _______ _____ _____    ______ ____
ROOT
ATOM      1  N   UNL     1       8.760   9.546  17.986  0.00  0.00    +0.000 N 
ATOM      2  C   UNL     1       8.121   8.325  18.011  0.00  0.00    +0.000 A 
ATOM      3  N   UNL     1       8.483   7.457  18.953  0.00  0.00    +0.000 NA
ATOM      4  C   UNL     1       7.842   6.276  18.955  0.00  0.00    +0.000 A 
ATOM      5  N   UNL     1       8.292   5.342  19.905  0.00  0.00    +0.000 N 
ATOM      6  C   UNL     1       6.852   5.919  18.040  0.00  0.00    +0.000 A 
ATOM      7  N   UNL     1       6.189   4.732  18.089  0.00  0.00    +0.000 NA
ATOM      8  C   UNL     1       5.256   4.475  17.150  0.00  0.00    +0.000 A 
ATOM      9  C   UNL     1       4.961   5.383  16.146  0.00  0.00    +0.000 A 
ATOM     10  C   UNL     1       5.642   6.603  16.130  0.00  0.00    +0.000 A 
ATOM     11  C   UNL     1       6.597   6.904  17.088  0.00  0.00    +0.000 A 
ATOM     12  N   UNL     1       7.220   8.092  17.057  0.00  0.00    +0.000 NA
ATOM     13  H   UNL     1       9.670   9.466  18.423  0.00  0.00    +0.000 HD
ATOM     14  H   UNL     1       8.728   9.934  17.054  0.00  0.00    +0.000 HD
ATOM     15  H   UNL     1       8.893   5.802  20.578  0.00  0.00    +0.000 HD
ATOM     16  H   UNL     1       7.515   4.820  20.300  0.00  0.00    +0.000 HD
ENDROOT
BRANCH   8  17
ATOM     17  C   UNL     1       4.534   3.200  17.257  0.00  0.00    +0.000 C 
ATOM     18  C   UNL     1       4.053   2.725  18.419  0.00  0.00    +0.000 C 
BRANCH  18  19
ATOM     19  C   UNL     1       3.252   1.465  18.563  0.00  0.00    +0.000 C 
BRANCH  19  20
ATOM     20  C   UNL     1       1.898   1.720  19.241  0.00  0.00    +0.000 C 
BRANCH  20  21
ATOM     21  C   UNL     1       1.079   2.794  18.518  0.00  0.00    +0.000 C 
BRANCH  21  22
ATOM     22  C   UNL     1       1.442   4.195  18.943  0.00  0.00    +0.000 A 
ATOM     23  C   UNL     1       1.444   4.539  20.302  0.00  0.00    +0.000 A 
ATOM     24  C   UNL     1       1.827   5.817  20.708  0.00  0.00    +0.000 A 
ATOM     25  C   UNL     1       2.201   6.767  19.759  0.00  0.00    +0.000 A 
ATOM     26  C   UNL     1       2.182   6.441  18.403  0.00  0.00    +0.000 A 
ATOM     27  C   UNL     1       1.801   5.161  17.995  0.00  0.00    +0.000 A 
ENDBRANCH  21  22
ENDBRANCH  20  21
ENDBRANCH  19  20
ENDBRANCH  18  19
ENDBRANCH   8  17
TORSDOF 5
ENDMDL
MODEL 2
REMARK VINA RESULT:      -8.0      3.928      6.596
REMARK  Name = 
REMARK  5 active torsions:
REMARK  status: ('A' for Active; 'I' for Inactive)
REMARK    1  A    between atoms: C_8  and  C_9
REMARK    2  A    between atoms: C_10  and  C_11
REMARK    3  A    between atoms: C_11  and  C_12
REMARK    4  A    between atoms: C_12  and  C_13
REMARK    5  A    between atoms: C_13  and  C_14
REMARK                            x       y       z     vdW  Elec       q    Type
REMARK                         _______ _______ _______ _____ _____    ______ ____
ROOT
ATOM      1  N   UNL     1       4.091   0.576  18.336  0.00  0.00    +0.000 N 
ATOM      2  C   UNL     1       3.584   1.844  18.531  0.00  0.00    +0.000 A 
ATOM      3  N   UNL     1       2.512   1.967  19.310  0.00  0.00    +0.000 NA
ATOM      4  C   UNL     1       2.041   3.214  19.485  0.00  0.00    +0.000 A 
ATOM      5  N   UNL     1       0.863   3.317  20.246  0.00  0.00    +0.000 N 
ATOM      6  C   UNL     1       2.595   4.351  18.900  0.00  0.00    +0.000 A 
ATOM      7  N   UNL     1       2.124   5.607  19.126  0.00  0.00    +0.000 NA
ATOM      8  C   UNL     1       2.722   6.643  18.502  0.00  0.00    +0.000 A 
ATOM      9  C   UNL     1       3.794   6.458  17.644  0.00  0.00    +0.000 A 
ATOM     10  C   UNL     1       4.272   5.160  17.445  0.00  0.00    +0.000 A 
ATOM     11  C   UNL     1       3.689   4.075  18.081  0.00  0.00    +0.000 A 
ATOM     12  N   UNL     1       4.182   2.843  17.884  0.00  0.00    +0.000 NA
ATOM     13  H   UNL     1       3.362  -0.110  18.481  0.00  0.00    +0.000 HD
ATOM     14  H   UNL     1       4.595   0.538  17.460  0.00  0.00    +0.000 HD
ATOM     15  H   UNL     1       0.682   2.438  20.716  0.00  0.00    +0.000 HD
ATOM     16  H   UNL     1       0.886   4.136  20.846  0.00  0.00    +0.000 HD
ENDROOT
BRANCH   8  17
ATOM     17  C   UNL     1       2.211   7.987  18.800  0.00  0.00    +0.000 C 
ATOM     18  C   UNL     1       1.900   8.881  17.845  0.00  0.00    +0.000 C 
BRANCH  18  19
ATOM     19  C   UNL     1       1.311  10.237  18.100  0.00  0.00    +0.000 C 
BRANCH  19  20
ATOM     20  C   UNL     1      -0.223  10.196  18.146  0.00  0.00    +0.000 C 
BRANCH  20  21
ATOM     21  C   UNL     1      -0.803  11.225  19.121  0.00  0.00    +0.000 C 
BRANCH  21  22
ATOM     22  C   UNL     1      -0.706  10.790  20.562  0.00  0.00    +0.000 A 
ATOM     23  C   UNL     1      -1.040  11.684  21.589  0.00  0.00    +0.000 A 
ATOM     24  C   UNL     1      -1.002  11.275  22.922  0.00  0.00    +0.000 A 
ATOM     25  C   UNL     1      -0.620   9.973  23.242  0.00  0.00    +0.000 A 
ATOM     26  C   UNL     1      -0.266   9.083  22.229  0.00  0.00    +0.000 A 
ATOM     27  C   UNL     1      -0.306   9.490  20.893  0.00  0.00    +0.000 A 
ENDBRANCH  21  22
ENDBRANCH  20  21
ENDBRANCH  19  20
ENDBRANCH  18  19
ENDBRANCH   8  17
TORSDOF 5
ENDMDL
MODEL 3
REMARK VINA RESULT:      -7.9      3.417      8.153
REMARK  Name = 
REMARK  5 active torsions:
REMARK  status: ('A' for Active; 'I' for Inactive)
REMARK    1  A    between atoms: C_8  and  C_9
REMARK    2  A    between atoms: C_10  and  C_11
REMARK    3  A    between atoms: C_11  and  C_12
REMARK    4  A    between atoms: C_12  and  C_13
REMARK    5  A    between atoms: C_13  and  C_14
REMARK                            x       y       z     vdW  Elec       q    Type
REMARK                         _______ _______ _______ _____ _____    ______ ____
ROOT
ATOM      1  N   UNL     1       0.586   2.593  18.650  0.00  0.00    +0.000 N 
ATOM      2  C   UNL     1       1.711   3.387  18.569  0.00  0.00    +0.000 A 
ATOM      3  N   UNL     1       1.824   4.386  19.441  0.00  0.00    +0.000 NA
ATOM      4  C   UNL     1       2.931   5.143  19.341  0.00  0.00    +0.000 A 
ATOM      5  N   UNL     1       2.997   6.242  20.217  0.00  0.00    +0.000 N 
ATOM      6  C   UNL     1       3.932   4.947  18.391  0.00  0.00    +0.000 A 
ATOM      7  N   UNL     1       5.063   5.702  18.338  0.00  0.00    +0.000 NA
ATOM      8  C   UNL     1       5.968   5.440  17.372  0.00  0.00    +0.000 A 
ATOM      9  C   UNL     1       5.773   4.432  16.442  0.00  0.00    +0.000 A 
ATOM     10  C   UNL     1       4.613   3.658  16.531  0.00  0.00    +0.000 A 
ATOM     11  C   UNL     1       3.669   3.891  17.520  0.00  0.00    +0.000 A 
ATOM     12  N   UNL     1       2.575   3.119  17.591  0.00  0.00    +0.000 NA
ATOM     13  H   UNL     1      -0.167   3.108  19.087  0.00  0.00    +0.000 HD
ATOM     14  H   UNL     1       0.397   2.171  17.751  0.00  0.00    +0.000 HD
ATOM     15  H   UNL     1       2.284   6.153  20.930  0.00  0.00    +0.000 HD
ATOM     16  H   UNL     1       3.943   6.378  20.561  0.00  0.00    +0.000 HD
ENDROOT
BRANCH   8  17
ATOM     17  C   UNL     1       7.193   6.250  17.368  0.00  0.00    +0.000 C 
ATOM     18  C   UNL     1       7.184   7.593  17.429  0.00  0.00    +0.000 C 
BRANCH  18  19
ATOM     19  C   UNL     1       8.409   8.456  17.497  0.00  0.00    +0.000 C 
BRANCH  19  20
ATOM     20  C   UNL     1       8.145   9.769  18.247  0.00  0.00    +0.000 C 
BRANCH  20  21
ATOM     21  C   UNL     1       9.145  10.000  19.384  0.00  0.00    +0.000 C 
BRANCH  21  22
ATOM     22  C   UNL     1      10.111  11.123  19.100  0.00  0.00    +0.000 A 
ATOM     23  C   UNL     1      10.274  11.593  17.789  0.00  0.00    +0.000 A 
ATOM     24  C   UNL     1      11.126  12.666  17.523  0.00  0.00    +0.000 A 
ATOM     25  C   UNL     1      11.832  13.270  18.561  0.00  0.00    +0.000 A 
ATOM     26  C   UNL     1      11.692  12.796  19.865  0.00  0.00    +0.000 A 
ATOM     27  C   UNL     1      10.837  11.724  20.134  0.00  0.00    +0.000 A 
ENDBRANCH  21  22
ENDBRANCH  20  21
ENDBRANCH  19  20
ENDBRANCH  18  19
ENDBRANCH   8  17
TORSDOF 5
ENDMDL
MODEL 4
REMARK VINA RESULT:      -7.9      0.067      1.007
REMARK  Name = 
REMARK  5 active torsions:
REMARK  status: ('A' for Active; 'I' for Inactive)
REMARK    1  A    between atoms: C_8  and  C_9
REMARK    2  A    between atoms: C_10  and  C_11
REMARK    3  A    between atoms: C_11  and  C_12
REMARK    4  A    between atoms: C_12  and  C_13
REMARK    5  A    between atoms: C_13  and  C_14
REMARK                            x       y       z     vdW  Elec       q    Type
REMARK                         _______ _______ _______ _____ _____    ______ ____
ROOT
ATOM      1  N   UNL     1       8.786   9.553  18.011  0.00  0.00    +0.000 N 
ATOM      2  C   UNL     1       8.135   8.337  18.025  0.00  0.00    +0.000 A 
ATOM      3  N   UNL     1       8.489   7.458  18.961  0.00  0.00    +0.000 NA
ATOM      4  C   UNL     1       7.837   6.283  18.953  0.00  0.00    +0.000 A 
ATOM      5  N   UNL     1       8.278   5.337  19.895  0.00  0.00    +0.000 N 
ATOM      6  C   UNL     1       6.844   5.943  18.035  0.00  0.00    +0.000 A 
ATOM      7  N   UNL     1       6.170   4.762  18.075  0.00  0.00    +0.000 NA
ATOM      8  C   UNL     1       5.233   4.522  17.134  0.00  0.00    +0.000 A 
ATOM      9  C   UNL     1       4.948   5.441  16.137  0.00  0.00    +0.000 A 
ATOM     10  C   UNL     1       5.640   6.655  16.131  0.00  0.00    +0.000 A 
ATOM     11  C   UNL     1       6.598   6.939  17.092  0.00  0.00    +0.000 A 
ATOM     12  N   UNL     1       7.232   8.121  17.070  0.00  0.00    +0.000 NA
ATOM     13  H   UNL     1       9.695   9.460  18.446  0.00  0.00    +0.000 HD
ATOM     14  H   UNL     1       8.757   9.948  17.082  0.00  0.00    +0.000 HD
ATOM     15  H   UNL     1       8.884   5.786  20.572  0.00  0.00    +0.000 HD
ATOM     16  H   UNL     1       7.496   4.819  20.286  0.00  0.00    +0.000 HD
ENDROOT
BRANCH   8  17
ATOM     17  C   UNL     1       4.500   3.253  17.230  0.00  0.00    +0.000 C 
ATOM     18  C   UNL     1       4.085   2.733  18.398  0.00  0.00    +0.000 C 
BRANCH  18  19
ATOM     19  C   UNL     1       3.274   1.479  18.537  0.00  0.00    +0.000 C 
BRANCH  19  20
ATOM     20  C   UNL     1       1.940   1.734  19.251  0.00  0.00    +0.000 C 
BRANCH  20  21
ATOM     21  C   UNL     1       1.106   2.815  18.557  0.00  0.00    +0.000 C 
BRANCH  21  22
ATOM     22  C   UNL     1       1.498   4.213  18.964  0.00  0.00    +0.000 A 
ATOM     23  C   UNL     1       1.751   5.184  17.985  0.00  0.00    +0.000 A 
ATOM     24  C   UNL     1       2.065   6.493  18.352  0.00  0.00    +0.000 A 
ATOM     25  C   UNL     1       2.140   6.841  19.700  0.00  0.00    +0.000 A 
ATOM     26  C   UNL     1       1.910   5.877  20.681  0.00  0.00    +0.000 A 
ATOM     27  C   UNL     1       1.594   4.567  20.315  0.00  0.00    +0.000 A 
ENDBRANCH  21  22
ENDBRANCH  20  21
ENDBRANCH  19  20
ENDBRANCH  18  19
ENDBRANCH   8  17
TORSDOF 5
ENDMDL
MODEL 5
REMARK VINA RESULT:      -7.8      3.558      8.129
REMARK  Name = 
REMARK  5 active torsions:
REMARK  status: ('A' for Active; 'I' for Inactive)
REMARK    1  A    between atoms: C_8  and  C_9
REMARK    2  A    between atoms: C_10  and  C_11
REMARK    3  A    between atoms: C_11  and  C_12
REMARK    4  A    between atoms: C_12  and  C_13
REMARK    5  A    between atoms: C_13  and  C_14
REMARK                            x       y       z     vdW  Elec       q    Type
REMARK                         _______ _______ _______ _____ _____    ______ ____
ROOT
ATOM      1  N   UNL     1       1.270   2.295  22.093  0.00  0.00    +0.000 N 
ATOM      2  C   UNL     1       1.971   3.196  21.320  0.00  0.00    +0.000 A 
ATOM      3  N   UNL     1       1.621   4.479  21.398  0.00  0.00    +0.000 NA
ATOM      4  C   UNL     1       2.323   5.336  20.636  0.00  0.00    +0.000 A 
ATOM      5  N   UNL     1       1.890   6.673  20.669  0.00  0.00    +0.000 N 
ATOM      6  C   UNL     1       3.362   4.960  19.786  0.00  0.00    +0.000 A 
ATOM      7  N   UNL     1       4.084   5.853  19.056  0.00  0.00    +0.000 NA
ATOM      8  C   UNL     1       5.063   5.388  18.253  0.00  0.00    +0.000 A 
ATOM      9  C   UNL     1       5.345   4.035  18.153  0.00  0.00    +0.000 A 
ATOM     10  C   UNL     1       4.602   3.140  18.928  0.00  0.00    +0.000 A 
ATOM     11  C   UNL     1       3.599   3.586  19.775  0.00  0.00    +0.000 A 
ATOM     12  N   UNL     1       2.916   2.705  20.520  0.00  0.00    +0.000 NA
ATOM     13  H   UNL     1       0.351   2.664  22.301  0.00  0.00    +0.000 HD
ATOM     14  H   UNL     1       1.315   1.375  21.676  0.00  0.00    +0.000 HD
ATOM     15  H   UNL     1       1.242   6.803  21.437  0.00  0.00    +0.000 HD
ATOM     16  H   UNL     1       2.679   7.313  20.652  0.00  0.00    +0.000 HD
ENDROOT
BRANCH   8  17
ATOM     17  C   UNL     1       5.846   6.384  17.509  0.00  0.00    +0.000 C 
ATOM     18  C   UNL     1       6.869   7.065  18.052  0.00  0.00    +0.000 C 
BRANCH  18  19
ATOM     19  C   UNL     1       7.739   8.038  17.312  0.00  0.00    +0.000 C 
BRANCH  19  20
ATOM     20  C   UNL     1       8.658   8.822  18.260  0.00  0.00    +0.000 C 
BRANCH  20  21
ATOM     21  C   UNL     1       8.586  10.334  18.022  0.00  0.00    +0.000 C 
BRANCH  21  22
ATOM     22  C   UNL     1       9.746  11.081  18.629  0.00  0.00    +0.000 A 
ATOM     23  C   UNL     1       9.805  11.281  20.015  0.00  0.00    +0.000 A 
ATOM     24  C   UNL     1      10.900  11.926  20.591  0.00  0.00    +0.000 A 
ATOM     25  C   UNL     1      11.941  12.387  19.787  0.00  0.00    +0.000 A 
ATOM     26  C   UNL     1      11.881  12.210  18.405  0.00  0.00    +0.000 A 
ATOM     27  C   UNL     1      10.788  11.563  17.826  0.00  0.00    +0.000 A 
ENDBRANCH  21  22
ENDBRANCH  20  21
ENDBRANCH  19  20
ENDBRANCH  18  19
ENDBRANCH   8  17
TORSDOF 5
ENDMDL
MODEL 6
REMARK VINA RESULT:      -7.6      3.273      7.946
REMARK  Name = 
REMARK  5 active torsions:
REMARK  status: ('A' for Active; 'I' for Inactive)
REMARK    1  A    between atoms: C_8  and  C_9
REMARK    2  A    between atoms: C_10  and  C_11
REMARK    3  A    between atoms: C_11  and  C_12
REMARK    4  A    between atoms: C_12  and  C_13
REMARK    5  A    between atoms: C_13  and  C_14
REMARK                            x       y       z     vdW  Elec       q    Type
REMARK                         _______ _______ _______ _____ _____    ______ ____
ROOT
ATOM      1  N   UNL     1       0.782   2.011  18.639  0.00  0.00    +0.000 N 
ATOM      2  C   UNL     1       1.718   3.022  18.565  0.00  0.00    +0.000 A 
ATOM      3  N   UNL     1       1.615   4.023  19.437  0.00  0.00    +0.000 NA
ATOM      4  C   UNL     1       2.541   4.992  19.344  0.00  0.00    +0.000 A 
ATOM      5  N   UNL     1       2.372   6.081  20.218  0.00  0.00    +0.000 N 
ATOM      6  C   UNL     1       3.569   5.008  18.402  0.00  0.00    +0.000 A 
ATOM      7  N   UNL     1       4.519   5.980  18.356  0.00  0.00    +0.000 NA
ATOM      8  C   UNL     1       5.466   5.912  17.398  0.00  0.00    +0.000 A 
ATOM      9  C   UNL     1       5.491   4.886  16.468  0.00  0.00    +0.000 A 
ATOM     10  C   UNL     1       4.516   3.888  16.549  0.00  0.00    +0.000 A 
ATOM     11  C   UNL     1       3.537   3.920  17.531  0.00  0.00    +0.000 A 
ATOM     12  N   UNL     1       2.626   2.938  17.595  0.00  0.00    +0.000 NA
ATOM     13  H   UNL     1      -0.065   2.360  19.069  0.00  0.00    +0.000 HD
ATOM     14  H   UNL     1       0.691   1.559  17.740  0.00  0.00    +0.000 HD
ATOM     15  H   UNL     1       1.687   5.846  20.926  0.00  0.00    +0.000 HD
ATOM     16  H   UNL     1       3.267   6.410  20.569  0.00  0.00    +0.000 HD
ENDROOT
BRANCH   8  17
ATOM     17  C   UNL     1       6.497   6.958  17.402  0.00  0.00    +0.000 C 
ATOM     18  C   UNL     1       7.488   7.007  18.308  0.00  0.00    +0.000 C 
BRANCH  18  19
ATOM     19  C   UNL     1       8.599   8.015  18.309  0.00  0.00    +0.000 C 
BRANCH  19  20
ATOM     20  C   UNL     1       8.198   9.312  17.591  0.00  0.00    +0.000 C 
BRANCH  20  21
ATOM     21  C   UNL     1       8.160  10.514  18.540  0.00  0.00    +0.000 C 
BRANCH  21  22
ATOM     22  C   UNL     1       9.527  11.082  18.825  0.00  0.00    +0.000 A 
ATOM     23  C   UNL     1       9.905  11.376  20.142  0.00  0.00    +0.000 A 
ATOM     24  C   UNL     1      11.186  11.854  20.421  0.00  0.00    +0.000 A 
ATOM     25  C   UNL     1      12.097  12.055  19.385  0.00  0.00    +0.000 A 
ATOM     26  C   UNL     1      11.723  11.785  18.069  0.00  0.00    +0.000 A 
ATOM     27  C   UNL     1      10.442  11.304  17.788  0.00  0.00    +0.000 A 
ENDBRANCH  21  22
ENDBRANCH  20  21
ENDBRANCH  19  20
ENDBRANCH  18  19
ENDBRANCH   8  17
TORSDOF 5
ENDMDL
MODEL 7
REMARK VINA RESULT:      -7.6      3.517      7.994
REMARK  Name = 
REMARK  5 active torsions:
REMARK  status: ('A' for Active; 'I' for Inactive)
REMARK    1  A    between atoms: C_8  and  C_9
REMARK    2  A    between atoms: C_10  and  C_11
REMARK    3  A    between atoms: C_11  and  C_12
REMARK    4  A    between atoms: C_12  and  C_13
REMARK    5  A    between atoms: C_13  and  C_14
REMARK                            x       y       z     vdW  Elec       q    Type
REMARK                         _______ _______ _______ _____ _____    ______ ____
ROOT
ATOM      1  N   UNL     1       0.303   2.574  19.828  0.00  0.00    +0.000 N 
ATOM      2  C   UNL     1       1.520   3.134  19.497  0.00  0.00    +0.000 A 
ATOM      3  N   UNL     1       2.618   2.439  19.786  0.00  0.00    +0.000 NA
ATOM      4  C   UNL     1       3.789   3.007  19.451  0.00  0.00    +0.000 A 
ATOM      5  N   UNL     1       4.941   2.297  19.834  0.00  0.00    +0.000 N 
ATOM      6  C   UNL     1       3.910   4.256  18.842  0.00  0.00    +0.000 A 
ATOM      7  N   UNL     1       5.105   4.790  18.475  0.00  0.00    +0.000 NA
ATOM      8  C   UNL     1       5.118   6.012  17.903  0.00  0.00    +0.000 A 
ATOM      9  C   UNL     1       3.952   6.727  17.685  0.00  0.00    +0.000 A 
ATOM     10  C   UNL     1       2.735   6.147  18.052  0.00  0.00    +0.000 A 
ATOM     11  C   UNL     1       2.686   4.888  18.630  0.00  0.00    +0.000 A 
ATOM     12  N   UNL     1       1.501   4.350  18.954  0.00  0.00    +0.000 NA
ATOM     13  H   UNL     1       0.425   1.914  20.585  0.00  0.00    +0.000 HD
ATOM     14  H   UNL     1      -0.387   3.300  19.954  0.00  0.00    +0.000 HD
ATOM     15  H   UNL     1       4.685   1.359  20.119  0.00  0.00    +0.000 HD
ATOM     16  H   UNL     1       5.660   2.355  19.120  0.00  0.00    +0.000 HD
ENDROOT
BRANCH   8  17
ATOM     17  C   UNL     1       6.423   6.540  17.486  0.00  0.00    +0.000 C 
ATOM     18  C   UNL     1       6.838   7.785  17.780  0.00  0.00    +0.000 C 
BRANCH  18  19
ATOM     19  C   UNL     1       8.187   8.342  17.435  0.00  0.00    +0.000 C 
BRANCH  19  20
ATOM     20  C   UNL     1       8.686   9.334  18.494  0.00  0.00    +0.000 C 
BRANCH  20  21
ATOM     21  C   UNL     1       8.917  10.734  17.917  0.00  0.00    +0.000 C 
BRANCH  21  22
ATOM     22  C   UNL     1       9.457  11.708  18.934  0.00  0.00    +0.000 A 
ATOM     23  C   UNL     1       9.421  11.390  20.299  0.00  0.00    +0.000 A 
ATOM     24  C   UNL     1       9.965  12.261  21.243  0.00  0.00    +0.000 A 
ATOM     25  C   UNL     1      10.538  13.464  20.834  0.00  0.00    +0.000 A 
ATOM     26  C   UNL     1      10.560  13.799  19.480  0.00  0.00    +0.000 A 
ATOM     27  C   UNL     1      10.019  12.926  18.533  0.00  0.00    +0.000 A 
ENDBRANCH  21  22
ENDBRANCH  20  21
ENDBRANCH  19  20
ENDBRANCH  18  19
ENDBRANCH   8  17
TORSDOF 5
ENDMDL
MODEL 8
REMARK VINA RESULT:      -7.6      4.473      7.107
REMARK  Name = 
REMARK  5 active torsions:
REMARK  status: ('A' for Active; 'I' for Inactive)
REMARK    1  A    between atoms: C_8  and  C_9
REMARK    2  A    between atoms: C_10  and  C_11
REMARK    3  A    between atoms: C_11  and  C_12
REMARK    4  A    between atoms: C_12  and  C_13
REMARK    5  A    between atoms: C_13  and  C_14
REMARK                            x       y       z     vdW  Elec       q    Type
REMARK                         _______ _______ _______ _____ _____    ______ ____
ROOT
ATOM      1  N   UNL     1       3.754   1.579  17.960  0.00  0.00    +0.000 N 
ATOM      2  C   UNL     1       3.296   2.652  18.695  0.00  0.00    +0.000 A 
ATOM      3  N   UNL     1       2.908   2.422  19.947  0.00  0.00    +0.000 NA
ATOM      4  C   UNL     1       2.469   3.487  20.641  0.00  0.00    +0.000 A 
ATOM      5  N   UNL     1       1.989   3.213  21.934  0.00  0.00    +0.000 N 
ATOM      6  C   UNL     1       2.391   4.780  20.127  0.00  0.00    +0.000 A 
ATOM      7  N   UNL     1       1.982   5.848  20.864  0.00  0.00    +0.000 NA
ATOM      8  C   UNL     1       1.930   7.059  20.271  0.00  0.00    +0.000 A 
ATOM      9  C   UNL     1       2.279   7.237  18.943  0.00  0.00    +0.000 A 
ATOM     10  C   UNL     1       2.716   6.128  18.213  0.00  0.00    +0.000 A 
ATOM     11  C   UNL     1       2.794   4.872  18.796  0.00  0.00    +0.000 A 
ATOM     12  N   UNL     1       3.235   3.830  18.075  0.00  0.00    +0.000 NA
ATOM     13  H   UNL     1       3.366   0.720  18.329  0.00  0.00    +0.000 HD
ATOM     14  H   UNL     1       3.626   1.757  16.973  0.00  0.00    +0.000 HD
ATOM     15  H   UNL     1       2.254   2.274  22.205  0.00  0.00    +0.000 HD
ATOM     16  H   UNL     1       2.254   3.947  22.585  0.00  0.00    +0.000 HD
ENDROOT
BRANCH   8  17
ATOM     17  C   UNL     1       1.520   8.195  21.107  0.00  0.00    +0.000 C 
ATOM     18  C   UNL     1       0.390   8.892  20.894  0.00  0.00    +0.000 C 
BRANCH  18  19
ATOM     19  C   UNL     1      -0.102  10.012  21.762  0.00  0.00    +0.000 C 
BRANCH  19  20
ATOM     20  C   UNL     1      -0.762  11.127  20.940  0.00  0.00    +0.000 C 
BRANCH  20  21
ATOM     21  C   UNL     1      -0.333  11.098  19.470  0.00  0.00    +0.000 C 
BRANCH  21  22
ATOM     22  C   UNL     1      -1.492  10.930  18.521  0.00  0.00    +0.000 A 
ATOM     23  C   UNL     1      -1.410  10.008  17.468  0.00  0.00    +0.000 A 
ATOM     24  C   UNL     1      -2.497   9.808  16.616  0.00  0.00    +0.000 A 
ATOM     25  C   UNL     1      -3.671  10.535  16.801  0.00  0.00    +0.000 A 
ATOM     26  C   UNL     1      -3.755  11.470  17.832  0.00  0.00    +0.000 A 
ATOM     27  C   UNL     1      -2.669  11.669  18.688  0.00  0.00    +0.000 A 
ENDBRANCH  21  22
ENDBRANCH  20  21
ENDBRANCH  19  20
ENDBRANCH  18  19
ENDBRANCH   8  17
TORSDOF 5
ENDMDL
MODEL 9
REMARK VINA RESULT:      -7.5      4.691      6.954
REMARK  Name = 
REMARK  5 active torsions:
REMARK  status: ('A' for Active; 'I' for Inactive)
REMARK    1  A    between atoms: C_8  and  C_9
REMARK    2  A    between atoms: C_10  and  C_11
REMARK    3  A    between atoms: C_11  and  C_12
REMARK    4  A    between atoms: C_12  and  C_13
REMARK    5  A    between atoms: C_13  and  C_14
REMARK                            x       y       z     vdW  Elec       q    Type
REMARK                         _______ _______ _______ _____ _____    ______ ____
ROOT
ATOM      1  N   UNL     1       4.422   0.809  18.842  0.00  0.00    +0.000 N 
ATOM      2  C   UNL     1       3.886   2.039  19.162  0.00  0.00    +0.000 A 
ATOM      3  N   UNL     1       3.315   2.171  20.358  0.00  0.00    +0.000 NA
ATOM      4  C   UNL     1       2.804   3.380  20.645  0.00  0.00    +0.000 A 
ATOM      5  N   UNL     1       2.134   3.480  21.878  0.00  0.00    +0.000 N 
ATOM      6  C   UNL     1       2.830   4.470  19.775  0.00  0.00    +0.000 A 
ATOM      7  N   UNL     1       2.342   5.696  20.106  0.00  0.00    +0.000 NA
ATOM      8  C   UNL     1       2.404   6.684  19.190  0.00  0.00    +0.000 A 
ATOM      9  C   UNL     1       2.946   6.479  17.932  0.00  0.00    +0.000 A 
ATOM     10  C   UNL     1       3.460   5.217  17.624  0.00  0.00    +0.000 A 
ATOM     11  C   UNL     1       3.424   4.183  18.548  0.00  0.00    +0.000 A 
ATOM     12  N   UNL     1       3.942   2.988  18.229  0.00  0.00    +0.000 NA
ATOM     13  H   UNL     1       3.966   0.086  19.382  0.00  0.00    +0.000 HD
ATOM     14  H   UNL     1       4.443   0.694  17.838  0.00  0.00    +0.000 HD
ATOM     15  H   UNL     1       2.336   2.665  22.443  0.00  0.00    +0.000 HD
ATOM     16  H   UNL     1       2.319   4.375  22.322  0.00  0.00    +0.000 HD
ENDROOT
BRANCH   8  17
ATOM     17  C   UNL     1       1.901   8.003  19.595  0.00  0.00    +0.000 C 
ATOM     18  C   UNL     1       1.822   9.047  18.753  0.00  0.00    +0.000 C 
BRANCH  18  19
ATOM     19  C   UNL     1       1.252  10.390  19.105  0.00  0.00    +0.000 C 
BRANCH  19  20
ATOM     20  C   UNL     1      -0.282  10.398  19.035  0.00  0.00    +0.000 C 
BRANCH  20  21
ATOM     21  C   UNL     1      -0.807   9.821  17.717  0.00  0.00    +0.000 C 
BRANCH  21  22
ATOM     22  C   UNL     1      -2.162  10.363  17.337  0.00  0.00    +0.000 A 
ATOM     23  C   UNL     1      -2.917  11.085  18.272  0.00  0.00    +0.000 A 
ATOM     24  C   UNL     1      -4.149  11.634  17.914  0.00  0.00    +0.000 A 
ATOM     25  C   UNL     1      -4.644  11.456  16.623  0.00  0.00    +0.000 A 
ATOM     26  C   UNL     1      -3.909  10.721  15.692  0.00  0.00    +0.000 A 
ATOM     27  C   UNL     1      -2.675  10.174  16.047  0.00  0.00    +0.000 A 
ENDBRANCH  21  22
ENDBRANCH  20  21
ENDBRANCH  19  20
ENDBRANCH  18  19
ENDBRANCH   8  17
TORSDOF 5
ENDMDL
