MODEL 1
REMARK VINA RESULT:      -7.4      0.000      0.000
REMARK  Name = 
REMARK  6 active torsions:
REMARK  status: ('A' for Active; 'I' for Inactive)
REMARK    1  A    between atoms: C_1  and  C_2
REMARK    2  A    between atoms: C_8  and  C_9
REMARK    3  A    between atoms: C_12  and  N_13
REMARK    4  A    between atoms: C_14  and  C_16
REMARK    5  A    between atoms: C_16  and  C_17
REMARK    6  A    between atoms: C_16  and  C_18
REMARK                            x       y       z     vdW  Elec       q    Type
REMARK                         _______ _______ _______ _____ _____    ______ ____
ROOT
ATOM      1  C   UNL     1       1.419   9.449  18.918  0.00  0.00    +0.000 A 
ATOM      2  C   UNL     1       2.072   8.761  17.896  0.00  0.00    +0.000 A 
ATOM      3  C   UNL     1       2.551   7.464  18.107  0.00  0.00    +0.000 A 
ATOM      4  C   UNL     1       2.388   6.830  19.339  0.00  0.00    +0.000 A 
ATOM      5  C   UNL     1       1.730   7.515  20.365  0.00  0.00    +0.000 A 
ATOM      6  C   UNL     1       1.255   8.819  20.159  0.00  0.00    +0.000 A 
ENDROOT
BRANCH   1  14
ATOM      7  C   UNL     1      -1.422  10.178  17.705  0.00  0.00    +0.000 C 
ATOM      8  C   UNL     1      -0.699  10.984  18.793  0.00  0.00    +0.000 C 
ATOM      9  C   UNL     1      -1.163  12.437  18.759  0.00  0.00    +0.000 C 
ATOM     10  C   UNL     1      -0.108  13.470  18.509  0.00  0.00    +0.000 C 
ATOM     11  O   UNL     1      -0.379  14.670  18.497  0.00  0.00    +0.000 OA
ATOM     12  N   UNL     1       1.162  13.038  18.287  0.00  0.00    +0.000 N 
ATOM     13  N   UNL     1       1.632  11.779  18.418  0.00  0.00    +0.000 NA
ATOM     14  C   UNL     1       0.813  10.808  18.684  0.00  0.00    +0.000 C 
ATOM     15  H   UNL     1       1.861  13.761  18.147  0.00  0.00    +0.000 HD
ENDBRANCH   1  14
BRANCH   4  16
ATOM     16  N   UNL     1       2.838   5.516  19.588  0.00  0.00    +0.000 N 
ATOM     17  C   UNL     1       2.340   4.351  19.009  0.00  0.00    +0.000 C 
ATOM     18  O   UNL     1       1.452   4.325  18.157  0.00  0.00    +0.000 OA
ATOM     19  H   UNL     1       3.692   5.422  20.127  0.00  0.00    +0.000 HD
BRANCH  17  20
ATOM     20  C   UNL     1       2.963   3.048  19.529  0.00  0.00    +0.000 C 
ATOM     21  C   UNL     1       2.510   1.838  18.718  0.00  0.00    +0.000 C 
ATOM     22  C   UNL     1       4.488   3.150  19.547  0.00  0.00    +0.000 C 
ATOM     23 BR   UNL     1       2.358   2.813  21.391  0.00  0.00    +0.000 Br
ENDBRANCH  17  20
ENDBRANCH   4  16
TORSDOF 3
ENDMDL
MODEL 2
REMARK VINA RESULT:      -7.1      0.337      1.102
REMARK  Name = 
REMARK  6 active torsions:
REMARK  status: ('A' for Active; 'I' for Inactive)
REMARK    1  A    between atoms: C_1  and  C_2
REMARK    2  A    between atoms: C_8  and  C_9
REMARK    3  A    between atoms: C_12  and  N_13
REMARK    4  A    between atoms: C_14  and  C_16
REMARK    5  A    between atoms: C_16  and  C_17
REMARK    6  A    between atoms: C_16  and  C_18
REMARK                            x       y       z     vdW  Elec       q    Type
REMARK                         _______ _______ _______ _____ _____    ______ ____
ROOT
ATOM      1  C   UNL     1       1.240   9.575  18.954  0.00  0.00    +0.000 A 
ATOM      2  C   UNL     1       1.161   8.938  20.192  0.00  0.00    +0.000 A 
ATOM      3  C   UNL     1       1.705   7.663  20.372  0.00  0.00    +0.000 A 
ATOM      4  C   UNL     1       2.338   6.998  19.321  0.00  0.00    +0.000 A 
ATOM      5  C   UNL     1       2.424   7.635  18.079  0.00  0.00    +0.000 A 
ATOM      6  C   UNL     1       1.873   8.911  17.894  0.00  0.00    +0.000 A 
ENDROOT
BRANCH   1  14
ATOM      7  C   UNL     1      -1.542  10.565  17.792  0.00  0.00    +0.000 C 
ATOM      8  C   UNL     1      -0.747  11.278  18.894  0.00  0.00    +0.000 C 
ATOM      9  C   UNL     1      -1.092  12.765  18.905  0.00  0.00    +0.000 C 
ATOM     10  C   UNL     1       0.042  13.716  18.672  0.00  0.00    +0.000 C 
ATOM     11  O   UNL     1      -0.131  14.934  18.696  0.00  0.00    +0.000 OA
ATOM     12  N   UNL     1       1.270  13.188  18.425  0.00  0.00    +0.000 N 
ATOM     13  N   UNL     1       1.638  11.893  18.517  0.00  0.00    +0.000 NA
ATOM     14  C   UNL     1       0.745  10.984  18.765  0.00  0.00    +0.000 C 
ATOM     15  H   UNL     1       2.024  13.856  18.297  0.00  0.00    +0.000 HD
ENDBRANCH   1  14
BRANCH   4  16
ATOM     16  N   UNL     1       2.918   5.720  19.463  0.00  0.00    +0.000 N 
ATOM     17  C   UNL     1       2.489   4.547  18.845  0.00  0.00    +0.000 C 
ATOM     18  O   UNL     1       1.555   4.486  18.048  0.00  0.00    +0.000 OA
ATOM     19  H   UNL     1       3.810   5.676  19.944  0.00  0.00    +0.000 HD
BRANCH  17  20
ATOM     20  C   UNL     1       3.258   3.281  19.249  0.00  0.00    +0.000 C 
ATOM     21  C   UNL     1       2.949   2.110  18.322  0.00  0.00    +0.000 C 
ATOM     22  C   UNL     1       4.762   3.555  19.295  0.00  0.00    +0.000 C 
ATOM     23 BR   UNL     1       2.682   2.803  21.073  0.00  0.00    +0.000 Br
ENDBRANCH  17  20
ENDBRANCH   4  16
TORSDOF 3
ENDMDL
MODEL 3
REMARK VINA RESULT:      -7.0      1.466      1.576
REMARK  Name = 
REMARK  6 active torsions:
REMARK  status: ('A' for Active; 'I' for Inactive)
REMARK    1  A    between atoms: C_1  and  C_2
REMARK    2  A    between atoms: C_8  and  C_9
REMARK    3  A    between atoms: C_12  and  N_13
REMARK    4  A    between atoms: C_14  and  C_16
REMARK    5  A    between atoms: C_16  and  C_17
REMARK    6  A    between atoms: C_16  and  C_18
REMARK                            x       y       z     vdW  Elec       q    Type
REMARK                         _______ _______ _______ _____ _____    ______ ____
ROOT
ATOM      1  C   UNL     1       1.150   9.692  19.070  0.00  0.00    +0.000 A 
ATOM      2  C   UNL     1       1.792   9.459  17.854  0.00  0.00    +0.000 A 
ATOM      3  C   UNL     1       2.531   8.289  17.653  0.00  0.00    +0.000 A 
ATOM      4  C   UNL     1       2.644   7.329  18.660  0.00  0.00    +0.000 A 
ATOM      5  C   UNL     1       1.999   7.557  19.880  0.00  0.00    +0.000 A 
ATOM      6  C   UNL     1       1.263   8.733  20.087  0.00  0.00    +0.000 A 
ENDROOT
BRANCH   1  14
ATOM      7  C   UNL     1      -1.724  10.289  17.865  0.00  0.00    +0.000 C 
ATOM      8  C   UNL     1      -1.244  10.735  19.252  0.00  0.00    +0.000 C 
ATOM      9  C   UNL     1      -2.012  11.978  19.694  0.00  0.00    +0.000 C 
ATOM     10  C   UNL     1      -1.198  13.204  19.971  0.00  0.00    +0.000 C 
ATOM     11  O   UNL     1      -1.724  14.245  20.363  0.00  0.00    +0.000 OA
ATOM     12  N   UNL     1       0.143  13.133  19.765  0.00  0.00    +0.000 N 
ATOM     13  N   UNL     1       0.871  12.031  19.486  0.00  0.00    +0.000 NA
ATOM     14  C   UNL     1       0.274  10.898  19.275  0.00  0.00    +0.000 C 
ATOM     15  H   UNL     1       0.673  13.971  19.986  0.00  0.00    +0.000 HD
ENDBRANCH   1  14
BRANCH   4  16
ATOM     16  N   UNL     1       3.363   6.127  18.493  0.00  0.00    +0.000 N 
ATOM     17  C   UNL     1       2.848   4.917  18.032  0.00  0.00    +0.000 C 
ATOM     18  O   UNL     1       1.685   4.753  17.667  0.00  0.00    +0.000 OA
ATOM     19  H   UNL     1       4.372   6.184  18.579  0.00  0.00    +0.000 HD
BRANCH  17  20
ATOM     20  C   UNL     1       3.841   3.747  18.030  0.00  0.00    +0.000 C 
ATOM     21  C   UNL     1       4.742   3.768  16.799  0.00  0.00    +0.000 C 
ATOM     22  C   UNL     1       4.674   3.745  19.313  0.00  0.00    +0.000 C 
ATOM     23 BR   UNL     1       2.784   2.082  18.002  0.00  0.00    +0.000 Br
ENDBRANCH  17  20
ENDBRANCH   4  16
TORSDOF 3
ENDMDL
MODEL 4
REMARK VINA RESULT:      -7.0      1.631      1.813
REMARK  Name = 
REMARK  6 active torsions:
REMARK  status: ('A' for Active; 'I' for Inactive)
REMARK    1  A    between atoms: C_1  and  C_2
REMARK    2  A    between atoms: C_8  and  C_9
REMARK    3  A    between atoms: C_12  and  N_13
REMARK    4  A    between atoms: C_14  and  C_16
REMARK    5  A    between atoms: C_16  and  C_17
REMARK    6  A    between atoms: C_16  and  C_18
REMARK                            x       y       z     vdW  Elec       q    Type
REMARK                         _______ _______ _______ _____ _____    ______ ____
ROOT
ATOM      1  C   UNL     1       1.193   9.659  19.063  0.00  0.00    +0.000 A 
ATOM      2  C   UNL     1       1.821   9.401  17.844  0.00  0.00    +0.000 A 
ATOM      3  C   UNL     1       2.531   8.212  17.649  0.00  0.00    +0.000 A 
ATOM      4  C   UNL     1       2.630   7.259  18.663  0.00  0.00    +0.000 A 
ATOM      5  C   UNL     1       1.998   7.512  19.885  0.00  0.00    +0.000 A 
ATOM      6  C   UNL     1       1.291   8.706  20.087  0.00  0.00    +0.000 A 
ENDROOT
BRANCH   1  14
ATOM      7  C   UNL     1      -1.700  10.287  17.919  0.00  0.00    +0.000 C 
ATOM      8  C   UNL     1      -1.175  10.754  19.283  0.00  0.00    +0.000 C 
ATOM      9  C   UNL     1      -1.906  12.022  19.716  0.00  0.00    +0.000 C 
ATOM     10  C   UNL     1      -1.061  13.237  19.944  0.00  0.00    +0.000 C 
ATOM     11  O   UNL     1      -1.556  14.297  20.326  0.00  0.00    +0.000 OA
ATOM     12  N   UNL     1       0.273  13.134  19.705  0.00  0.00    +0.000 N 
ATOM     13  N   UNL     1       0.972  12.012  19.432  0.00  0.00    +0.000 NA
ATOM     14  C   UNL     1       0.346  10.887  19.263  0.00  0.00    +0.000 C 
ATOM     15  H   UNL     1       0.825  13.966  19.893  0.00  0.00    +0.000 HD
ENDBRANCH   1  14
BRANCH   4  16
ATOM     16  N   UNL     1       3.319   6.039  18.502  0.00  0.00    +0.000 N 
ATOM     17  C   UNL     1       2.775   4.840  18.044  0.00  0.00    +0.000 C 
ATOM     18  O   UNL     1       1.609   4.703  17.677  0.00  0.00    +0.000 OA
ATOM     19  H   UNL     1       4.328   6.072  18.590  0.00  0.00    +0.000 HD
BRANCH  17  20
ATOM     20  C   UNL     1       3.740   3.646  18.049  0.00  0.00    +0.000 C 
ATOM     21  C   UNL     1       4.518   3.549  19.357  0.00  0.00    +0.000 C 
ATOM     22  C   UNL     1       2.988   2.345  17.767  0.00  0.00    +0.000 C 
ATOM     23 BR   UNL     1       5.023   3.925  16.578  0.00  0.00    +0.000 Br
ENDBRANCH  17  20
ENDBRANCH   4  16
TORSDOF 3
ENDMDL
MODEL 5
REMARK VINA RESULT:      -7.0      2.915      8.203
REMARK  Name = 
REMARK  6 active torsions:
REMARK  status: ('A' for Active; 'I' for Inactive)
REMARK    1  A    between atoms: C_1  and  C_2
REMARK    2  A    between atoms: C_8  and  C_9
REMARK    3  A    between atoms: C_12  and  N_13
REMARK    4  A    between atoms: C_14  and  C_16
REMARK    5  A    between atoms: C_16  and  C_17
REMARK    6  A    between atoms: C_16  and  C_18
REMARK                            x       y       z     vdW  Elec       q    Type
REMARK                         _______ _______ _______ _____ _____    ______ ____
ROOT
ATOM      1  C   UNL     1       2.459   6.660  18.952  0.00  0.00    +0.000 A 
ATOM      2  C   UNL     1       1.990   7.016  20.216  0.00  0.00    +0.000 A 
ATOM      3  C   UNL     1       1.458   8.289  20.443  0.00  0.00    +0.000 A 
ATOM      4  C   UNL     1       1.384   9.231  19.416  0.00  0.00    +0.000 A 
ATOM      5  C   UNL     1       1.850   8.876  18.146  0.00  0.00    +0.000 A 
ATOM      6  C   UNL     1       2.391   7.603  17.916  0.00  0.00    +0.000 A 
ENDROOT
BRANCH   1  14
ATOM      7  C   UNL     1       5.436   5.557  18.952  0.00  0.00    +0.000 C 
ATOM      8  C   UNL     1       4.199   4.748  19.368  0.00  0.00    +0.000 C 
ATOM      9  C   UNL     1       4.459   3.258  19.164  0.00  0.00    +0.000 C 
ATOM     10  C   UNL     1       3.542   2.542  18.222  0.00  0.00    +0.000 C 
ATOM     11  O   UNL     1       3.652   1.333  18.018  0.00  0.00    +0.000 OA
ATOM     12  N   UNL     1       2.586   3.273  17.590  0.00  0.00    +0.000 N 
ATOM     13  N   UNL     1       2.252   4.560  17.825  0.00  0.00    +0.000 NA
ATOM     14  C   UNL     1       2.949   5.266  18.662  0.00  0.00    +0.000 C 
ATOM     15  H   UNL     1       1.962   2.757  16.978  0.00  0.00    +0.000 HD
ENDBRANCH   1  14
BRANCH   4  16
ATOM     16  N   UNL     1       0.838  10.519  19.597  0.00  0.00    +0.000 N 
ATOM     17  C   UNL     1      -0.465  10.910  19.296  0.00  0.00    +0.000 C 
ATOM     18  O   UNL     1      -1.334  10.154  18.862  0.00  0.00    +0.000 OA
ATOM     19  H   UNL     1       1.397  11.180  20.124  0.00  0.00    +0.000 HD
BRANCH  17  20
ATOM     20  C   UNL     1      -0.764  12.399  19.516  0.00  0.00    +0.000 C 
ATOM     21  C   UNL     1      -0.418  13.236  18.289  0.00  0.00    +0.000 C 
ATOM     22  C   UNL     1      -2.226  12.602  19.917  0.00  0.00    +0.000 C 
ATOM     23 BR   UNL     1       0.358  13.004  21.021  0.00  0.00    +0.000 Br
ENDBRANCH  17  20
ENDBRANCH   4  16
TORSDOF 3
ENDMDL
MODEL 6
REMARK VINA RESULT:      -7.0      3.037      8.219
REMARK  Name = 
REMARK  6 active torsions:
REMARK  status: ('A' for Active; 'I' for Inactive)
REMARK    1  A    between atoms: C_1  and  C_2
REMARK    2  A    between atoms: C_8  and  C_9
REMARK    3  A    between atoms: C_12  and  N_13
REMARK    4  A    between atoms: C_14  and  C_16
REMARK    5  A    between atoms: C_16  and  C_17
REMARK    6  A    between atoms: C_16  and  C_18
REMARK                            x       y       z     vdW  Elec       q    Type
REMARK                         _______ _______ _______ _____ _____    ______ ____
ROOT
ATOM      1  C   UNL     1       2.463   6.604  19.032  0.00  0.00    +0.000 A 
ATOM      2  C   UNL     1       1.959   6.957  20.283  0.00  0.00    +0.000 A 
ATOM      3  C   UNL     1       1.440   8.237  20.505  0.00  0.00    +0.000 A 
ATOM      4  C   UNL     1       1.415   9.189  19.484  0.00  0.00    +0.000 A 
ATOM      5  C   UNL     1       1.916   8.837  18.227  0.00  0.00    +0.000 A 
ATOM      6  C   UNL     1       2.443   7.557  18.003  0.00  0.00    +0.000 A 
ENDROOT
BRANCH   1  14
ATOM      7  C   UNL     1       5.423   5.461  19.079  0.00  0.00    +0.000 C 
ATOM      8  C   UNL     1       4.170   4.668  19.470  0.00  0.00    +0.000 C 
ATOM      9  C   UNL     1       4.413   3.175  19.264  0.00  0.00    +0.000 C 
ATOM     10  C   UNL     1       3.502   2.475  18.304  0.00  0.00    +0.000 C 
ATOM     11  O   UNL     1       3.600   1.266  18.098  0.00  0.00    +0.000 OA
ATOM     12  N   UNL     1       2.567   3.221  17.659  0.00  0.00    +0.000 N 
ATOM     13  N   UNL     1       2.246   4.511  17.893  0.00  0.00    +0.000 NA
ATOM     14  C   UNL     1       2.938   5.205  18.745  0.00  0.00    +0.000 C 
ATOM     15  H   UNL     1       1.947   2.716  17.035  0.00  0.00    +0.000 HD
ENDBRANCH   1  14
BRANCH   4  16
ATOM     16  N   UNL     1       0.884  10.483  19.659  0.00  0.00    +0.000 N 
ATOM     17  C   UNL     1      -0.416  10.888  19.362  0.00  0.00    +0.000 C 
ATOM     18  O   UNL     1      -1.295  10.139  18.937  0.00  0.00    +0.000 OA
ATOM     19  H   UNL     1       1.453  11.142  20.180  0.00  0.00    +0.000 HD
BRANCH  17  20
ATOM     20  C   UNL     1      -0.696  12.382  19.574  0.00  0.00    +0.000 C 
ATOM     21  C   UNL     1       0.155  12.966  20.697  0.00  0.00    +0.000 C 
ATOM     22  C   UNL     1      -0.488  13.160  18.274  0.00  0.00    +0.000 C 
ATOM     23 BR   UNL     1      -2.595  12.555  20.076  0.00  0.00    +0.000 Br
ENDBRANCH  17  20
ENDBRANCH   4  16
TORSDOF 3
ENDMDL
MODEL 7
REMARK VINA RESULT:      -7.0      1.624      2.065
REMARK  Name = 
REMARK  6 active torsions:
REMARK  status: ('A' for Active; 'I' for Inactive)
REMARK    1  A    between atoms: C_1  and  C_2
REMARK    2  A    between atoms: C_8  and  C_9
REMARK    3  A    between atoms: C_12  and  N_13
REMARK    4  A    between atoms: C_14  and  C_16
REMARK    5  A    between atoms: C_16  and  C_17
REMARK    6  A    between atoms: C_16  and  C_18
REMARK                            x       y       z     vdW  Elec       q    Type
REMARK                         _______ _______ _______ _____ _____    ______ ____
ROOT
ATOM      1  C   UNL     1       1.111   9.615  19.093  0.00  0.00    +0.000 A 
ATOM      2  C   UNL     1       1.244   8.704  20.141  0.00  0.00    +0.000 A 
ATOM      3  C   UNL     1       1.966   7.520  19.965  0.00  0.00    +0.000 A 
ATOM      4  C   UNL     1       2.568   7.220  18.742  0.00  0.00    +0.000 A 
ATOM      5  C   UNL     1       2.440   8.132  17.690  0.00  0.00    +0.000 A 
ATOM      6  C   UNL     1       1.711   9.318  17.861  0.00  0.00    +0.000 A 
ENDROOT
BRANCH   1  14
ATOM      7  C   UNL     1      -1.785  10.503  18.143  0.00  0.00    +0.000 C 
ATOM      8  C   UNL     1      -1.101  10.975  19.434  0.00  0.00    +0.000 C 
ATOM      9  C   UNL     1      -1.655  12.335  19.849  0.00  0.00    +0.000 C 
ATOM     10  C   UNL     1      -0.669  13.459  19.940  0.00  0.00    +0.000 C 
ATOM     11  O   UNL     1      -1.015  14.584  20.299  0.00  0.00    +0.000 OA
ATOM     12  N   UNL     1       0.622  13.198  19.605  0.00  0.00    +0.000 N 
ATOM     13  N   UNL     1       1.172  11.993  19.343  0.00  0.00    +0.000 NA
ATOM     14  C   UNL     1       0.419  10.937  19.288  0.00  0.00    +0.000 C 
ATOM     15  H   UNL     1       1.272  13.971  19.702  0.00  0.00    +0.000 HD
ENDBRANCH   1  14
BRANCH   4  16
ATOM     16  N   UNL     1       3.322   6.047  18.528  0.00  0.00    +0.000 N 
ATOM     17  C   UNL     1       2.828   4.819  18.095  0.00  0.00    +0.000 C 
ATOM     18  O   UNL     1       1.652   4.609  17.800  0.00  0.00    +0.000 OA
ATOM     19  H   UNL     1       4.331   6.144  18.553  0.00  0.00    +0.000 HD
BRANCH  17  20
ATOM     20  C   UNL     1       3.864   3.688  18.029  0.00  0.00    +0.000 C 
ATOM     21  C   UNL     1       4.736   3.644  19.280  0.00  0.00    +0.000 C 
ATOM     22  C   UNL     1       3.178   2.341  17.798  0.00  0.00    +0.000 C 
ATOM     23 BR   UNL     1       5.021   4.045  16.473  0.00  0.00    +0.000 Br
ENDBRANCH  17  20
ENDBRANCH   4  16
TORSDOF 3
ENDMDL
MODEL 8
REMARK VINA RESULT:      -6.9      1.424      1.440
REMARK  Name = 
REMARK  6 active torsions:
REMARK  status: ('A' for Active; 'I' for Inactive)
REMARK    1  A    between atoms: C_1  and  C_2
REMARK    2  A    between atoms: C_8  and  C_9
REMARK    3  A    between atoms: C_12  and  N_13
REMARK    4  A    between atoms: C_14  and  C_16
REMARK    5  A    between atoms: C_16  and  C_17
REMARK    6  A    between atoms: C_16  and  C_18
REMARK                            x       y       z     vdW  Elec       q    Type
REMARK                         _______ _______ _______ _____ _____    ______ ____
ROOT
ATOM      1  C   UNL     1       1.286   9.578  19.116  0.00  0.00    +0.000 A 
ATOM      2  C   UNL     1       1.843   9.331  17.862  0.00  0.00    +0.000 A 
ATOM      3  C   UNL     1       2.499   8.124  17.601  0.00  0.00    +0.000 A 
ATOM      4  C   UNL     1       2.612   7.141  18.585  0.00  0.00    +0.000 A 
ATOM      5  C   UNL     1       2.050   7.382  19.843  0.00  0.00    +0.000 A 
ATOM      6  C   UNL     1       1.398   8.595  20.110  0.00  0.00    +0.000 A 
ENDROOT
BRANCH   1  14
ATOM      7  C   UNL     1      -1.639  10.335  18.142  0.00  0.00    +0.000 C 
ATOM      8  C   UNL     1      -1.027  10.749  19.487  0.00  0.00    +0.000 C 
ATOM      9  C   UNL     1      -1.688  12.030  19.987  0.00  0.00    +0.000 C 
ATOM     10  C   UNL     1      -0.790  13.209  20.198  0.00  0.00    +0.000 C 
ATOM     11  O   UNL     1      -1.226  14.275  20.631  0.00  0.00    +0.000 OA
ATOM     12  N   UNL     1       0.526  13.066  19.887  0.00  0.00    +0.000 N 
ATOM     13  N   UNL     1       1.168  11.927  19.551  0.00  0.00    +0.000 NA
ATOM     14  C   UNL     1       0.495  10.829  19.390  0.00  0.00    +0.000 C 
ATOM     15  H   UNL     1       1.116  13.873  20.065  0.00  0.00    +0.000 HD
ENDBRANCH   1  14
BRANCH   4  16
ATOM     16  N   UNL     1       3.247   5.902  18.359  0.00  0.00    +0.000 N 
ATOM     17  C   UNL     1       2.634   4.730  17.921  0.00  0.00    +0.000 C 
ATOM     18  O   UNL     1       1.442   4.637  17.631  0.00  0.00    +0.000 OA
ATOM     19  H   UNL     1       4.261   5.900  18.379  0.00  0.00    +0.000 HD
BRANCH  17  20
ATOM     20  C   UNL     1       3.556   3.505  17.841  0.00  0.00    +0.000 C 
ATOM     21  C   UNL     1       2.775   2.223  17.572  0.00  0.00    +0.000 C 
ATOM     22  C   UNL     1       4.639   3.713  16.782  0.00  0.00    +0.000 C 
ATOM     23 BR   UNL     1       4.454   3.334  19.589  0.00  0.00    +0.000 Br
ENDBRANCH  17  20
ENDBRANCH   4  16
TORSDOF 3
ENDMDL
MODEL 9
REMARK VINA RESULT:      -6.9      2.910      8.191
REMARK  Name = 
REMARK  6 active torsions:
REMARK  status: ('A' for Active; 'I' for Inactive)
REMARK    1  A    between atoms: C_1  and  C_2
REMARK    2  A    between atoms: C_8  and  C_9
REMARK    3  A    between atoms: C_12  and  N_13
REMARK    4  A    between atoms: C_14  and  C_16
REMARK    5  A    between atoms: C_16  and  C_17
REMARK    6  A    between atoms: C_16  and  C_18
REMARK                            x       y       z     vdW  Elec       q    Type
REMARK                         _______ _______ _______ _____ _____    ______ ____
ROOT
ATOM      1  C   UNL     1       2.376   6.428  18.894  0.00  0.00    +0.000 A 
ATOM      2  C   UNL     1       2.374   7.339  17.838  0.00  0.00    +0.000 A 
ATOM      3  C   UNL     1       1.949   8.656  18.036  0.00  0.00    +0.000 A 
ATOM      4  C   UNL     1       1.517   9.091  19.290  0.00  0.00    +0.000 A 
ATOM      5  C   UNL     1       1.521   8.182  20.353  0.00  0.00    +0.000 A 
ATOM      6  C   UNL     1       1.940   6.858  20.156  0.00  0.00    +0.000 A 
ENDROOT
BRANCH   1  14
ATOM      7  C   UNL     1       5.369   5.411  19.168  0.00  0.00    +0.000 C 
ATOM      8  C   UNL     1       4.126   4.594  19.547  0.00  0.00    +0.000 C 
ATOM      9  C   UNL     1       4.435   3.103  19.454  0.00  0.00    +0.000 C 
ATOM     10  C   UNL     1       3.604   2.306  18.498  0.00  0.00    +0.000 C 
ATOM     11  O   UNL     1       3.756   1.090  18.378  0.00  0.00    +0.000 OA
ATOM     12  N   UNL     1       2.678   2.971  17.757  0.00  0.00    +0.000 N 
ATOM     13  N   UNL     1       2.298   4.259  17.888  0.00  0.00    +0.000 NA
ATOM     14  C   UNL     1       2.917   5.034  18.726  0.00  0.00    +0.000 C 
ATOM     15  H   UNL     1       2.111   2.401  17.137  0.00  0.00    +0.000 HD
ENDBRANCH   1  14
BRANCH   4  16
ATOM     16  N   UNL     1       1.099  10.415  19.538  0.00  0.00    +0.000 N 
ATOM     17  C   UNL     1      -0.187  10.920  19.360  0.00  0.00    +0.000 C 
ATOM     18  O   UNL     1      -1.151  10.248  18.994  0.00  0.00    +0.000 OA
ATOM     19  H   UNL     1       1.757  11.016  20.023  0.00  0.00    +0.000 HD
BRANCH  17  20
ATOM     20  C   UNL     1      -0.338  12.424  19.628  0.00  0.00    +0.000 C 
ATOM     21  C   UNL     1      -0.420  13.226  18.334  0.00  0.00    +0.000 C 
ATOM     22  C   UNL     1      -1.556  12.694  20.513  0.00  0.00    +0.000 C 
ATOM     23 BR   UNL     1       1.263  13.004  20.622  0.00  0.00    +0.000 Br
ENDBRANCH  17  20
ENDBRANCH   4  16
TORSDOF 3
ENDMDL
