MODEL 1
REMARK VINA RESULT:      -7.9      0.000      0.000
REMARK  Name = 
REMARK  5 active torsions:
REMARK  status: ('A' for Active; 'I' for Inactive)
REMARK    1  A    between atoms: C_1  and  C_2
REMARK    2  A    between atoms: C_5  and  N_6
REMARK    3  A    between atoms: C_8  and  C_9
REMARK    4  A    between atoms: C_18  and  N_19
REMARK    5  A    between atoms: C_20  and  C_22
REMARK                            x       y       z     vdW  Elec       q    Type
REMARK                         _______ _______ _______ _____ _____    ______ ____
ROOT
ATOM      1  N   UNL     1       0.646  10.842  19.655  0.00  0.00    +0.000 N 
ATOM      2  N   UNL     1       0.937   9.510  19.709  0.00  0.00    +0.000 NA
ATOM      3  C   UNL     1       1.734   9.300  18.653  0.00  0.00    +0.000 A 
ATOM      4  C   UNL     1       2.071  10.503  17.999  0.00  0.00    +0.000 A 
ATOM      5  C   UNL     1       1.398  11.483  18.679  0.00  0.00    +0.000 A 
ENDROOT
BRANCH   3   6
ATOM      6  C   UNL     1       2.199   7.906  18.275  0.00  0.00    +0.000 C 
ATOM      7  C   UNL     1       3.495   8.017  17.438  0.00  0.00    +0.000 C 
ATOM      8  C   UNL     1       4.086   6.692  16.982  0.00  0.00    +0.000 C 
ATOM      9  N   UNL     1       4.790   6.015  18.053  0.00  0.00    +0.000 N 
ATOM     10  C   UNL     1       4.221   5.453  19.153  0.00  0.00    +0.000 C 
ATOM     11  O   UNL     1       4.922   4.876  19.979  0.00  0.00    +0.000 OA
ATOM     12  C   UNL     1       2.724   5.589  19.312  0.00  0.00    +0.000 C 
ATOM     13  C   UNL     1       2.319   7.044  19.549  0.00  0.00    +0.000 C 
ATOM     14  H   UNL     1       5.795   5.896  17.988  0.00  0.00    +0.000 HD
ENDBRANCH   3   6
BRANCH   1  19
ATOM     15  C   UNL     1      -3.538  13.070  22.892  0.00  0.00    +0.000 C 
ATOM     16  C   UNL     1      -2.432  12.495  22.053  0.00  0.00    +0.000 A 
ATOM     17  C   UNL     1      -1.310  11.899  22.643  0.00  0.00    +0.000 A 
ATOM     18  C   UNL     1      -0.300  11.341  21.851  0.00  0.00    +0.000 A 
ATOM     19  C   UNL     1      -0.385  11.407  20.458  0.00  0.00    +0.000 A 
ATOM     20  C   UNL     1      -1.517  11.992  19.863  0.00  0.00    +0.000 A 
ATOM     21  C   UNL     1      -2.532  12.526  20.660  0.00  0.00    +0.000 A 
ENDBRANCH   1  19
BRANCH   5  22
ATOM     22  N   UNL     1       1.525  12.845  18.462  0.00  0.00    +0.000 N 
ATOM     23  C   UNL     1       2.224  13.698  19.368  0.00  0.00    +0.000 C 
ATOM     24  O   UNL     1       2.783  13.280  20.369  0.00  0.00    +0.000 OA
ATOM     25  H   UNL     1       1.184  13.234  17.579  0.00  0.00    +0.000 HD
BRANCH  23  26
ATOM     26  C   UNL     1       2.302  15.030  18.840  0.00  0.00    +0.000 A 
ATOM     27  C   UNL     1       3.440  15.696  18.348  0.00  0.00    +0.000 A 
ATOM     28  N   UNL     1       3.157  16.891  17.827  0.00  0.00    +0.000 NA
ATOM     29  N   UNL     1       1.815  17.010  17.949  0.00  0.00    +0.000 N 
ATOM     30  C   UNL     1       0.983  17.989  17.422  0.00  0.00    +0.000 A 
ATOM     31  C   UNL     1      -0.339  17.940  17.637  0.00  0.00    +0.000 A 
ATOM     32  C   UNL     1      -0.802  16.823  18.507  0.00  0.00    +0.000 A 
ATOM     33  N   UNL     1      -0.064  15.851  18.966  0.00  0.00    +0.000 NA
ATOM     34  C   UNL     1       1.271  15.929  18.652  0.00  0.00    +0.000 A 
ENDBRANCH  23  26
ENDBRANCH   5  22
TORSDOF 4
ENDMDL
MODEL 2
REMARK VINA RESULT:      -7.8      3.172      8.508
REMARK  Name = 
REMARK  5 active torsions:
REMARK  status: ('A' for Active; 'I' for Inactive)
REMARK    1  A    between atoms: C_1  and  C_2
REMARK    2  A    between atoms: C_5  and  N_6
REMARK    3  A    between atoms: C_8  and  C_9
REMARK    4  A    between atoms: C_18  and  N_19
REMARK    5  A    between atoms: C_20  and  C_22
REMARK                            x       y       z     vdW  Elec       q    Type
REMARK                         _______ _______ _______ _____ _____    ______ ____
ROOT
ATOM      1  N   UNL     1      -0.324  12.071  19.174  0.00  0.00    +0.000 N 
ATOM      2  N   UNL     1      -1.537  12.622  19.474  0.00  0.00    +0.000 NA
ATOM      3  C   UNL     1      -2.427  11.786  18.924  0.00  0.00    +0.000 A 
ATOM      4  C   UNL     1      -1.812  10.633  18.393  0.00  0.00    +0.000 A 
ATOM      5  C   UNL     1      -0.470  10.816  18.599  0.00  0.00    +0.000 A 
ENDROOT
BRANCH   3   6
ATOM      6  C   UNL     1      -3.913  12.095  18.926  0.00  0.00    +0.000 C 
ATOM      7  C   UNL     1      -4.655  11.010  18.111  0.00  0.00    +0.000 C 
ATOM      8  C   UNL     1      -6.163  11.186  18.022  0.00  0.00    +0.000 C 
ATOM      9  N   UNL     1      -6.829  10.779  19.244  0.00  0.00    +0.000 N 
ATOM     10  C   UNL     1      -6.763  11.419  20.441  0.00  0.00    +0.000 C 
ATOM     11  O   UNL     1      -7.401  10.994  21.399  0.00  0.00    +0.000 OA
ATOM     12  C   UNL     1      -5.872  12.636  20.534  0.00  0.00    +0.000 C 
ATOM     13  C   UNL     1      -4.398  12.262  20.381  0.00  0.00    +0.000 C 
ATOM     14  H   UNL     1      -7.440   9.970  19.229  0.00  0.00    +0.000 HD
ENDBRANCH   3   6
BRANCH   1  19
ATOM     15  C   UNL     1       4.581  14.956  19.919  0.00  0.00    +0.000 C 
ATOM     16  C   UNL     1       3.292  14.213  19.716  0.00  0.00    +0.000 A 
ATOM     17  C   UNL     1       2.759  14.023  18.434  0.00  0.00    +0.000 A 
ATOM     18  C   UNL     1       1.573  13.304  18.254  0.00  0.00    +0.000 A 
ATOM     19  C   UNL     1       0.885  12.798  19.361  0.00  0.00    +0.000 A 
ATOM     20  C   UNL     1       1.424  12.975  20.647  0.00  0.00    +0.000 A 
ATOM     21  C   UNL     1       2.621  13.674  20.817  0.00  0.00    +0.000 A 
ENDBRANCH   1  19
BRANCH   5  22
ATOM     22  N   UNL     1       0.518   9.878  18.345  0.00  0.00    +0.000 N 
ATOM     23  C   UNL     1       1.183   9.172  19.391  0.00  0.00    +0.000 C 
ATOM     24  O   UNL     1       0.904   9.320  20.569  0.00  0.00    +0.000 OA
ATOM     25  H   UNL     1       0.710   9.620  17.374  0.00  0.00    +0.000 HD
BRANCH  23  26
ATOM     26  C   UNL     1       2.068   8.184  18.842  0.00  0.00    +0.000 A 
ATOM     27  C   UNL     1       2.918   8.312  17.728  0.00  0.00    +0.000 A 
ATOM     28  N   UNL     1       3.693   7.244  17.541  0.00  0.00    +0.000 NA
ATOM     29  N   UNL     1       3.376   6.407  18.554  0.00  0.00    +0.000 N 
ATOM     30  C   UNL     1       4.001   5.223  18.925  0.00  0.00    +0.000 A 
ATOM     31  C   UNL     1       3.552   4.523  19.976  0.00  0.00    +0.000 A 
ATOM     32  C   UNL     1       2.337   5.075  20.638  0.00  0.00    +0.000 A 
ATOM     33  N   UNL     1       1.762   6.213  20.362  0.00  0.00    +0.000 NA
ATOM     34  C   UNL     1       2.315   6.910  19.316  0.00  0.00    +0.000 A 
ENDBRANCH  23  26
ENDBRANCH   5  22
TORSDOF 4
ENDMDL
MODEL 3
REMARK VINA RESULT:      -7.8      3.835      8.828
REMARK  Name = 
REMARK  5 active torsions:
REMARK  status: ('A' for Active; 'I' for Inactive)
REMARK    1  A    between atoms: C_1  and  C_2
REMARK    2  A    between atoms: C_5  and  N_6
REMARK    3  A    between atoms: C_8  and  C_9
REMARK    4  A    between atoms: C_18  and  N_19
REMARK    5  A    between atoms: C_20  and  C_22
REMARK                            x       y       z     vdW  Elec       q    Type
REMARK                         _______ _______ _______ _____ _____    ______ ____
ROOT
ATOM      1  N   UNL     1      -1.369  11.250  19.789  0.00  0.00    +0.000 N 
ATOM      2  N   UNL     1      -1.930  12.141  20.658  0.00  0.00    +0.000 NA
ATOM      3  C   UNL     1      -1.266  11.948  21.805  0.00  0.00    +0.000 A 
ATOM      4  C   UNL     1      -0.195  11.044  21.652  0.00  0.00    +0.000 A 
ATOM      5  C   UNL     1      -0.253  10.639  20.344  0.00  0.00    +0.000 A 
ENDROOT
BRANCH   3   6
ATOM      6  C   UNL     1      -1.662  12.670  23.081  0.00  0.00    +0.000 C 
ATOM      7  C   UNL     1      -0.977  14.055  23.110  0.00  0.00    +0.000 C 
ATOM      8  C   UNL     1      -1.280  14.902  24.336  0.00  0.00    +0.000 C 
ATOM      9  N   UNL     1      -2.594  15.511  24.263  0.00  0.00    +0.000 N 
ATOM     10  C   UNL     1      -3.783  14.857  24.344  0.00  0.00    +0.000 C 
ATOM     11  O   UNL     1      -4.834  15.489  24.302  0.00  0.00    +0.000 OA
ATOM     12  C   UNL     1      -3.745  13.351  24.465  0.00  0.00    +0.000 C 
ATOM     13  C   UNL     1      -3.201  12.702  23.193  0.00  0.00    +0.000 C 
ATOM     14  H   UNL     1      -2.669  16.519  24.185  0.00  0.00    +0.000 HD
ENDBRANCH   3   6
BRANCH   1  19
ATOM     15  C   UNL     1      -3.773  10.130  14.698  0.00  0.00    +0.000 C 
ATOM     16  C   UNL     1      -3.143  10.407  16.033  0.00  0.00    +0.000 A 
ATOM     17  C   UNL     1      -1.965   9.760  16.428  0.00  0.00    +0.000 A 
ATOM     18  C   UNL     1      -1.371  10.048  17.662  0.00  0.00    +0.000 A 
ATOM     19  C   UNL     1      -1.973  10.962  18.532  0.00  0.00    +0.000 A 
ATOM     20  C   UNL     1      -3.147  11.623  18.133  0.00  0.00    +0.000 A 
ATOM     21  C   UNL     1      -3.721  11.348  16.890  0.00  0.00    +0.000 A 
ENDBRANCH   1  19
BRANCH   5  22
ATOM     22  N   UNL     1       0.682   9.837  19.709  0.00  0.00    +0.000 N 
ATOM     23  C   UNL     1       1.101   8.585  20.248  0.00  0.00    +0.000 C 
ATOM     24  O   UNL     1       0.641   8.123  21.279  0.00  0.00    +0.000 OA
ATOM     25  H   UNL     1       1.012  10.112  18.780  0.00  0.00    +0.000 HD
BRANCH  23  26
ATOM     26  C   UNL     1       1.980   7.916  19.331  0.00  0.00    +0.000 A 
ATOM     27  C   UNL     1       2.574   8.442  18.169  0.00  0.00    +0.000 A 
ATOM     28  N   UNL     1       3.427   7.594  17.594  0.00  0.00    +0.000 NA
ATOM     29  N   UNL     1       3.422   6.504  18.394  0.00  0.00    +0.000 N 
ATOM     30  C   UNL     1       4.252   5.391  18.345  0.00  0.00    +0.000 A 
ATOM     31  C   UNL     1       4.108   4.401  19.237  0.00  0.00    +0.000 A 
ATOM     32  C   UNL     1       2.985   4.570  20.201  0.00  0.00    +0.000 A 
ATOM     33  N   UNL     1       2.228   5.625  20.320  0.00  0.00    +0.000 NA
ATOM     34  C   UNL     1       2.474   6.629  19.416  0.00  0.00    +0.000 A 
ENDBRANCH  23  26
ENDBRANCH   5  22
TORSDOF 4
ENDMDL
MODEL 4
REMARK VINA RESULT:      -7.6      1.895      2.511
REMARK  Name = 
REMARK  5 active torsions:
REMARK  status: ('A' for Active; 'I' for Inactive)
REMARK    1  A    between atoms: C_1  and  C_2
REMARK    2  A    between atoms: C_5  and  N_6
REMARK    3  A    between atoms: C_8  and  C_9
REMARK    4  A    between atoms: C_18  and  N_19
REMARK    5  A    between atoms: C_20  and  C_22
REMARK                            x       y       z     vdW  Elec       q    Type
REMARK                         _______ _______ _______ _____ _____    ______ ____
ROOT
ATOM      1  N   UNL     1       0.347   9.978  18.571  0.00  0.00    +0.000 N 
ATOM      2  N   UNL     1       0.557   8.685  18.954  0.00  0.00    +0.000 NA
ATOM      3  C   UNL     1       1.874   8.502  18.800  0.00  0.00    +0.000 A 
ATOM      4  C   UNL     1       2.538   9.697  18.456  0.00  0.00    +0.000 A 
ATOM      5  C   UNL     1       1.548  10.639  18.354  0.00  0.00    +0.000 A 
ENDROOT
BRANCH   3   6
ATOM      6  C   UNL     1       2.516   7.142  19.010  0.00  0.00    +0.000 C 
ATOM      7  C   UNL     1       1.848   6.451  20.221  0.00  0.00    +0.000 C 
ATOM      8  C   UNL     1       2.389   5.069  20.557  0.00  0.00    +0.000 C 
ATOM      9  N   UNL     1       1.885   4.055  19.651  0.00  0.00    +0.000 N 
ATOM     10  C   UNL     1       2.205   3.928  18.336  0.00  0.00    +0.000 C 
ATOM     11  O   UNL     1       1.738   3.004  17.678  0.00  0.00    +0.000 OA
ATOM     12  C   UNL     1       3.126   4.967  17.738  0.00  0.00    +0.000 C 
ATOM     13  C   UNL     1       2.460   6.342  17.691  0.00  0.00    +0.000 C 
ATOM     14  H   UNL     1       1.267   3.335  20.009  0.00  0.00    +0.000 HD
ENDBRANCH   3   6
BRANCH   1  19
ATOM     15  C   UNL     1      -4.969  11.956  17.689  0.00  0.00    +0.000 C 
ATOM     16  C   UNL     1      -3.572  11.453  17.921  0.00  0.00    +0.000 A 
ATOM     17  C   UNL     1      -2.821  11.883  19.023  0.00  0.00    +0.000 A 
ATOM     18  C   UNL     1      -1.532  11.385  19.245  0.00  0.00    +0.000 A 
ATOM     19  C   UNL     1      -0.966  10.479  18.345  0.00  0.00    +0.000 A 
ATOM     20  C   UNL     1      -1.723  10.035  17.246  0.00  0.00    +0.000 A 
ATOM     21  C   UNL     1      -3.018  10.518  17.044  0.00  0.00    +0.000 A 
ENDBRANCH   1  19
BRANCH   5  22
ATOM     22  N   UNL     1       1.747  11.995  18.150  0.00  0.00    +0.000 N 
ATOM     23  C   UNL     1       1.812  12.925  19.230  0.00  0.00    +0.000 C 
ATOM     24  O   UNL     1       1.734  12.585  20.399  0.00  0.00    +0.000 OA
ATOM     25  H   UNL     1       1.942  12.324  17.201  0.00  0.00    +0.000 HD
BRANCH  23  26
ATOM     26  C   UNL     1       2.142  14.234  18.742  0.00  0.00    +0.000 A 
ATOM     27  C   UNL     1       3.338  14.647  18.127  0.00  0.00    +0.000 A 
ATOM     28  N   UNL     1       3.289  15.906  17.690  0.00  0.00    +0.000 NA
ATOM     29  N   UNL     1       2.040  16.326  17.993  0.00  0.00    +0.000 N 
ATOM     30  C   UNL     1       1.409  17.505  17.616  0.00  0.00    +0.000 A 
ATOM     31  C   UNL     1       0.150  17.752  18.003  0.00  0.00    +0.000 A 
ATOM     32  C   UNL     1      -0.458  16.719  18.888  0.00  0.00    +0.000 A 
ATOM     33  N   UNL     1       0.075  15.574  19.211  0.00  0.00    +0.000 NA
ATOM     34  C   UNL     1       1.341  15.359  18.725  0.00  0.00    +0.000 A 
ENDBRANCH  23  26
ENDBRANCH   5  22
TORSDOF 4
ENDMDL
MODEL 5
REMARK VINA RESULT:      -7.6      3.790      8.630
REMARK  Name = 
REMARK  5 active torsions:
REMARK  status: ('A' for Active; 'I' for Inactive)
REMARK    1  A    between atoms: C_1  and  C_2
REMARK    2  A    between atoms: C_5  and  N_6
REMARK    3  A    between atoms: C_8  and  C_9
REMARK    4  A    between atoms: C_18  and  N_19
REMARK    5  A    between atoms: C_20  and  C_22
REMARK                            x       y       z     vdW  Elec       q    Type
REMARK                         _______ _______ _______ _____ _____    ______ ____
ROOT
ATOM      1  N   UNL     1      -1.444  11.052  19.767  0.00  0.00    +0.000 N 
ATOM      2  N   UNL     1      -1.884  12.038  20.602  0.00  0.00    +0.000 NA
ATOM      3  C   UNL     1      -1.330  11.743  21.785  0.00  0.00    +0.000 A 
ATOM      4  C   UNL     1      -0.431  10.661  21.693  0.00  0.00    +0.000 A 
ATOM      5  C   UNL     1      -0.487  10.258  20.385  0.00  0.00    +0.000 A 
ENDROOT
BRANCH   3   6
ATOM      6  C   UNL     1      -1.662  12.537  23.036  0.00  0.00    +0.000 C 
ATOM      7  C   UNL     1      -0.972  13.919  22.953  0.00  0.00    +0.000 C 
ATOM      8  C   UNL     1      -1.213  14.835  24.143  0.00  0.00    +0.000 C 
ATOM      9  N   UNL     1      -2.528  15.444  24.100  0.00  0.00    +0.000 N 
ATOM     10  C   UNL     1      -3.713  14.802  24.276  0.00  0.00    +0.000 C 
ATOM     11  O   UNL     1      -4.763  15.436  24.249  0.00  0.00    +0.000 OA
ATOM     12  C   UNL     1      -3.672  13.305  24.480  0.00  0.00    +0.000 C 
ATOM     13  C   UNL     1      -3.193  12.583  23.221  0.00  0.00    +0.000 C 
ATOM     14  H   UNL     1      -2.604  16.447  23.968  0.00  0.00    +0.000 HD
ENDBRANCH   3   6
BRANCH   1  19
ATOM     15  C   UNL     1      -3.796  10.249  14.593  0.00  0.00    +0.000 C 
ATOM     16  C   UNL     1      -3.181  10.475  15.944  0.00  0.00    +0.000 A 
ATOM     17  C   UNL     1      -3.734  11.389  16.850  0.00  0.00    +0.000 A 
ATOM     18  C   UNL     1      -3.169  11.570  18.117  0.00  0.00    +0.000 A 
ATOM     19  C   UNL     1      -2.019  10.863  18.478  0.00  0.00    +0.000 A 
ATOM     20  C   UNL     1      -1.469   9.934  17.578  0.00  0.00    +0.000 A 
ATOM     21  C   UNL     1      -2.053   9.742  16.323  0.00  0.00    +0.000 A 
ENDBRANCH   1  19
BRANCH   5  22
ATOM     22  N   UNL     1       0.323   9.296  19.804  0.00  0.00    +0.000 N 
ATOM     23  C   UNL     1       1.460   9.637  19.011  0.00  0.00    +0.000 C 
ATOM     24  O   UNL     1       1.811  10.790  18.823  0.00  0.00    +0.000 OA
ATOM     25  H   UNL     1       0.152   8.313  20.027  0.00  0.00    +0.000 HD
BRANCH  23  26
ATOM     26  C   UNL     1       2.180   8.454  18.637  0.00  0.00    +0.000 A 
ATOM     27  C   UNL     1       3.060   8.287  17.551  0.00  0.00    +0.000 A 
ATOM     28  N   UNL     1       3.653   7.093  17.542  0.00  0.00    +0.000 NA
ATOM     29  N   UNL     1       3.186   6.469  18.647  0.00  0.00    +0.000 N 
ATOM     30  C   UNL     1       3.602   5.264  19.201  0.00  0.00    +0.000 A 
ATOM     31  C   UNL     1       3.026   4.800  20.319  0.00  0.00    +0.000 A 
ATOM     32  C   UNL     1       1.907   5.627  20.850  0.00  0.00    +0.000 A 
ATOM     33  N   UNL     1       1.530   6.791  20.398  0.00  0.00    +0.000 NA
ATOM     34  C   UNL     1       2.208   7.237  19.290  0.00  0.00    +0.000 A 
ENDBRANCH  23  26
ENDBRANCH   5  22
TORSDOF 4
ENDMDL
MODEL 6
REMARK VINA RESULT:      -7.6      1.532      1.974
REMARK  Name = 
REMARK  5 active torsions:
REMARK  status: ('A' for Active; 'I' for Inactive)
REMARK    1  A    between atoms: C_1  and  C_2
REMARK    2  A    between atoms: C_5  and  N_6
REMARK    3  A    between atoms: C_8  and  C_9
REMARK    4  A    between atoms: C_18  and  N_19
REMARK    5  A    between atoms: C_20  and  C_22
REMARK                            x       y       z     vdW  Elec       q    Type
REMARK                         _______ _______ _______ _____ _____    ______ ____
ROOT
ATOM      1  N   UNL     1       0.586   9.873  18.243  0.00  0.00    +0.000 N 
ATOM      2  N   UNL     1       0.839   8.541  18.397  0.00  0.00    +0.000 NA
ATOM      3  C   UNL     1       2.132   8.408  18.073  0.00  0.00    +0.000 A 
ATOM      4  C   UNL     1       2.750   9.654  17.844  0.00  0.00    +0.000 A 
ATOM      5  C   UNL     1       1.754  10.582  17.998  0.00  0.00    +0.000 A 
ENDROOT
BRANCH   3   6
ATOM      6  C   UNL     1       2.795   7.044  17.999  0.00  0.00    +0.000 C 
ATOM      7  C   UNL     1       3.935   7.094  16.955  0.00  0.00    +0.000 C 
ATOM      8  C   UNL     1       4.698   5.792  16.768  0.00  0.00    +0.000 C 
ATOM      9  N   UNL     1       5.641   5.558  17.844  0.00  0.00    +0.000 N 
ATOM     10  C   UNL     1       5.326   5.259  19.132  0.00  0.00    +0.000 C 
ATOM     11  O   UNL     1       6.218   5.049  19.949  0.00  0.00    +0.000 OA
ATOM     12  C   UNL     1       3.861   5.221  19.502  0.00  0.00    +0.000 C 
ATOM     13  C   UNL     1       3.228   6.609  19.415  0.00  0.00    +0.000 C 
ATOM     14  H   UNL     1       6.635   5.570  17.643  0.00  0.00    +0.000 HD
ENDBRANCH   3   6
BRANCH   1  19
ATOM     15  C   UNL     1      -4.796  11.867  18.272  0.00  0.00    +0.000 C 
ATOM     16  C   UNL     1      -3.382  11.360  18.266  0.00  0.00    +0.000 A 
ATOM     17  C   UNL     1      -2.466  11.754  19.249  0.00  0.00    +0.000 A 
ATOM     18  C   UNL     1      -1.160  11.253  19.250  0.00  0.00    +0.000 A 
ATOM     19  C   UNL     1      -0.745  10.378  18.242  0.00  0.00    +0.000 A 
ATOM     20  C   UNL     1      -1.666   9.969  17.261  0.00  0.00    +0.000 A 
ATOM     21  C   UNL     1      -2.975  10.456  17.281  0.00  0.00    +0.000 A 
ENDBRANCH   1  19
BRANCH   5  22
ATOM     22  N   UNL     1       1.927  11.957  17.983  0.00  0.00    +0.000 N 
ATOM     23  C   UNL     1       2.001  12.726  19.183  0.00  0.00    +0.000 C 
ATOM     24  O   UNL     1       1.953  12.224  20.293  0.00  0.00    +0.000 OA
ATOM     25  H   UNL     1       2.097  12.419  17.087  0.00  0.00    +0.000 HD
BRANCH  23  26
ATOM     26  C   UNL     1       2.300  14.097  18.878  0.00  0.00    +0.000 A 
ATOM     27  C   UNL     1       3.550  14.653  18.549  0.00  0.00    +0.000 A 
ATOM     28  N   UNL     1       3.472  15.942  18.214  0.00  0.00    +0.000 NA
ATOM     29  N   UNL     1       2.156  16.239  18.295  0.00  0.00    +0.000 N 
ATOM     30  C   UNL     1       1.506  17.400  17.895  0.00  0.00    +0.000 A 
ATOM     31  C   UNL     1       0.178  17.516  18.042  0.00  0.00    +0.000 A 
ATOM     32  C   UNL     1      -0.493  16.362  18.701  0.00  0.00    +0.000 A 
ATOM     33  N   UNL     1       0.069  15.232  19.030  0.00  0.00    +0.000 NA
ATOM     34  C   UNL     1       1.419  15.157  18.791  0.00  0.00    +0.000 A 
ENDBRANCH  23  26
ENDBRANCH   5  22
TORSDOF 4
ENDMDL
MODEL 7
REMARK VINA RESULT:      -7.6      2.682      5.261
REMARK  Name = 
REMARK  5 active torsions:
REMARK  status: ('A' for Active; 'I' for Inactive)
REMARK    1  A    between atoms: C_1  and  C_2
REMARK    2  A    between atoms: C_5  and  N_6
REMARK    3  A    between atoms: C_8  and  C_9
REMARK    4  A    between atoms: C_18  and  N_19
REMARK    5  A    between atoms: C_20  and  C_22
REMARK                            x       y       z     vdW  Elec       q    Type
REMARK                         _______ _______ _______ _____ _____    ______ ____
ROOT
ATOM      1  N   UNL     1       0.573  10.965  19.865  0.00  0.00    +0.000 N 
ATOM      2  N   UNL     1       1.435  10.040  19.352  0.00  0.00    +0.000 NA
ATOM      3  C   UNL     1       1.168   8.920  20.036  0.00  0.00    +0.000 A 
ATOM      4  C   UNL     1       0.053   9.073  20.886  0.00  0.00    +0.000 A 
ATOM      5  C   UNL     1      -0.339  10.377  20.732  0.00  0.00    +0.000 A 
ENDROOT
BRANCH   3   6
ATOM      6  C   UNL     1       1.996   7.661  19.853  0.00  0.00    +0.000 C 
ATOM      7  C   UNL     1       1.425   6.545  20.759  0.00  0.00    +0.000 C 
ATOM      8  C   UNL     1       2.155   5.213  20.685  0.00  0.00    +0.000 C 
ATOM      9  N   UNL     1       1.809   4.472  19.487  0.00  0.00    +0.000 N 
ATOM     10  C   UNL     1       2.155   4.803  18.215  0.00  0.00    +0.000 C 
ATOM     11  O   UNL     1       1.829   4.075  17.282  0.00  0.00    +0.000 OA
ATOM     12  C   UNL     1       2.921   6.089  18.012  0.00  0.00    +0.000 C 
ATOM     13  C   UNL     1       2.066   7.309  18.352  0.00  0.00    +0.000 C 
ATOM     14  H   UNL     1       1.298   3.601  19.575  0.00  0.00    +0.000 HD
ENDBRANCH   3   6
BRANCH   1  19
ATOM     15  C   UNL     1       1.194  16.545  18.670  0.00  0.00    +0.000 C 
ATOM     16  C   UNL     1       1.017  15.087  18.989  0.00  0.00    +0.000 A 
ATOM     17  C   UNL     1      -0.127  14.389  18.579  0.00  0.00    +0.000 A 
ATOM     18  C   UNL     1      -0.267  13.025  18.856  0.00  0.00    +0.000 A 
ATOM     19  C   UNL     1       0.721  12.352  19.581  0.00  0.00    +0.000 A 
ATOM     20  C   UNL     1       1.875  13.046  19.981  0.00  0.00    +0.000 A 
ATOM     21  C   UNL     1       2.019  14.403  19.680  0.00  0.00    +0.000 A 
ENDBRANCH   1  19
BRANCH   5  22
ATOM     22  N   UNL     1      -1.474  10.946  21.286  0.00  0.00    +0.000 N 
ATOM     23  C   UNL     1      -1.429  11.723  22.482  0.00  0.00    +0.000 C 
ATOM     24  O   UNL     1      -0.390  11.966  23.073  0.00  0.00    +0.000 OA
ATOM     25  H   UNL     1      -2.355  10.882  20.770  0.00  0.00    +0.000 HD
BRANCH  23  26
ATOM     26  C   UNL     1      -2.720  12.285  22.760  0.00  0.00    +0.000 A 
ATOM     27  C   UNL     1      -3.271  12.598  24.017  0.00  0.00    +0.000 A 
ATOM     28  N   UNL     1      -4.452  13.210  23.928  0.00  0.00    +0.000 NA
ATOM     29  N   UNL     1      -4.678  13.330  22.600  0.00  0.00    +0.000 N 
ATOM     30  C   UNL     1      -5.686  14.035  21.955  0.00  0.00    +0.000 A 
ATOM     31  C   UNL     1      -5.748  14.052  20.616  0.00  0.00    +0.000 A 
ATOM     32  C   UNL     1      -4.720  13.230  19.920  0.00  0.00    +0.000 A 
ATOM     33  N   UNL     1      -3.722  12.609  20.485  0.00  0.00    +0.000 NA
ATOM     34  C   UNL     1      -3.682  12.688  21.855  0.00  0.00    +0.000 A 
ENDBRANCH  23  26
ENDBRANCH   5  22
TORSDOF 4
ENDMDL
MODEL 8
REMARK VINA RESULT:      -7.6      3.125      8.699
REMARK  Name = 
REMARK  5 active torsions:
REMARK  status: ('A' for Active; 'I' for Inactive)
REMARK    1  A    between atoms: C_1  and  C_2
REMARK    2  A    between atoms: C_5  and  N_6
REMARK    3  A    between atoms: C_8  and  C_9
REMARK    4  A    between atoms: C_18  and  N_19
REMARK    5  A    between atoms: C_20  and  C_22
REMARK                            x       y       z     vdW  Elec       q    Type
REMARK                         _______ _______ _______ _____ _____    ______ ____
ROOT
ATOM      1  N   UNL     1      -0.307  11.858  19.038  0.00  0.00    +0.000 N 
ATOM      2  N   UNL     1      -1.544  12.339  19.355  0.00  0.00    +0.000 NA
ATOM      3  C   UNL     1      -2.393  11.467  18.797  0.00  0.00    +0.000 A 
ATOM      4  C   UNL     1      -1.723  10.357  18.242  0.00  0.00    +0.000 A 
ATOM      5  C   UNL     1      -0.390  10.607  18.442  0.00  0.00    +0.000 A 
ENDROOT
BRANCH   3   6
ATOM      6  C   UNL     1      -3.894  11.698  18.814  0.00  0.00    +0.000 C 
ATOM      7  C   UNL     1      -4.204  12.924  19.704  0.00  0.00    +0.000 C 
ATOM      8  C   UNL     1      -5.677  13.283  19.820  0.00  0.00    +0.000 C 
ATOM      9  N   UNL     1      -6.163  13.969  18.639  0.00  0.00    +0.000 N 
ATOM     10  C   UNL     1      -6.331  13.417  17.407  0.00  0.00    +0.000 C 
ATOM     11  O   UNL     1      -6.783  14.094  16.489  0.00  0.00    +0.000 OA
ATOM     12  C   UNL     1      -5.925  11.973  17.228  0.00  0.00    +0.000 C 
ATOM     13  C   UNL     1      -4.413  11.797  17.364  0.00  0.00    +0.000 C 
ATOM     14  H   UNL     1      -6.451  14.938  18.712  0.00  0.00    +0.000 HD
ENDBRANCH   3   6
BRANCH   1  19
ATOM     15  C   UNL     1       4.382  15.075  19.824  0.00  0.00    +0.000 C 
ATOM     16  C   UNL     1       3.162  14.220  19.624  0.00  0.00    +0.000 A 
ATOM     17  C   UNL     1       2.633  13.456  20.672  0.00  0.00    +0.000 A 
ATOM     18  C   UNL     1       1.479  12.687  20.483  0.00  0.00    +0.000 A 
ATOM     19  C   UNL     1       0.864  12.645  19.228  0.00  0.00    +0.000 A 
ATOM     20  C   UNL     1       1.384  13.422  18.179  0.00  0.00    +0.000 A 
ATOM     21  C   UNL     1       2.523  14.205  18.382  0.00  0.00    +0.000 A 
ENDBRANCH   1  19
BRANCH   5  22
ATOM     22  N   UNL     1       0.643   9.727  18.164  0.00  0.00    +0.000 N 
ATOM     23  C   UNL     1       1.310   8.990  19.188  0.00  0.00    +0.000 C 
ATOM     24  O   UNL     1       0.993   9.059  20.364  0.00  0.00    +0.000 OA
ATOM     25  H   UNL     1       0.871   9.533  17.186  0.00  0.00    +0.000 HD
BRANCH  23  26
ATOM     26  C   UNL     1       2.251   8.073  18.610  0.00  0.00    +0.000 A 
ATOM     27  C   UNL     1       3.112   8.295  17.520  0.00  0.00    +0.000 A 
ATOM     28  N   UNL     1       3.941   7.275  17.298  0.00  0.00    +0.000 NA
ATOM     29  N   UNL     1       3.648   6.376  18.265  0.00  0.00    +0.000 N 
ATOM     30  C   UNL     1       4.323   5.207  18.593  0.00  0.00    +0.000 A 
ATOM     31  C   UNL     1       3.892   4.437  19.601  0.00  0.00    +0.000 A 
ATOM     32  C   UNL     1       2.641   4.899  20.265  0.00  0.00    +0.000 A 
ATOM     33  N   UNL     1       2.016   6.020  20.031  0.00  0.00    +0.000 NA
ATOM     34  C   UNL     1       2.551   6.792  19.029  0.00  0.00    +0.000 A 
ENDBRANCH  23  26
ENDBRANCH   5  22
TORSDOF 4
ENDMDL
MODEL 9
REMARK VINA RESULT:      -7.5      1.924      2.553
REMARK  Name = 
REMARK  5 active torsions:
REMARK  status: ('A' for Active; 'I' for Inactive)
REMARK    1  A    between atoms: C_1  and  C_2
REMARK    2  A    between atoms: C_5  and  N_6
REMARK    3  A    between atoms: C_8  and  C_9
REMARK    4  A    between atoms: C_18  and  N_19
REMARK    5  A    between atoms: C_20  and  C_22
REMARK                            x       y       z     vdW  Elec       q    Type
REMARK                         _______ _______ _______ _____ _____    ______ ____
ROOT
ATOM      1  N   UNL     1       0.600   9.794  18.225  0.00  0.00    +0.000 N 
ATOM      2  N   UNL     1       0.880   8.490  18.517  0.00  0.00    +0.000 NA
ATOM      3  C   UNL     1       2.205   8.390  18.355  0.00  0.00    +0.000 A 
ATOM      4  C   UNL     1       2.802   9.641  18.097  0.00  0.00    +0.000 A 
ATOM      5  C   UNL     1       1.763  10.533  18.057  0.00  0.00    +0.000 A 
ENDROOT
BRANCH   3   6
ATOM      6  C   UNL     1       2.920   7.056  18.472  0.00  0.00    +0.000 C 
ATOM      7  C   UNL     1       1.906   5.917  18.213  0.00  0.00    +0.000 C 
ATOM      8  C   UNL     1       2.478   4.510  18.296  0.00  0.00    +0.000 C 
ATOM      9  N   UNL     1       3.232   4.162  17.107  0.00  0.00    +0.000 N 
ATOM     10  C   UNL     1       4.426   4.692  16.734  0.00  0.00    +0.000 C 
ATOM     11  O   UNL     1       4.985   4.290  15.718  0.00  0.00    +0.000 OA
ATOM     12  C   UNL     1       5.005   5.787  17.600  0.00  0.00    +0.000 C 
ATOM     13  C   UNL     1       4.152   7.054  17.542  0.00  0.00    +0.000 C 
ATOM     14  H   UNL     1       2.884   3.429  16.498  0.00  0.00    +0.000 HD
ENDBRANCH   3   6
BRANCH   1  19
ATOM     15  C   UNL     1      -4.816  11.540  17.470  0.00  0.00    +0.000 C 
ATOM     16  C   UNL     1      -3.394  11.098  17.669  0.00  0.00    +0.000 A 
ATOM     17  C   UNL     1      -2.633  11.568  18.747  0.00  0.00    +0.000 A 
ATOM     18  C   UNL     1      -1.319  11.127  18.939  0.00  0.00    +0.000 A 
ATOM     19  C   UNL     1      -0.739  10.237  18.030  0.00  0.00    +0.000 A 
ATOM     20  C   UNL     1      -1.505   9.753  16.955  0.00  0.00    +0.000 A 
ATOM     21  C   UNL     1      -2.824  10.180  16.784  0.00  0.00    +0.000 A 
ENDBRANCH   1  19
BRANCH   5  22
ATOM     22  N   UNL     1       1.887  11.909  17.949  0.00  0.00    +0.000 N 
ATOM     23  C   UNL     1       1.867  12.766  19.089  0.00  0.00    +0.000 C 
ATOM     24  O   UNL     1       1.775  12.345  20.230  0.00  0.00    +0.000 OA
ATOM     25  H   UNL     1       2.091  12.311  17.030  0.00  0.00    +0.000 HD
BRANCH  23  26
ATOM     26  C   UNL     1       2.134  14.121  18.698  0.00  0.00    +0.000 A 
ATOM     27  C   UNL     1       3.302  14.632  18.102  0.00  0.00    +0.000 A 
ATOM     28  N   UNL     1       3.192  15.917  17.763  0.00  0.00    +0.000 NA
ATOM     29  N   UNL     1       1.931  16.258  18.112  0.00  0.00    +0.000 N 
ATOM     30  C   UNL     1       1.245  17.433  17.833  0.00  0.00    +0.000 A 
ATOM     31  C   UNL     1      -0.018  17.595  18.252  0.00  0.00    +0.000 A 
ATOM     32  C   UNL     1      -0.568  16.473  19.063  0.00  0.00    +0.000 A 
ATOM     33  N   UNL     1       0.019  15.330  19.291  0.00  0.00    +0.000 NA
ATOM     34  C   UNL     1       1.286  15.208  18.776  0.00  0.00    +0.000 A 
ENDBRANCH  23  26
ENDBRANCH   5  22
TORSDOF 4
ENDMDL
