MODEL 1
REMARK VINA RESULT:      -5.8      0.000      0.000
REMARK  Name = 
REMARK  4 active torsions:
REMARK  status: ('A' for Active; 'I' for Inactive)
REMARK    1  A    between atoms: C_1  and  C_2
REMARK    2  A    between atoms: C_2  and  O_3
REMARK    3  A    between atoms: O_3  and  C_4
REMARK    4  A    between atoms: C_10  and  C_11
REMARK                            x       y       z     vdW  Elec       q    Type
REMARK                         _______ _______ _______ _____ _____    ______ ____
ROOT
ATOM      1  C   UNL     1       3.426   4.813  19.295  0.00  0.00    +0.000 A 
ATOM      2  C   UNL     1       3.420   6.132  18.812  0.00  0.00    +0.000 A 
ATOM      3  C   UNL     1       4.007   6.452  17.585  0.00  0.00    +0.000 A 
ATOM      4  C   UNL     1       4.606   5.456  16.824  0.00  0.00    +0.000 A 
ATOM      5 CL   UNL     1       5.330   5.856  15.317  0.00  0.00    +0.000 Cl
ATOM      6  C   UNL     1       4.618   4.142  17.278  0.00  0.00    +0.000 A 
ATOM      7  C   UNL     1       4.030   3.803  18.512  0.00  0.00    +0.000 A 
ENDROOT
BRANCH   7   8
ATOM      8  C   UNL     1       4.107   2.356  18.891  0.00  0.00    +0.000 C 
ATOM      9  N   UNL     1       4.900   1.997  19.939  0.00  0.00    +0.000 N 
ATOM     10  O   UNL     1       3.472   1.499  18.285  0.00  0.00    +0.000 OA
ATOM     11  H   UNL     1       5.437   2.684  20.457  0.00  0.00    +0.000 HD
ATOM     12  H   UNL     1       4.952   1.022  20.195  0.00  0.00    +0.000 HD
ENDBRANCH   7   8
BRANCH   1  13
ATOM     13  O   UNL     1       2.865   4.458  20.498  0.00  0.00    +0.000 OA
BRANCH  13  15
ATOM     14  C   UNL     1       1.247   2.859  21.240  0.00  0.00    +0.000 C 
ATOM     15  C   UNL     1       1.463   4.177  20.519  0.00  0.00    +0.000 C 
ENDBRANCH  13  15
ENDBRANCH   1  13
TORSDOF 3
ENDMDL
MODEL 2
REMARK VINA RESULT:      -5.8      3.725      4.979
REMARK  Name = 
REMARK  4 active torsions:
REMARK  status: ('A' for Active; 'I' for Inactive)
REMARK    1  A    between atoms: C_1  and  C_2
REMARK    2  A    between atoms: C_2  and  O_3
REMARK    3  A    between atoms: O_3  and  C_4
REMARK    4  A    between atoms: C_10  and  C_11
REMARK                            x       y       z     vdW  Elec       q    Type
REMARK                         _______ _______ _______ _____ _____    ______ ____
ROOT
ATOM      1  C   UNL     1       6.427   5.107  17.673  0.00  0.00    +0.000 A 
ATOM      2  C   UNL     1       5.628   5.087  18.828  0.00  0.00    +0.000 A 
ATOM      3  C   UNL     1       4.324   4.586  18.794  0.00  0.00    +0.000 A 
ATOM      4  C   UNL     1       3.803   4.095  17.604  0.00  0.00    +0.000 A 
ATOM      5 CL   UNL     1       2.198   3.482  17.567  0.00  0.00    +0.000 Cl
ATOM      6  C   UNL     1       4.576   4.097  16.448  0.00  0.00    +0.000 A 
ATOM      7  C   UNL     1       5.893   4.599  16.467  0.00  0.00    +0.000 A 
ENDROOT
BRANCH   7   8
ATOM      8  C   UNL     1       6.624   4.548  15.160  0.00  0.00    +0.000 C 
ATOM      9  N   UNL     1       7.523   5.530  14.876  0.00  0.00    +0.000 N 
ATOM     10  O   UNL     1       6.432   3.644  14.352  0.00  0.00    +0.000 OA
ATOM     11  H   UNL     1       7.700   6.290  15.524  0.00  0.00    +0.000 HD
ATOM     12  H   UNL     1       8.017   5.496  13.996  0.00  0.00    +0.000 HD
ENDBRANCH   7   8
BRANCH   1  13
ATOM     13  O   UNL     1       7.711   5.596  17.662  0.00  0.00    +0.000 OA
BRANCH  13  15
ATOM     14  C   UNL     1       7.773   7.987  17.634  0.00  0.00    +0.000 C 
ATOM     15  C   UNL     1       7.992   6.740  18.471  0.00  0.00    +0.000 C 
ENDBRANCH  13  15
ENDBRANCH   1  13
TORSDOF 3
ENDMDL
MODEL 3
REMARK VINA RESULT:      -5.7      1.433      1.435
REMARK  Name = 
REMARK  4 active torsions:
REMARK  status: ('A' for Active; 'I' for Inactive)
REMARK    1  A    between atoms: C_1  and  C_2
REMARK    2  A    between atoms: C_2  and  O_3
REMARK    3  A    between atoms: O_3  and  C_4
REMARK    4  A    between atoms: C_10  and  C_11
REMARK                            x       y       z     vdW  Elec       q    Type
REMARK                         _______ _______ _______ _____ _____    ______ ____
ROOT
ATOM      1  C   UNL     1       2.678   4.362  18.649  0.00  0.00    +0.000 A 
ATOM      2  C   UNL     1       2.538   5.676  18.172  0.00  0.00    +0.000 A 
ATOM      3  C   UNL     1       3.653   6.424  17.785  0.00  0.00    +0.000 A 
ATOM      4  C   UNL     1       4.922   5.866  17.866  0.00  0.00    +0.000 A 
ATOM      5 CL   UNL     1       6.291   6.792  17.392  0.00  0.00    +0.000 Cl
ATOM      6  C   UNL     1       5.086   4.565  18.329  0.00  0.00    +0.000 A 
ATOM      7  C   UNL     1       3.972   3.798  18.722  0.00  0.00    +0.000 A 
ENDROOT
BRANCH   7   8
ATOM      8  C   UNL     1       4.276   2.411  19.201  0.00  0.00    +0.000 C 
ATOM      9  N   UNL     1       3.827   1.355  18.470  0.00  0.00    +0.000 N 
ATOM     10  O   UNL     1       4.921   2.214  20.227  0.00  0.00    +0.000 OA
ATOM     11  H   UNL     1       3.290   1.488  17.620  0.00  0.00    +0.000 HD
ATOM     12  H   UNL     1       4.032   0.420  18.791  0.00  0.00    +0.000 HD
ENDBRANCH   7   8
BRANCH   1  13
ATOM     13  O   UNL     1       1.609   3.595  19.044  0.00  0.00    +0.000 OA
BRANCH  13  15
ATOM     14  C   UNL     1       1.331   2.843  21.298  0.00  0.00    +0.000 C 
ATOM     15  C   UNL     1       0.983   3.920  20.288  0.00  0.00    +0.000 C 
ENDBRANCH  13  15
ENDBRANCH   1  13
TORSDOF 3
ENDMDL
MODEL 4
REMARK VINA RESULT:      -5.7      1.128      1.129
REMARK  Name = 
REMARK  4 active torsions:
REMARK  status: ('A' for Active; 'I' for Inactive)
REMARK    1  A    between atoms: C_1  and  C_2
REMARK    2  A    between atoms: C_2  and  O_3
REMARK    3  A    between atoms: O_3  and  C_4
REMARK    4  A    between atoms: C_10  and  C_11
REMARK                            x       y       z     vdW  Elec       q    Type
REMARK                         _______ _______ _______ _____ _____    ______ ____
ROOT
ATOM      1  C   UNL     1       3.914   4.115  19.269  0.00  0.00    +0.000 A 
ATOM      2  C   UNL     1       4.504   5.389  19.235  0.00  0.00    +0.000 A 
ATOM      3  C   UNL     1       4.943   5.947  18.032  0.00  0.00    +0.000 A 
ATOM      4  C   UNL     1       4.795   5.239  16.846  0.00  0.00    +0.000 A 
ATOM      5 CL   UNL     1       5.340   5.928  15.369  0.00  0.00    +0.000 Cl
ATOM      6  C   UNL     1       4.208   3.978  16.853  0.00  0.00    +0.000 A 
ATOM      7  C   UNL     1       3.760   3.402  18.058  0.00  0.00    +0.000 A 
ENDROOT
BRANCH   7   8
ATOM      8  C   UNL     1       3.145   2.041  17.936  0.00  0.00    +0.000 C 
ATOM      9  N   UNL     1       3.873   0.959  18.327  0.00  0.00    +0.000 N 
ATOM     10  O   UNL     1       2.008   1.887  17.501  0.00  0.00    +0.000 OA
ATOM     11  H   UNL     1       4.815   1.056  18.688  0.00  0.00    +0.000 HD
ATOM     12  H   UNL     1       3.460   0.042  18.246  0.00  0.00    +0.000 HD
ENDBRANCH   7   8
BRANCH   1  13
ATOM     13  O   UNL     1       3.474   3.528  20.431  0.00  0.00    +0.000 OA
BRANCH  13  15
ATOM     14  C   UNL     1       1.416   2.760  21.378  0.00  0.00    +0.000 C 
ATOM     15  C   UNL     1       2.228   3.975  20.970  0.00  0.00    +0.000 C 
ENDBRANCH  13  15
ENDBRANCH   1  13
TORSDOF 3
ENDMDL
MODEL 5
REMARK VINA RESULT:      -5.7      1.329      1.329
REMARK  Name = 
REMARK  4 active torsions:
REMARK  status: ('A' for Active; 'I' for Inactive)
REMARK    1  A    between atoms: C_1  and  C_2
REMARK    2  A    between atoms: C_2  and  O_3
REMARK    3  A    between atoms: O_3  and  C_4
REMARK    4  A    between atoms: C_10  and  C_11
REMARK                            x       y       z     vdW  Elec       q    Type
REMARK                         _______ _______ _______ _____ _____    ______ ____
ROOT
ATOM      1  C   UNL     1       2.675   4.650  18.699  0.00  0.00    +0.000 A 
ATOM      2  C   UNL     1       3.103   5.947  18.372  0.00  0.00    +0.000 A 
ATOM      3  C   UNL     1       4.063   6.160  17.381  0.00  0.00    +0.000 A 
ATOM      4  C   UNL     1       4.606   5.078  16.700  0.00  0.00    +0.000 A 
ATOM      5 CL   UNL     1       5.790   5.345  15.483  0.00  0.00    +0.000 Cl
ATOM      6  C   UNL     1       4.194   3.784  17.001  0.00  0.00    +0.000 A 
ATOM      7  C   UNL     1       3.226   3.553  17.998  0.00  0.00    +0.000 A 
ENDROOT
BRANCH   7   8
ATOM      8  C   UNL     1       2.864   2.118  18.230  0.00  0.00    +0.000 C 
ATOM      9  N   UNL     1       1.551   1.792  18.377  0.00  0.00    +0.000 N 
ATOM     10  O   UNL     1       3.721   1.241  18.283  0.00  0.00    +0.000 OA
ATOM     11  H   UNL     1       0.822   2.495  18.339  0.00  0.00    +0.000 HD
ATOM     12  H   UNL     1       1.306   0.824  18.532  0.00  0.00    +0.000 HD
ENDBRANCH   7   8
BRANCH   1  13
ATOM     13  O   UNL     1       1.737   4.397  19.671  0.00  0.00    +0.000 OA
BRANCH  13  15
ATOM     14  C   UNL     1       2.002   3.150  21.696  0.00  0.00    +0.000 C 
ATOM     15  C   UNL     1       2.148   4.509  21.036  0.00  0.00    +0.000 C 
ENDBRANCH  13  15
ENDBRANCH   1  13
TORSDOF 3
ENDMDL
MODEL 6
REMARK VINA RESULT:      -5.7      1.295      1.591
REMARK  Name = 
REMARK  4 active torsions:
REMARK  status: ('A' for Active; 'I' for Inactive)
REMARK    1  A    between atoms: C_1  and  C_2
REMARK    2  A    between atoms: C_2  and  O_3
REMARK    3  A    between atoms: O_3  and  C_4
REMARK    4  A    between atoms: C_10  and  C_11
REMARK                            x       y       z     vdW  Elec       q    Type
REMARK                         _______ _______ _______ _____ _____    ______ ____
ROOT
ATOM      1  C   UNL     1       4.347   5.410  18.287  0.00  0.00    +0.000 A 
ATOM      2  C   UNL     1       4.701   6.431  17.390  0.00  0.00    +0.000 A 
ATOM      3  C   UNL     1       5.172   6.133  16.109  0.00  0.00    +0.000 A 
ATOM      4  C   UNL     1       5.292   4.809  15.707  0.00  0.00    +0.000 A 
ATOM      5 CL   UNL     1       5.876   4.448  14.131  0.00  0.00    +0.000 Cl
ATOM      6  C   UNL     1       4.942   3.780  16.575  0.00  0.00    +0.000 A 
ATOM      7  C   UNL     1       4.465   4.065  17.869  0.00  0.00    +0.000 A 
ENDROOT
BRANCH   7   8
ATOM      8  C   UNL     1       4.120   2.873  18.709  0.00  0.00    +0.000 C 
ATOM      9  N   UNL     1       4.908   2.579  19.780  0.00  0.00    +0.000 N 
ATOM     10  O   UNL     1       3.148   2.168  18.454  0.00  0.00    +0.000 OA
ATOM     11  H   UNL     1       5.718   3.143  20.013  0.00  0.00    +0.000 HD
ATOM     12  H   UNL     1       4.677   1.776  20.347  0.00  0.00    +0.000 HD
ENDBRANCH   7   8
BRANCH   1  13
ATOM     13  O   UNL     1       3.885   5.660  19.557  0.00  0.00    +0.000 OA
BRANCH  13  15
ATOM     14  C   UNL     1       1.779   5.124  20.558  0.00  0.00    +0.000 C 
ATOM     15  C   UNL     1       2.537   6.116  19.695  0.00  0.00    +0.000 C 
ENDBRANCH  13  15
ENDBRANCH   1  13
TORSDOF 3
ENDMDL
MODEL 7
REMARK VINA RESULT:      -5.7      3.654      4.932
REMARK  Name = 
REMARK  4 active torsions:
REMARK  status: ('A' for Active; 'I' for Inactive)
REMARK    1  A    between atoms: C_1  and  C_2
REMARK    2  A    between atoms: C_2  and  O_3
REMARK    3  A    between atoms: O_3  and  C_4
REMARK    4  A    between atoms: C_10  and  C_11
REMARK                            x       y       z     vdW  Elec       q    Type
REMARK                         _______ _______ _______ _____ _____    ______ ____
ROOT
ATOM      1  C   UNL     1       5.486   6.335  16.933  0.00  0.00    +0.000 A 
ATOM      2  C   UNL     1       4.357   6.814  17.619  0.00  0.00    +0.000 A 
ATOM      3  C   UNL     1       3.265   5.982  17.878  0.00  0.00    +0.000 A 
ATOM      4  C   UNL     1       3.290   4.658  17.457  0.00  0.00    +0.000 A 
ATOM      5 CL   UNL     1       1.942   3.640  17.775  0.00  0.00    +0.000 Cl
ATOM      6  C   UNL     1       4.398   4.159  16.781  0.00  0.00    +0.000 A 
ATOM      7  C   UNL     1       5.507   4.986  16.513  0.00  0.00    +0.000 A 
ENDROOT
BRANCH   7   8
ATOM      8  C   UNL     1       6.639   4.333  15.780  0.00  0.00    +0.000 C 
ATOM      9  N   UNL     1       6.379   3.720  14.592  0.00  0.00    +0.000 N 
ATOM     10  O   UNL     1       7.783   4.345  16.224  0.00  0.00    +0.000 OA
ATOM     11  H   UNL     1       5.444   3.693  14.202  0.00  0.00    +0.000 HD
ATOM     12  H   UNL     1       7.142   3.281  14.097  0.00  0.00    +0.000 HD
ENDBRANCH   7   8
BRANCH   1  13
ATOM     13  O   UNL     1       6.578   7.122  16.653  0.00  0.00    +0.000 OA
BRANCH  13  15
ATOM     14  C   UNL     1       7.942   8.776  17.714  0.00  0.00    +0.000 C 
ATOM     15  C   UNL     1       7.541   7.312  17.692  0.00  0.00    +0.000 C 
ENDBRANCH  13  15
ENDBRANCH   1  13
TORSDOF 3
ENDMDL
MODEL 8
REMARK VINA RESULT:      -5.6      2.532      4.184
REMARK  Name = 
REMARK  4 active torsions:
REMARK  status: ('A' for Active; 'I' for Inactive)
REMARK    1  A    between atoms: C_1  and  C_2
REMARK    2  A    between atoms: C_2  and  O_3
REMARK    3  A    between atoms: O_3  and  C_4
REMARK    4  A    between atoms: C_10  and  C_11
REMARK                            x       y       z     vdW  Elec       q    Type
REMARK                         _______ _______ _______ _____ _____    ______ ____
ROOT
ATOM      1  C   UNL     1       4.765   4.692  16.670  0.00  0.00    +0.000 A 
ATOM      2  C   UNL     1       5.100   6.054  16.601  0.00  0.00    +0.000 A 
ATOM      3  C   UNL     1       4.327   7.020  17.250  0.00  0.00    +0.000 A 
ATOM      4  C   UNL     1       3.209   6.635  17.979  0.00  0.00    +0.000 A 
ATOM      5 CL   UNL     1       2.259   7.827  18.773  0.00  0.00    +0.000 Cl
ATOM      6  C   UNL     1       2.860   5.291  18.068  0.00  0.00    +0.000 A 
ATOM      7  C   UNL     1       3.630   4.306  17.419  0.00  0.00    +0.000 A 
ENDROOT
BRANCH   7   8
ATOM      8  C   UNL     1       3.154   2.896  17.590  0.00  0.00    +0.000 C 
ATOM      9  N   UNL     1       4.060   1.937  17.926  0.00  0.00    +0.000 N 
ATOM     10  O   UNL     1       1.974   2.595  17.439  0.00  0.00    +0.000 OA
ATOM     11  H   UNL     1       5.041   2.157  18.055  0.00  0.00    +0.000 HD
ATOM     12  H   UNL     1       3.740   0.987  18.041  0.00  0.00    +0.000 HD
ENDBRANCH   7   8
BRANCH   1  13
ATOM     13  O   UNL     1       5.495   3.711  16.042  0.00  0.00    +0.000 OA
BRANCH  13  15
ATOM     14  C   UNL     1       5.992   3.892  13.708  0.00  0.00    +0.000 C 
ATOM     15  C   UNL     1       6.504   4.125  15.118  0.00  0.00    +0.000 C 
ENDBRANCH  13  15
ENDBRANCH   1  13
TORSDOF 3
ENDMDL
MODEL 9
REMARK VINA RESULT:      -5.6      3.508      4.660
REMARK  Name = 
REMARK  4 active torsions:
REMARK  status: ('A' for Active; 'I' for Inactive)
REMARK    1  A    between atoms: C_1  and  C_2
REMARK    2  A    between atoms: C_2  and  O_3
REMARK    3  A    between atoms: O_3  and  C_4
REMARK    4  A    between atoms: C_10  and  C_11
REMARK                            x       y       z     vdW  Elec       q    Type
REMARK                         _______ _______ _______ _____ _____    ______ ____
ROOT
ATOM      1  C   UNL     1       5.999   4.545  18.159  0.00  0.00    +0.000 A 
ATOM      2  C   UNL     1       5.146   4.455  19.271  0.00  0.00    +0.000 A 
ATOM      3  C   UNL     1       3.761   4.372  19.110  0.00  0.00    +0.000 A 
ATOM      4  C   UNL     1       3.211   4.375  17.835  0.00  0.00    +0.000 A 
ATOM      5 CL   UNL     1       1.506   4.276  17.643  0.00  0.00    +0.000 Cl
ATOM      6  C   UNL     1       4.035   4.457  16.718  0.00  0.00    +0.000 A 
ATOM      7  C   UNL     1       5.434   4.541  16.863  0.00  0.00    +0.000 A 
ENDROOT
BRANCH   7   8
ATOM      8  C   UNL     1       6.214   4.624  15.587  0.00  0.00    +0.000 C 
ATOM      9  N   UNL     1       6.333   3.504  14.821  0.00  0.00    +0.000 N 
ATOM     10  O   UNL     1       6.736   5.673  15.221  0.00  0.00    +0.000 OA
ATOM     11  H   UNL     1       5.913   2.624  15.099  0.00  0.00    +0.000 HD
ATOM     12  H   UNL     1       6.858   3.559  13.960  0.00  0.00    +0.000 HD
ENDBRANCH   7   8
BRANCH   1  13
ATOM     13  O   UNL     1       7.366   4.634  18.273  0.00  0.00    +0.000 OA
BRANCH  13  15
ATOM     14  C   UNL     1       7.863   6.974  18.280  0.00  0.00    +0.000 C 
ATOM     15  C   UNL     1       7.898   5.686  19.081  0.00  0.00    +0.000 C 
ENDBRANCH  13  15
ENDBRANCH   1  13
TORSDOF 3
ENDMDL
