MODEL 1
REMARK VINA RESULT:      -7.6      0.000      0.000
REMARK  Name = 
REMARK  10 active torsions:
REMARK  status: ('A' for Active; 'I' for Inactive)
REMARK    1  A    between atoms: C_1  and  C_2
REMARK    2  A    between atoms: C_2  and  C_3
REMARK    3  A    between atoms: C_3  and  C_4
REMARK    4  A    between atoms: C_4  and  C_5
REMARK    5  A    between atoms: C_5  and  S_6
REMARK    6  A    between atoms: C_5  and  C_7
REMARK    7  A    between atoms: N_9  and  C_10
REMARK    8  A    between atoms: N_19  and  C_20
REMARK    9  A    between atoms: C_20  and  C_21
REMARK   10  A    between atoms: C_21  and  O_23
REMARK                            x       y       z     vdW  Elec       q    Type
REMARK                         _______ _______ _______ _____ _____    ______ ____
ROOT
ATOM      1  C   UNL     1       5.775   5.150  17.548  0.00  0.00    +0.000 C 
ATOM      2  C   UNL     1       5.381   6.629  17.793  0.00  0.00    +0.000 C 
ATOM      3  C   UNL     1       3.898   6.994  17.568  0.00  0.00    +0.000 C 
ATOM      4  C   UNL     1       2.995   6.498  18.680  0.00  0.00    +0.000 A 
ATOM      5  C   UNL     1       2.369   7.387  19.559  0.00  0.00    +0.000 A 
ATOM      6  C   UNL     1       1.608   6.899  20.625  0.00  0.00    +0.000 A 
ATOM      7  C   UNL     1       1.464   5.524  20.819  0.00  0.00    +0.000 A 
ATOM      8  C   UNL     1       2.052   4.626  19.928  0.00  0.00    +0.000 A 
ATOM      9  C   UNL     1       2.800   5.119  18.857  0.00  0.00    +0.000 A 
ATOM     10  N   UNL     1       3.566   4.277  18.031  0.00  0.00    +0.000 N 
ATOM     11  C   UNL     1       4.904   4.200  18.383  0.00  0.00    +0.000 C 
ATOM     12  O   UNL     1       5.300   3.634  19.407  0.00  0.00    +0.000 OA
ENDROOT
BRANCH   1  15
ATOM     13  C   UNL     1       6.654   5.167  15.202  0.00  0.00    +0.000 C 
ATOM     14  O   UNL     1       7.681   5.749  15.555  0.00  0.00    +0.000 OA
ATOM     15  N   UNL     1       5.691   4.780  16.114  0.00  0.00    +0.000 N 
ATOM     16  H   UNL     1       4.856   4.311  15.791  0.00  0.00    +0.000 HD
BRANCH  13  17
ATOM     17  C   UNL     1       6.424   4.836  13.717  0.00  0.00    +0.000 C 
BRANCH  17  18
ATOM     18  S   UNL     1       7.926   5.178  12.734  0.00  0.00    +0.000 S 
ATOM     19  H   UNL     1       8.493   3.964  12.828  0.00  0.00    +0.000 HD
ENDBRANCH  17  18
BRANCH  17  20
ATOM     20  C   UNL     1       5.950   3.410  13.453  0.00  0.00    +0.000 C 
BRANCH  20  21
ATOM     21  C   UNL     1       5.472   3.152  12.023  0.00  0.00    +0.000 C 
BRANCH  21  23
ATOM     22  C   UNL     1       7.261   1.751  11.049  0.00  0.00    +0.000 C 
ATOM     23  C   UNL     1       5.773   1.790  11.393  0.00  0.00    +0.000 C 
ENDBRANCH  21  23
ENDBRANCH  20  21
ENDBRANCH  17  20
ENDBRANCH  13  17
ENDBRANCH   1  15
BRANCH  10  24
ATOM     24  C   UNL     1       2.959   3.219  17.252  0.00  0.00    +0.000 C 
BRANCH  24  25
ATOM     25  C   UNL     1       2.703   1.957  18.082  0.00  0.00    +0.000 C 
ATOM     26  O   UNL     1       1.633   1.638  18.585  0.00  0.00    +0.000 OA
BRANCH  25  27
ATOM     27  O   UNL     1       3.783   1.138  18.146  0.00  0.00    +0.000 OA
ATOM     28  H   UNL     1       4.342   1.268  18.934  0.00  0.00    +0.000 HD
ENDBRANCH  25  27
ENDBRANCH  24  25
ENDBRANCH  10  24
TORSDOF 9
ENDMDL
MODEL 2
REMARK VINA RESULT:      -7.5      0.596      1.152
REMARK  Name = 
REMARK  10 active torsions:
REMARK  status: ('A' for Active; 'I' for Inactive)
REMARK    1  A    between atoms: C_1  and  C_2
REMARK    2  A    between atoms: C_2  and  C_3
REMARK    3  A    between atoms: C_3  and  C_4
REMARK    4  A    between atoms: C_4  and  C_5
REMARK    5  A    between atoms: C_5  and  S_6
REMARK    6  A    between atoms: C_5  and  C_7
REMARK    7  A    between atoms: N_9  and  C_10
REMARK    8  A    between atoms: N_19  and  C_20
REMARK    9  A    between atoms: C_20  and  C_21
REMARK   10  A    between atoms: C_21  and  O_23
REMARK                            x       y       z     vdW  Elec       q    Type
REMARK                         _______ _______ _______ _____ _____    ______ ____
ROOT
ATOM      1  C   UNL     1       5.720   5.174  17.472  0.00  0.00    +0.000 C 
ATOM      2  C   UNL     1       5.332   6.654  17.725  0.00  0.00    +0.000 C 
ATOM      3  C   UNL     1       3.848   7.023  17.519  0.00  0.00    +0.000 C 
ATOM      4  C   UNL     1       2.957   6.527  18.641  0.00  0.00    +0.000 A 
ATOM      5  C   UNL     1       2.344   7.416  19.530  0.00  0.00    +0.000 A 
ATOM      6  C   UNL     1       1.596   6.928  20.604  0.00  0.00    +0.000 A 
ATOM      7  C   UNL     1       1.451   5.552  20.797  0.00  0.00    +0.000 A 
ATOM      8  C   UNL     1       2.025   4.654  19.897  0.00  0.00    +0.000 A 
ATOM      9  C   UNL     1       2.761   5.148  18.817  0.00  0.00    +0.000 A 
ATOM     10  N   UNL     1       3.515   4.306  17.980  0.00  0.00    +0.000 N 
ATOM     11  C   UNL     1       4.856   4.224  18.315  0.00  0.00    +0.000 C 
ATOM     12  O   UNL     1       5.264   3.656  19.333  0.00  0.00    +0.000 OA
ENDROOT
BRANCH   1  15
ATOM     13  C   UNL     1       6.613   5.117  15.131  0.00  0.00    +0.000 C 
ATOM     14  O   UNL     1       7.679   5.619  15.490  0.00  0.00    +0.000 OA
ATOM     15  N   UNL     1       5.616   4.807  16.038  0.00  0.00    +0.000 N 
ATOM     16  H   UNL     1       4.750   4.402  15.711  0.00  0.00    +0.000 HD
BRANCH  13  17
ATOM     17  C   UNL     1       6.368   4.800  13.646  0.00  0.00    +0.000 C 
BRANCH  17  18
ATOM     18  S   UNL     1       7.847   5.188  12.645  0.00  0.00    +0.000 S 
ATOM     19  H   UNL     1       7.258   5.212  11.439  0.00  0.00    +0.000 HD
ENDBRANCH  17  18
BRANCH  17  20
ATOM     20  C   UNL     1       5.921   3.367  13.370  0.00  0.00    +0.000 C 
BRANCH  20  21
ATOM     21  C   UNL     1       5.501   3.098  11.924  0.00  0.00    +0.000 C 
BRANCH  21  23
ATOM     22  C   UNL     1       3.382   2.859  10.675  0.00  0.00    +0.000 C 
ATOM     23  C   UNL     1       4.302   3.866  11.363  0.00  0.00    +0.000 C 
ENDBRANCH  21  23
ENDBRANCH  20  21
ENDBRANCH  17  20
ENDBRANCH  13  17
ENDBRANCH   1  15
BRANCH  10  24
ATOM     24  C   UNL     1       2.895   3.251  17.206  0.00  0.00    +0.000 C 
BRANCH  24  25
ATOM     25  C   UNL     1       2.739   1.954  18.008  0.00  0.00    +0.000 C 
ATOM     26  O   UNL     1       3.650   1.209  18.344  0.00  0.00    +0.000 OA
BRANCH  25  27
ATOM     27  O   UNL     1       1.462   1.733  18.411  0.00  0.00    +0.000 OA
ATOM     28  H   UNL     1       1.274   0.811  18.670  0.00  0.00    +0.000 HD
ENDBRANCH  25  27
ENDBRANCH  24  25
ENDBRANCH  10  24
TORSDOF 9
ENDMDL
MODEL 3
REMARK VINA RESULT:      -7.0      1.005      1.272
REMARK  Name = 
REMARK  10 active torsions:
REMARK  status: ('A' for Active; 'I' for Inactive)
REMARK    1  A    between atoms: C_1  and  C_2
REMARK    2  A    between atoms: C_2  and  C_3
REMARK    3  A    between atoms: C_3  and  C_4
REMARK    4  A    between atoms: C_4  and  C_5
REMARK    5  A    between atoms: C_5  and  S_6
REMARK    6  A    between atoms: C_5  and  C_7
REMARK    7  A    between atoms: N_9  and  C_10
REMARK    8  A    between atoms: N_19  and  C_20
REMARK    9  A    between atoms: C_20  and  C_21
REMARK   10  A    between atoms: C_21  and  O_23
REMARK                            x       y       z     vdW  Elec       q    Type
REMARK                         _______ _______ _______ _____ _____    ______ ____
ROOT
ATOM      1  C   UNL     1       5.728   6.177  17.391  0.00  0.00    +0.000 C 
ATOM      2  C   UNL     1       4.753   7.319  17.778  0.00  0.00    +0.000 C 
ATOM      3  C   UNL     1       3.248   6.982  17.745  0.00  0.00    +0.000 C 
ATOM      4  C   UNL     1       2.812   6.121  18.914  0.00  0.00    +0.000 A 
ATOM      5  C   UNL     1       1.976   6.623  19.917  0.00  0.00    +0.000 A 
ATOM      6  C   UNL     1       1.658   5.834  21.024  0.00  0.00    +0.000 A 
ATOM      7  C   UNL     1       2.166   4.538  21.139  0.00  0.00    +0.000 A 
ATOM      8  C   UNL     1       2.971   4.010  20.129  0.00  0.00    +0.000 A 
ATOM      9  C   UNL     1       3.275   4.799  19.017  0.00  0.00    +0.000 A 
ATOM     10  N   UNL     1       4.221   4.400  18.055  0.00  0.00    +0.000 N 
ATOM     11  C   UNL     1       5.486   4.928  18.250  0.00  0.00    +0.000 C 
ATOM     12  O   UNL     1       6.222   4.590  19.183  0.00  0.00    +0.000 OA
ENDROOT
BRANCH   1  15
ATOM     13  C   UNL     1       6.646   5.156  15.294  0.00  0.00    +0.000 C 
ATOM     14  O   UNL     1       7.633   4.729  15.895  0.00  0.00    +0.000 OA
ATOM     15  N   UNL     1       5.631   5.825  15.953  0.00  0.00    +0.000 N 
ATOM     16  H   UNL     1       4.837   6.169  15.430  0.00  0.00    +0.000 HD
BRANCH  13  17
ATOM     17  C   UNL     1       6.507   4.935  13.778  0.00  0.00    +0.000 C 
BRANCH  17  18
ATOM     18  S   UNL     1       8.111   5.176  12.936  0.00  0.00    +0.000 S 
ATOM     19  H   UNL     1       7.978   4.221  12.001  0.00  0.00    +0.000 HD
ENDBRANCH  17  18
BRANCH  17  20
ATOM     20  C   UNL     1       5.918   3.583  13.387  0.00  0.00    +0.000 C 
BRANCH  20  21
ATOM     21  C   UNL     1       5.591   3.437  11.900  0.00  0.00    +0.000 C 
BRANCH  21  23
ATOM     22  C   UNL     1       3.612   3.749  10.452  0.00  0.00    +0.000 C 
ATOM     23  C   UNL     1       4.235   2.842  11.512  0.00  0.00    +0.000 C 
ENDBRANCH  21  23
ENDBRANCH  20  21
ENDBRANCH  17  20
ENDBRANCH  13  17
ENDBRANCH   1  15
BRANCH  10  24
ATOM     24  C   UNL     1       4.051   3.191  17.278  0.00  0.00    +0.000 C 
BRANCH  24  25
ATOM     25  C   UNL     1       2.739   2.468  17.604  0.00  0.00    +0.000 C 
ATOM     26  O   UNL     1       1.620   2.831  17.264  0.00  0.00    +0.000 OA
BRANCH  25  27
ATOM     27  O   UNL     1       2.931   1.292  18.253  0.00  0.00    +0.000 OA
ATOM     28  H   UNL     1       2.117   0.890  18.610  0.00  0.00    +0.000 HD
ENDBRANCH  25  27
ENDBRANCH  24  25
ENDBRANCH  10  24
TORSDOF 9
ENDMDL
MODEL 4
REMARK VINA RESULT:      -6.7      0.936      1.076
REMARK  Name = 
REMARK  10 active torsions:
REMARK  status: ('A' for Active; 'I' for Inactive)
REMARK    1  A    between atoms: C_1  and  C_2
REMARK    2  A    between atoms: C_2  and  C_3
REMARK    3  A    between atoms: C_3  and  C_4
REMARK    4  A    between atoms: C_4  and  C_5
REMARK    5  A    between atoms: C_5  and  S_6
REMARK    6  A    between atoms: C_5  and  C_7
REMARK    7  A    between atoms: N_9  and  C_10
REMARK    8  A    between atoms: N_19  and  C_20
REMARK    9  A    between atoms: C_20  and  C_21
REMARK   10  A    between atoms: C_21  and  O_23
REMARK                            x       y       z     vdW  Elec       q    Type
REMARK                         _______ _______ _______ _____ _____    ______ ____
ROOT
ATOM      1  C   UNL     1       5.899   6.122  17.441  0.00  0.00    +0.000 C 
ATOM      2  C   UNL     1       4.978   7.313  17.810  0.00  0.00    +0.000 C 
ATOM      3  C   UNL     1       3.458   7.054  17.749  0.00  0.00    +0.000 C 
ATOM      4  C   UNL     1       2.956   6.218  18.910  0.00  0.00    +0.000 A 
ATOM      5  C   UNL     1       2.129   6.765  19.896  0.00  0.00    +0.000 A 
ATOM      6  C   UNL     1       1.750   5.995  20.999  0.00  0.00    +0.000 A 
ATOM      7  C   UNL     1       2.189   4.675  21.123  0.00  0.00    +0.000 A 
ATOM      8  C   UNL     1       2.984   4.104  20.129  0.00  0.00    +0.000 A 
ATOM      9  C   UNL     1       3.349   4.874  19.022  0.00  0.00    +0.000 A 
ATOM     10  N   UNL     1       4.290   4.426  18.078  0.00  0.00    +0.000 N 
ATOM     11  C   UNL     1       5.577   4.888  18.296  0.00  0.00    +0.000 C 
ATOM     12  O   UNL     1       6.277   4.514  19.243  0.00  0.00    +0.000 OA
ENDROOT
BRANCH   1  15
ATOM     13  C   UNL     1       6.828   5.100  15.349  0.00  0.00    +0.000 C 
ATOM     14  O   UNL     1       7.809   4.668  15.956  0.00  0.00    +0.000 OA
ATOM     15  N   UNL     1       5.811   5.772  16.002  0.00  0.00    +0.000 N 
ATOM     16  H   UNL     1       5.022   6.121  15.474  0.00  0.00    +0.000 HD
BRANCH  13  17
ATOM     17  C   UNL     1       6.698   4.883  13.831  0.00  0.00    +0.000 C 
BRANCH  17  18
ATOM     18  S   UNL     1       8.220   5.410  12.967  0.00  0.00    +0.000 S 
ATOM     19  H   UNL     1       8.660   6.290  13.881  0.00  0.00    +0.000 HD
ENDBRANCH  17  18
BRANCH  17  20
ATOM     20  C   UNL     1       6.344   3.456  13.425  0.00  0.00    +0.000 C 
BRANCH  20  21
ATOM     21  C   UNL     1       6.029   3.276  11.939  0.00  0.00    +0.000 C 
BRANCH  21  23
ATOM     22  C   UNL     1       6.668   1.083  10.995  0.00  0.00    +0.000 C 
ATOM     23  C   UNL     1       5.485   1.924  11.471  0.00  0.00    +0.000 C 
ENDBRANCH  21  23
ENDBRANCH  20  21
ENDBRANCH  17  20
ENDBRANCH  13  17
ENDBRANCH   1  15
BRANCH  10  24
ATOM     24  C   UNL     1       4.073   3.226  17.299  0.00  0.00    +0.000 C 
BRANCH  24  25
ATOM     25  C   UNL     1       2.622   2.735  17.376  0.00  0.00    +0.000 C 
ATOM     26  O   UNL     1       2.244   1.709  17.926  0.00  0.00    +0.000 OA
BRANCH  25  27
ATOM     27  O   UNL     1       1.739   3.613  16.838  0.00  0.00    +0.000 OA
ATOM     28  H   UNL     1       1.130   3.223  16.184  0.00  0.00    +0.000 HD
ENDBRANCH  25  27
ENDBRANCH  24  25
ENDBRANCH  10  24
TORSDOF 9
ENDMDL
MODEL 5
REMARK VINA RESULT:      -6.7      1.226      1.370
REMARK  Name = 
REMARK  10 active torsions:
REMARK  status: ('A' for Active; 'I' for Inactive)
REMARK    1  A    between atoms: C_1  and  C_2
REMARK    2  A    between atoms: C_2  and  C_3
REMARK    3  A    between atoms: C_3  and  C_4
REMARK    4  A    between atoms: C_4  and  C_5
REMARK    5  A    between atoms: C_5  and  S_6
REMARK    6  A    between atoms: C_5  and  C_7
REMARK    7  A    between atoms: N_9  and  C_10
REMARK    8  A    between atoms: N_19  and  C_20
REMARK    9  A    between atoms: C_20  and  C_21
REMARK   10  A    between atoms: C_21  and  O_23
REMARK                            x       y       z     vdW  Elec       q    Type
REMARK                         _______ _______ _______ _____ _____    ______ ____
ROOT
ATOM      1  C   UNL     1       6.148   5.489  17.468  0.00  0.00    +0.000 C 
ATOM      2  C   UNL     1       5.381   6.811  17.207  0.00  0.00    +0.000 C 
ATOM      3  C   UNL     1       3.847   6.704  17.078  0.00  0.00    +0.000 C 
ATOM      4  C   UNL     1       3.157   6.487  18.410  0.00  0.00    +0.000 A 
ATOM      5  C   UNL     1       2.352   7.477  18.983  0.00  0.00    +0.000 A 
ATOM      6  C   UNL     1       1.797   7.283  20.249  0.00  0.00    +0.000 A 
ATOM      7  C   UNL     1       2.037   6.100  20.952  0.00  0.00    +0.000 A 
ATOM      8  C   UNL     1       2.807   5.089  20.379  0.00  0.00    +0.000 A 
ATOM      9  C   UNL     1       3.349   5.283  19.106  0.00  0.00    +0.000 A 
ATOM     10  N   UNL     1       4.278   4.388  18.546  0.00  0.00    +0.000 N 
ATOM     11  C   UNL     1       5.600   4.767  18.708  0.00  0.00    +0.000 C 
ATOM     12  O   UNL     1       6.177   4.756  19.800  0.00  0.00    +0.000 OA
ENDROOT
BRANCH   1  15
ATOM     13  C   UNL     1       6.854   4.819  15.159  0.00  0.00    +0.000 C 
ATOM     14  O   UNL     1       7.668   5.742  15.103  0.00  0.00    +0.000 OA
ATOM     15  N   UNL     1       6.107   4.579  16.297  0.00  0.00    +0.000 N 
ATOM     16  H   UNL     1       5.442   3.818  16.308  0.00  0.00    +0.000 HD
BRANCH  13  17
ATOM     17  C   UNL     1       6.659   3.885  13.952  0.00  0.00    +0.000 C 
BRANCH  17  18
ATOM     18  S   UNL     1       4.883   3.660  13.583  0.00  0.00    +0.000 S 
ATOM     19  H   UNL     1       4.515   3.116  14.755  0.00  0.00    +0.000 HD
ENDBRANCH  17  18
BRANCH  17  20
ATOM     20  C   UNL     1       7.395   4.321  12.688  0.00  0.00    +0.000 C 
BRANCH  20  21
ATOM     21  C   UNL     1       6.956   3.600  11.414  0.00  0.00    +0.000 C 
BRANCH  21  23
ATOM     22  C   UNL     1       6.356   1.221  11.113  0.00  0.00    +0.000 C 
ATOM     23  C   UNL     1       7.524   2.206  11.137  0.00  0.00    +0.000 C 
ENDBRANCH  21  23
ENDBRANCH  20  21
ENDBRANCH  17  20
ENDBRANCH  13  17
ENDBRANCH   1  15
BRANCH  10  24
ATOM     24  C   UNL     1       3.946   3.000  18.304  0.00  0.00    +0.000 C 
BRANCH  24  25
ATOM     25  C   UNL     1       2.564   2.835  17.662  0.00  0.00    +0.000 C 
ATOM     26  O   UNL     1       2.164   3.425  16.667  0.00  0.00    +0.000 OA
BRANCH  25  27
ATOM     27  O   UNL     1       1.816   1.873  18.259  0.00  0.00    +0.000 OA
ATOM     28  H   UNL     1       1.424   2.137  19.113  0.00  0.00    +0.000 HD
ENDBRANCH  25  27
ENDBRANCH  24  25
ENDBRANCH  10  24
TORSDOF 9
ENDMDL
MODEL 6
REMARK VINA RESULT:      -6.5      1.253      1.485
REMARK  Name = 
REMARK  10 active torsions:
REMARK  status: ('A' for Active; 'I' for Inactive)
REMARK    1  A    between atoms: C_1  and  C_2
REMARK    2  A    between atoms: C_2  and  C_3
REMARK    3  A    between atoms: C_3  and  C_4
REMARK    4  A    between atoms: C_4  and  C_5
REMARK    5  A    between atoms: C_5  and  S_6
REMARK    6  A    between atoms: C_5  and  C_7
REMARK    7  A    between atoms: N_9  and  C_10
REMARK    8  A    between atoms: N_19  and  C_20
REMARK    9  A    between atoms: C_20  and  C_21
REMARK   10  A    between atoms: C_21  and  O_23
REMARK                            x       y       z     vdW  Elec       q    Type
REMARK                         _______ _______ _______ _____ _____    ______ ____
ROOT
ATOM      1  C   UNL     1       6.150   4.919  16.652  0.00  0.00    +0.000 C 
ATOM      2  C   UNL     1       5.738   6.395  16.416  0.00  0.00    +0.000 C 
ATOM      3  C   UNL     1       4.228   6.674  16.263  0.00  0.00    +0.000 C 
ATOM      4  C   UNL     1       3.481   6.605  17.580  0.00  0.00    +0.000 A 
ATOM      5  C   UNL     1       2.935   7.750  18.168  0.00  0.00    +0.000 A 
ATOM      6  C   UNL     1       2.323   7.671  19.422  0.00  0.00    +0.000 A 
ATOM      7  C   UNL     1       2.250   6.450  20.096  0.00  0.00    +0.000 A 
ATOM      8  C   UNL     1       2.757   5.293  19.506  0.00  0.00    +0.000 A 
ATOM      9  C   UNL     1       3.355   5.375  18.247  0.00  0.00    +0.000 A 
ATOM     10  N   UNL     1       4.045   4.291  17.676  0.00  0.00    +0.000 N 
ATOM     11  C   UNL     1       5.417   4.328  17.865  0.00  0.00    +0.000 C 
ATOM     12  O   UNL     1       5.951   4.150  18.964  0.00  0.00    +0.000 OA
ENDROOT
BRANCH   1  15
ATOM     13  C   UNL     1       6.612   4.254  14.281  0.00  0.00    +0.000 C 
ATOM     14  O   UNL     1       7.545   5.055  14.202  0.00  0.00    +0.000 OA
ATOM     15  N   UNL     1       5.908   4.074  15.457  0.00  0.00    +0.000 N 
ATOM     16  H   UNL     1       5.143   3.415  15.487  0.00  0.00    +0.000 HD
BRANCH  13  17
ATOM     17  C   UNL     1       6.213   3.408  13.059  0.00  0.00    +0.000 C 
BRANCH  17  18
ATOM     18  S   UNL     1       4.606   3.958  12.384  0.00  0.00    +0.000 S 
ATOM     19  H   UNL     1       4.069   2.747  12.164  0.00  0.00    +0.000 HD
ENDBRANCH  17  18
BRANCH  17  20
ATOM     20  C   UNL     1       7.255   3.375  11.945  0.00  0.00    +0.000 C 
BRANCH  20  21
ATOM     21  C   UNL     1       7.370   2.033  11.220  0.00  0.00    +0.000 C 
BRANCH  21  23
ATOM     22  C   UNL     1       6.331  -0.201  11.418  0.00  0.00    +0.000 C 
ATOM     23  C   UNL     1       6.088   1.237  10.961  0.00  0.00    +0.000 C 
ENDBRANCH  21  23
ENDBRANCH  20  21
ENDBRANCH  17  20
ENDBRANCH  13  17
ENDBRANCH   1  15
BRANCH  10  24
ATOM     24  C   UNL     1       3.386   3.034  17.392  0.00  0.00    +0.000 C 
BRANCH  24  25
ATOM     25  C   UNL     1       3.273   2.142  18.634  0.00  0.00    +0.000 C 
ATOM     26  O   UNL     1       2.238   1.882  19.234  0.00  0.00    +0.000 OA
BRANCH  25  27
ATOM     27  O   UNL     1       4.451   1.565  18.979  0.00  0.00    +0.000 OA
ATOM     28  H   UNL     1       4.878   1.059  18.262  0.00  0.00    +0.000 HD
ENDBRANCH  25  27
ENDBRANCH  24  25
ENDBRANCH  10  24
TORSDOF 9
ENDMDL
MODEL 7
REMARK VINA RESULT:      -6.2      5.564      8.132
REMARK  Name = 
REMARK  10 active torsions:
REMARK  status: ('A' for Active; 'I' for Inactive)
REMARK    1  A    between atoms: C_1  and  C_2
REMARK    2  A    between atoms: C_2  and  C_3
REMARK    3  A    between atoms: C_3  and  C_4
REMARK    4  A    between atoms: C_4  and  C_5
REMARK    5  A    between atoms: C_5  and  S_6
REMARK    6  A    between atoms: C_5  and  C_7
REMARK    7  A    between atoms: N_9  and  C_10
REMARK    8  A    between atoms: N_19  and  C_20
REMARK    9  A    between atoms: C_20  and  C_21
REMARK   10  A    between atoms: C_21  and  O_23
REMARK                            x       y       z     vdW  Elec       q    Type
REMARK                         _______ _______ _______ _____ _____    ______ ____
ROOT
ATOM      1  C   UNL     1       1.114  10.286  18.477  0.00  0.00    +0.000 C 
ATOM      2  C   UNL     1      -0.300  10.380  17.849  0.00  0.00    +0.000 C 
ATOM      3  C   UNL     1      -1.494  10.147  18.798  0.00  0.00    +0.000 C 
ATOM      4  C   UNL     1      -1.751  11.323  19.719  0.00  0.00    +0.000 A 
ATOM      5  C   UNL     1      -2.896  12.115  19.586  0.00  0.00    +0.000 A 
ATOM      6  C   UNL     1      -3.066  13.242  20.394  0.00  0.00    +0.000 A 
ATOM      7  C   UNL     1      -2.100  13.584  21.343  0.00  0.00    +0.000 A 
ATOM      8  C   UNL     1      -0.971  12.782  21.513  0.00  0.00    +0.000 A 
ATOM      9  C   UNL     1      -0.812  11.650  20.711  0.00  0.00    +0.000 A 
ATOM     10  N   UNL     1       0.380  10.903  20.703  0.00  0.00    +0.000 N 
ATOM     11  C   UNL     1       1.250  11.234  19.677  0.00  0.00    +0.000 C 
ATOM     12  O   UNL     1       1.865  12.305  19.634  0.00  0.00    +0.000 OA
ENDROOT
BRANCH   1  15
ATOM     13  C   UNL     1       2.229   8.073  18.103  0.00  0.00    +0.000 C 
ATOM     14  O   UNL     1       2.765   8.479  17.071  0.00  0.00    +0.000 OA
ATOM     15  N   UNL     1       1.451   8.901  18.890  0.00  0.00    +0.000 N 
ATOM     16  H   UNL     1       1.019   8.535  19.727  0.00  0.00    +0.000 HD
BRANCH  13  17
ATOM     17  C   UNL     1       2.429   6.616  18.557  0.00  0.00    +0.000 C 
BRANCH  17  18
ATOM     18  S   UNL     1       3.924   5.896  17.791  0.00  0.00    +0.000 S 
ATOM     19  H   UNL     1       3.990   6.698  16.716  0.00  0.00    +0.000 HD
ENDBRANCH  17  18
BRANCH  17  20
ATOM     20  C   UNL     1       2.485   6.428  20.070  0.00  0.00    +0.000 C 
BRANCH  20  21
ATOM     21  C   UNL     1       1.505   5.390  20.619  0.00  0.00    +0.000 C 
BRANCH  21  23
ATOM     22  C   UNL     1       1.119   2.964  20.344  0.00  0.00    +0.000 C 
ATOM     23  C   UNL     1       2.044   4.002  20.977  0.00  0.00    +0.000 C 
ENDBRANCH  21  23
ENDBRANCH  20  21
ENDBRANCH  17  20
ENDBRANCH  13  17
ENDBRANCH   1  15
BRANCH  10  24
ATOM     24  C   UNL     1       0.878  10.253  21.896  0.00  0.00    +0.000 C 
BRANCH  24  25
ATOM     25  C   UNL     1      -0.137   9.273  22.494  0.00  0.00    +0.000 C 
ATOM     26  O   UNL     1      -0.637   8.320  21.911  0.00  0.00    +0.000 OA
BRANCH  25  27
ATOM     27  O   UNL     1      -0.383   9.503  23.808  0.00  0.00    +0.000 OA
ATOM     28  H   UNL     1      -0.971   8.849  24.230  0.00  0.00    +0.000 HD
ENDBRANCH  25  27
ENDBRANCH  24  25
ENDBRANCH  10  24
TORSDOF 9
ENDMDL
MODEL 8
REMARK VINA RESULT:      -6.0      5.682      7.756
REMARK  Name = 
REMARK  10 active torsions:
REMARK  status: ('A' for Active; 'I' for Inactive)
REMARK    1  A    between atoms: C_1  and  C_2
REMARK    2  A    between atoms: C_2  and  C_3
REMARK    3  A    between atoms: C_3  and  C_4
REMARK    4  A    between atoms: C_4  and  C_5
REMARK    5  A    between atoms: C_5  and  S_6
REMARK    6  A    between atoms: C_5  and  C_7
REMARK    7  A    between atoms: N_9  and  C_10
REMARK    8  A    between atoms: N_19  and  C_20
REMARK    9  A    between atoms: C_20  and  C_21
REMARK   10  A    between atoms: C_21  and  O_23
REMARK                            x       y       z     vdW  Elec       q    Type
REMARK                         _______ _______ _______ _____ _____    ______ ____
ROOT
ATOM      1  C   UNL     1       1.188  10.077  18.428  0.00  0.00    +0.000 C 
ATOM      2  C   UNL     1      -0.214  10.119  17.767  0.00  0.00    +0.000 C 
ATOM      3  C   UNL     1      -1.425   9.931  18.705  0.00  0.00    +0.000 C 
ATOM      4  C   UNL     1      -1.711  11.158  19.549  0.00  0.00    +0.000 A 
ATOM      5  C   UNL     1      -2.860  11.929  19.345  0.00  0.00    +0.000 A 
ATOM      6  C   UNL     1      -3.057  13.100  20.080  0.00  0.00    +0.000 A 
ATOM      7  C   UNL     1      -2.114  13.508  21.025  0.00  0.00    +0.000 A 
ATOM      8  C   UNL     1      -0.981  12.730  21.266  0.00  0.00    +0.000 A 
ATOM      9  C   UNL     1      -0.796  11.553  20.537  0.00  0.00    +0.000 A 
ATOM     10  N   UNL     1       0.403  10.819  20.597  0.00  0.00    +0.000 N 
ATOM     11  C   UNL     1       1.290  11.097  19.571  0.00  0.00    +0.000 C 
ATOM     12  O   UNL     1       1.896  12.169  19.476  0.00  0.00    +0.000 OA
ENDROOT
BRANCH   1  15
ATOM     13  C   UNL     1       2.373   7.878  18.235  0.00  0.00    +0.000 C 
ATOM     14  O   UNL     1       2.964   8.247  17.220  0.00  0.00    +0.000 OA
ATOM     15  N   UNL     1       1.528   8.724  18.930  0.00  0.00    +0.000 N 
ATOM     16  H   UNL     1       1.052   8.388  19.756  0.00  0.00    +0.000 HD
BRANCH  13  17
ATOM     17  C   UNL     1       2.577   6.451  18.774  0.00  0.00    +0.000 C 
BRANCH  17  18
ATOM     18  S   UNL     1       1.903   6.292  20.465  0.00  0.00    +0.000 S 
ATOM     19  H   UNL     1       1.013   7.296  20.409  0.00  0.00    +0.000 HD
ENDBRANCH  17  18
BRANCH  17  20
ATOM     20  C   UNL     1       2.003   5.351  17.886  0.00  0.00    +0.000 C 
BRANCH  20  21
ATOM     21  C   UNL     1       2.977   4.216  17.568  0.00  0.00    +0.000 C 
BRANCH  21  23
ATOM     22  C   UNL     1       1.260   2.740  18.561  0.00  0.00    +0.000 C 
ATOM     23  C   UNL     1       2.452   2.778  17.606  0.00  0.00    +0.000 C 
ENDBRANCH  21  23
ENDBRANCH  20  21
ENDBRANCH  17  20
ENDBRANCH  13  17
ENDBRANCH   1  15
BRANCH  10  24
ATOM     24  C   UNL     1       0.883  10.248  21.837  0.00  0.00    +0.000 C 
BRANCH  24  25
ATOM     25  C   UNL     1      -0.143   9.308  22.482  0.00  0.00    +0.000 C 
ATOM     26  O   UNL     1      -0.676   8.351  21.935  0.00  0.00    +0.000 OA
BRANCH  25  27
ATOM     27  O   UNL     1      -0.356   9.579  23.794  0.00  0.00    +0.000 OA
ATOM     28  H   UNL     1      -0.473   8.791  24.355  0.00  0.00    +0.000 HD
ENDBRANCH  25  27
ENDBRANCH  24  25
ENDBRANCH  10  24
TORSDOF 9
ENDMDL
MODEL 9
REMARK VINA RESULT:      -5.9      5.389      7.921
REMARK  Name = 
REMARK  10 active torsions:
REMARK  status: ('A' for Active; 'I' for Inactive)
REMARK    1  A    between atoms: C_1  and  C_2
REMARK    2  A    between atoms: C_2  and  C_3
REMARK    3  A    between atoms: C_3  and  C_4
REMARK    4  A    between atoms: C_4  and  C_5
REMARK    5  A    between atoms: C_5  and  S_6
REMARK    6  A    between atoms: C_5  and  C_7
REMARK    7  A    between atoms: N_9  and  C_10
REMARK    8  A    between atoms: N_19  and  C_20
REMARK    9  A    between atoms: C_20  and  C_21
REMARK   10  A    between atoms: C_21  and  O_23
REMARK                            x       y       z     vdW  Elec       q    Type
REMARK                         _______ _______ _______ _____ _____    ______ ____
ROOT
ATOM      1  C   UNL     1       1.669   9.649  19.257  0.00  0.00    +0.000 C 
ATOM      2  C   UNL     1       0.919   9.857  17.917  0.00  0.00    +0.000 C 
ATOM      3  C   UNL     1      -0.584   9.507  17.906  0.00  0.00    +0.000 C 
ATOM      4  C   UNL     1      -1.434  10.540  18.620  0.00  0.00    +0.000 A 
ATOM      5  C   UNL     1      -2.322  11.362  17.920  0.00  0.00    +0.000 A 
ATOM      6  C   UNL     1      -3.031  12.361  18.592  0.00  0.00    +0.000 A 
ATOM      7  C   UNL     1      -2.862  12.544  19.966  0.00  0.00    +0.000 A 
ATOM      8  C   UNL     1      -2.008  11.708  20.685  0.00  0.00    +0.000 A 
ATOM      9  C   UNL     1      -1.312  10.702  20.010  0.00  0.00    +0.000 A 
ATOM     10  N   UNL     1      -0.303   9.945  20.633  0.00  0.00    +0.000 N 
ATOM     11  C   UNL     1       0.981  10.408  20.400  0.00  0.00    +0.000 C 
ATOM     12  O   UNL     1       1.414  11.463  20.875  0.00  0.00    +0.000 OA
ENDROOT
BRANCH   1  15
ATOM     13  C   UNL     1       2.556   7.339  18.859  0.00  0.00    +0.000 C 
ATOM     14  O   UNL     1       3.253   7.731  17.923  0.00  0.00    +0.000 OA
ATOM     15  N   UNL     1       1.793   8.213  19.610  0.00  0.00    +0.000 N 
ATOM     16  H   UNL     1       1.226   7.858  20.368  0.00  0.00    +0.000 HD
BRANCH  13  17
ATOM     17  C   UNL     1       2.532   5.847  19.234  0.00  0.00    +0.000 C 
BRANCH  17  18
ATOM     18  S   UNL     1       4.225   5.159  19.272  0.00  0.00    +0.000 S 
ATOM     19  H   UNL     1       3.902   3.859  19.176  0.00  0.00    +0.000 HD
ENDBRANCH  17  18
BRANCH  17  20
ATOM     20  C   UNL     1       1.821   5.536  20.548  0.00  0.00    +0.000 C 
BRANCH  20  21
ATOM     21  C   UNL     1       1.686   4.045  20.862  0.00  0.00    +0.000 C 
BRANCH  21  23
ATOM     22  C   UNL     1       1.719   2.173  19.248  0.00  0.00    +0.000 C 
ATOM     23  C   UNL     1       0.812   3.187  19.944  0.00  0.00    +0.000 C 
ENDBRANCH  21  23
ENDBRANCH  20  21
ENDBRANCH  17  20
ENDBRANCH  13  17
ENDBRANCH   1  15
BRANCH  10  24
ATOM     24  C   UNL     1      -0.578   9.119  21.789  0.00  0.00    +0.000 C 
BRANCH  24  25
ATOM     25  C   UNL     1      -0.115   9.774  23.096  0.00  0.00    +0.000 C 
ATOM     26  O   UNL     1       0.932   9.533  23.683  0.00  0.00    +0.000 OA
BRANCH  25  27
ATOM     27  O   UNL     1      -0.955  10.749  23.525  0.00  0.00    +0.000 OA
ATOM     28  H   UNL     1      -1.507  11.144  22.825  0.00  0.00    +0.000 HD
ENDBRANCH  25  27
ENDBRANCH  24  25
ENDBRANCH  10  24
TORSDOF 9
ENDMDL
