MODEL 1
REMARK VINA RESULT:      -9.0      0.000      0.000
REMARK  Name = 
REMARK  9 active torsions:
REMARK  status: ('A' for Active; 'I' for Inactive)
REMARK    1  A    between atoms: C_1  and  O_2
REMARK    2  A    between atoms: O_2  and  C_3
REMARK    3  A    between atoms: C_6  and  N_7
REMARK    4  A    between atoms: C_9  and  C_10
REMARK    5  A    between atoms: C_10  and  N_11
REMARK    6  A    between atoms: N_11  and  C_12
REMARK    7  A    between atoms: C_17  and  C_18
REMARK    8  A    between atoms: C_21  and  C_22
REMARK    9  A    between atoms: C_31  and  N_32
REMARK                            x       y       z     vdW  Elec       q    Type
REMARK                         _______ _______ _______ _____ _____    ______ ____
ROOT
ATOM      1  N   UNL     1       2.883   5.898  17.757  0.00  0.00    +0.000 N 
ATOM      2  H   UNL     1       2.025   5.890  17.202  0.00  0.00    +0.000 HD
ENDROOT
BRANCH   1   3
ATOM      3  C   UNL     1       2.996   4.826  18.655  0.00  0.00    +0.000 A 
ATOM      4  C   UNL     1       1.964   4.570  19.581  0.00  0.00    +0.000 A 
ATOM      5  C   UNL     1       2.037   3.549  20.525  0.00  0.00    +0.000 A 
ATOM      6  C   UNL     1       3.167   2.751  20.575  0.00  0.00    +0.000 A 
ATOM      7  C   UNL     1       4.225   3.001  19.708  0.00  0.00    +0.000 A 
ATOM      8  C   UNL     1       4.186   4.050  18.760  0.00  0.00    +0.000 A 
BRANCH   8   9
ATOM      9  C   UNL     1       5.373   4.291  17.932  0.00  0.00    +0.000 A 
ATOM     10  N   UNL     1       6.627   4.534  18.262  0.00  0.00    +0.000 NA
ATOM     11  N   UNL     1       7.340   4.624  17.076  0.00  0.00    +0.000 NA
ATOM     12  C   UNL     1       6.475   4.443  16.097  0.00  0.00    +0.000 A 
ATOM     13  O   UNL     1       5.202   4.234  16.566  0.00  0.00    +0.000 OA
BRANCH  12  14
ATOM     14  C   UNL     1       6.670   4.433  14.649  0.00  0.00    +0.000 A 
ATOM     15  C   UNL     1       5.915   3.562  13.845  0.00  0.00    +0.000 A 
ATOM     16  C   UNL     1       6.107   3.511  12.459  0.00  0.00    +0.000 A 
ATOM     17  C   UNL     1       7.060   4.329  11.855  0.00  0.00    +0.000 A 
ATOM     18  C   UNL     1       7.807   5.210  12.633  0.00  0.00    +0.000 A 
ATOM     19  C   UNL     1       7.612   5.263  14.019  0.00  0.00    +0.000 A 
ENDBRANCH  12  14
ENDBRANCH   8   9
ENDBRANCH   1   3
BRANCH   1  20
ATOM     20  C   UNL     1       3.304   7.254  18.158  0.00  0.00    +0.000 C 
BRANCH  20  23
ATOM     21  N   UNL     1       0.510   9.413  19.025  0.00  0.00    +0.000 N 
ATOM     22  C   UNL     1       1.409   9.012  18.078  0.00  0.00    +0.000 A 
ATOM     23  C   UNL     1       2.239   8.131  18.732  0.00  0.00    +0.000 A 
ATOM     24  N   UNL     1       1.929   8.141  20.064  0.00  0.00    +0.000 NA
ATOM     25  N   UNL     1       0.878   8.936  20.233  0.00  0.00    +0.000 NA
BRANCH  21  29
ATOM     26  C   UNL     1      -3.025  11.633  18.377  0.00  0.00    +0.000 A 
ATOM     27  C   UNL     1      -2.755  10.478  17.642  0.00  0.00    +0.000 A 
ATOM     28  C   UNL     1      -1.583   9.753  17.861  0.00  0.00    +0.000 A 
ATOM     29  C   UNL     1      -0.641  10.194  18.807  0.00  0.00    +0.000 A 
ATOM     30  C   UNL     1      -0.905  11.369  19.517  0.00  0.00    +0.000 A 
ATOM     31  C   UNL     1      -2.102  12.075  19.323  0.00  0.00    +0.000 A 
BRANCH  30  32
ATOM     32  N   UNL     1      -0.052  11.859  20.588  0.00  0.00    +0.000 N 
ATOM     33  O   UNL     1      -0.448  11.698  21.748  0.00  0.00    +0.000 OA
ATOM     34  O   UNL     1       0.949  12.507  20.243  0.00  0.00    +0.000 OA
ENDBRANCH  30  32
BRANCH  26  36
ATOM     35  C   UNL     1      -4.982  11.643  17.045  0.00  0.00    +0.000 C 
ATOM     36  O   UNL     1      -4.219  12.235  18.090  0.00  0.00    +0.000 OA
ENDBRANCH  26  36
ENDBRANCH  21  29
ENDBRANCH  20  23
ENDBRANCH   1  20
TORSDOF 8
ENDMDL
MODEL 2
REMARK VINA RESULT:      -9.0      2.104      2.625
REMARK  Name = 
REMARK  9 active torsions:
REMARK  status: ('A' for Active; 'I' for Inactive)
REMARK    1  A    between atoms: C_1  and  O_2
REMARK    2  A    between atoms: O_2  and  C_3
REMARK    3  A    between atoms: C_6  and  N_7
REMARK    4  A    between atoms: C_9  and  C_10
REMARK    5  A    between atoms: C_10  and  N_11
REMARK    6  A    between atoms: N_11  and  C_12
REMARK    7  A    between atoms: C_17  and  C_18
REMARK    8  A    between atoms: C_21  and  C_22
REMARK    9  A    between atoms: C_31  and  N_32
REMARK                            x       y       z     vdW  Elec       q    Type
REMARK                         _______ _______ _______ _____ _____    ______ ____
ROOT
ATOM      1  N   UNL     1       3.193   6.168  19.623  0.00  0.00    +0.000 N 
ATOM      2  H   UNL     1       4.115   6.210  20.061  0.00  0.00    +0.000 HD
ENDROOT
BRANCH   1   3
ATOM      3  C   UNL     1       2.689   4.869  19.469  0.00  0.00    +0.000 A 
ATOM      4  C   UNL     1       1.531   4.472  20.170  0.00  0.00    +0.000 A 
ATOM      5  C   UNL     1       1.008   3.185  20.092  0.00  0.00    +0.000 A 
ATOM      6  C   UNL     1       1.645   2.241  19.304  0.00  0.00    +0.000 A 
ATOM      7  C   UNL     1       2.814   2.581  18.633  0.00  0.00    +0.000 A 
ATOM      8  C   UNL     1       3.380   3.874  18.720  0.00  0.00    +0.000 A 
BRANCH   8   9
ATOM      9  C   UNL     1       4.654   4.128  18.037  0.00  0.00    +0.000 A 
ATOM     10  N   UNL     1       5.862   4.359  18.512  0.00  0.00    +0.000 NA
ATOM     11  N   UNL     1       6.705   4.473  17.417  0.00  0.00    +0.000 NA
ATOM     12  C   UNL     1       5.956   4.318  16.342  0.00  0.00    +0.000 A 
ATOM     13  O   UNL     1       4.638   4.104  16.660  0.00  0.00    +0.000 OA
BRANCH  12  14
ATOM     14  C   UNL     1       6.314   4.340  14.926  0.00  0.00    +0.000 A 
ATOM     15  C   UNL     1       5.591   3.561  14.007  0.00  0.00    +0.000 A 
ATOM     16  C   UNL     1       5.936   3.541  12.650  0.00  0.00    +0.000 A 
ATOM     17  C   UNL     1       7.010   4.299  12.191  0.00  0.00    +0.000 A 
ATOM     18  C   UNL     1       7.729   5.090  13.084  0.00  0.00    +0.000 A 
ATOM     19  C   UNL     1       7.382   5.113  14.440  0.00  0.00    +0.000 A 
ENDBRANCH  12  14
ENDBRANCH   8   9
ENDBRANCH   1   3
BRANCH   1  20
ATOM     20  C   UNL     1       3.011   7.171  18.555  0.00  0.00    +0.000 C 
BRANCH  20  23
ATOM     21  N   UNL     1       0.753   9.774  19.712  0.00  0.00    +0.000 N 
ATOM     22  C   UNL     1       1.517   8.685  20.024  0.00  0.00    +0.000 A 
ATOM     23  C   UNL     1       1.993   8.233  18.815  0.00  0.00    +0.000 A 
ATOM     24  N   UNL     1       1.394   8.943  17.812  0.00  0.00    +0.000 NA
ATOM     25  N   UNL     1       0.630   9.875  18.371  0.00  0.00    +0.000 NA
BRANCH  21  29
ATOM     26  C   UNL     1      -0.912  12.415  22.558  0.00  0.00    +0.000 A 
ATOM     27  C   UNL     1      -1.014  11.032  22.713  0.00  0.00    +0.000 A 
ATOM     28  C   UNL     1      -0.462  10.167  21.765  0.00  0.00    +0.000 A 
ATOM     29  C   UNL     1       0.177  10.680  20.623  0.00  0.00    +0.000 A 
ATOM     30  C   UNL     1       0.247  12.067  20.460  0.00  0.00    +0.000 A 
ATOM     31  C   UNL     1      -0.273  12.934  21.433  0.00  0.00    +0.000 A 
BRANCH  30  32
ATOM     32  N   UNL     1       0.973  12.703  19.373  0.00  0.00    +0.000 N 
ATOM     33  O   UNL     1       0.314  13.090  18.401  0.00  0.00    +0.000 OA
ATOM     34  O   UNL     1       2.211  12.695  19.458  0.00  0.00    +0.000 OA
ENDBRANCH  30  32
BRANCH  26  36
ATOM     35  C   UNL     1      -1.104  14.527  23.609  0.00  0.00    +0.000 C 
ATOM     36  O   UNL     1      -1.465  13.151  23.568  0.00  0.00    +0.000 OA
ENDBRANCH  26  36
ENDBRANCH  21  29
ENDBRANCH  20  23
ENDBRANCH   1  20
TORSDOF 8
ENDMDL
MODEL 3
REMARK VINA RESULT:      -8.9      0.850      1.272
REMARK  Name = 
REMARK  9 active torsions:
REMARK  status: ('A' for Active; 'I' for Inactive)
REMARK    1  A    between atoms: C_1  and  O_2
REMARK    2  A    between atoms: O_2  and  C_3
REMARK    3  A    between atoms: C_6  and  N_7
REMARK    4  A    between atoms: C_9  and  C_10
REMARK    5  A    between atoms: C_10  and  N_11
REMARK    6  A    between atoms: N_11  and  C_12
REMARK    7  A    between atoms: C_17  and  C_18
REMARK    8  A    between atoms: C_21  and  C_22
REMARK    9  A    between atoms: C_31  and  N_32
REMARK                            x       y       z     vdW  Elec       q    Type
REMARK                         _______ _______ _______ _____ _____    ______ ____
ROOT
ATOM      1  N   UNL     1       2.494   5.624  17.847  0.00  0.00    +0.000 N 
ATOM      2  H   UNL     1       1.576   5.640  17.398  0.00  0.00    +0.000 HD
ENDROOT
BRANCH   1   3
ATOM      3  C   UNL     1       2.650   4.608  18.800  0.00  0.00    +0.000 A 
ATOM      4  C   UNL     1       1.604   4.319  19.702  0.00  0.00    +0.000 A 
ATOM      5  C   UNL     1       1.714   3.353  20.697  0.00  0.00    +0.000 A 
ATOM      6  C   UNL     1       2.897   2.644  20.827  0.00  0.00    +0.000 A 
ATOM      7  C   UNL     1       3.966   2.931  19.986  0.00  0.00    +0.000 A 
ATOM      8  C   UNL     1       3.888   3.928  18.986  0.00  0.00    +0.000 A 
BRANCH   8   9
ATOM      9  C   UNL     1       5.085   4.217  18.189  0.00  0.00    +0.000 A 
ATOM     10  N   UNL     1       6.310   4.546  18.551  0.00  0.00    +0.000 NA
ATOM     11  N   UNL     1       7.056   4.645  17.386  0.00  0.00    +0.000 NA
ATOM     12  C   UNL     1       6.237   4.383  16.386  0.00  0.00    +0.000 A 
ATOM     13  O   UNL     1       4.964   4.111  16.821  0.00  0.00    +0.000 OA
BRANCH  12  14
ATOM     14  C   UNL     1       6.481   4.343  14.946  0.00  0.00    +0.000 A 
ATOM     15  C   UNL     1       7.502   5.129  14.385  0.00  0.00    +0.000 A 
ATOM     16  C   UNL     1       7.733   5.132  13.004  0.00  0.00    +0.000 A 
ATOM     17  C   UNL     1       6.946   4.351  12.162  0.00  0.00    +0.000 A 
ATOM     18  C   UNL     1       5.939   3.553  12.701  0.00  0.00    +0.000 A 
ATOM     19  C   UNL     1       5.710   3.547  14.082  0.00  0.00    +0.000 A 
ENDBRANCH  12  14
ENDBRANCH   8   9
ENDBRANCH   1   3
BRANCH   1  20
ATOM     20  C   UNL     1       3.042   6.971  18.096  0.00  0.00    +0.000 C 
BRANCH  20  23
ATOM     21  N   UNL     1       0.682   9.339  19.525  0.00  0.00    +0.000 N 
ATOM     22  C   UNL     1       1.408   8.946  18.436  0.00  0.00    +0.000 A 
ATOM     23  C   UNL     1       2.177   7.898  18.887  0.00  0.00    +0.000 A 
ATOM     24  N   UNL     1       2.021   7.788  20.241  0.00  0.00    +0.000 NA
ATOM     25  N   UNL     1       1.113   8.681  20.621  0.00  0.00    +0.000 NA
BRANCH  21  29
ATOM     26  C   UNL     1      -2.566  12.040  19.534  0.00  0.00    +0.000 A 
ATOM     27  C   UNL     1      -2.437  11.073  18.537  0.00  0.00    +0.000 A 
ATOM     28  C   UNL     1      -1.358  10.187  18.540  0.00  0.00    +0.000 A 
ATOM     29  C   UNL     1      -0.368  10.276  19.535  0.00  0.00    +0.000 A 
ATOM     30  C   UNL     1      -0.490  11.268  20.513  0.00  0.00    +0.000 A 
ATOM     31  C   UNL     1      -1.595  12.133  20.530  0.00  0.00    +0.000 A 
BRANCH  30  32
ATOM     32  N   UNL     1       0.417  11.384  21.643  0.00  0.00    +0.000 N 
ATOM     33  O   UNL     1       0.031  10.938  22.729  0.00  0.00    +0.000 OA
ATOM     34  O   UNL     1       1.458  12.033  21.451  0.00  0.00    +0.000 OA
ENDBRANCH  30  32
BRANCH  26  36
ATOM     35  C   UNL     1      -4.463  12.953  20.617  0.00  0.00    +0.000 C 
ATOM     36  O   UNL     1      -3.681  12.826  19.435  0.00  0.00    +0.000 OA
ENDBRANCH  26  36
ENDBRANCH  21  29
ENDBRANCH  20  23
ENDBRANCH   1  20
TORSDOF 8
ENDMDL
MODEL 4
REMARK VINA RESULT:      -8.9      2.154      2.706
REMARK  Name = 
REMARK  9 active torsions:
REMARK  status: ('A' for Active; 'I' for Inactive)
REMARK    1  A    between atoms: C_1  and  O_2
REMARK    2  A    between atoms: O_2  and  C_3
REMARK    3  A    between atoms: C_6  and  N_7
REMARK    4  A    between atoms: C_9  and  C_10
REMARK    5  A    between atoms: C_10  and  N_11
REMARK    6  A    between atoms: N_11  and  C_12
REMARK    7  A    between atoms: C_17  and  C_18
REMARK    8  A    between atoms: C_21  and  C_22
REMARK    9  A    between atoms: C_31  and  N_32
REMARK                            x       y       z     vdW  Elec       q    Type
REMARK                         _______ _______ _______ _____ _____    ______ ____
ROOT
ATOM      1  N   UNL     1       3.181   6.325  19.631  0.00  0.00    +0.000 N 
ATOM      2  H   UNL     1       4.129   6.427  19.998  0.00  0.00    +0.000 HD
ENDROOT
BRANCH   1   3
ATOM      3  C   UNL     1       2.711   5.004  19.613  0.00  0.00    +0.000 A 
ATOM      4  C   UNL     1       1.568   4.650  20.360  0.00  0.00    +0.000 A 
ATOM      5  C   UNL     1       1.079   3.348  20.416  0.00  0.00    +0.000 A 
ATOM      6  C   UNL     1       1.736   2.346  19.722  0.00  0.00    +0.000 A 
ATOM      7  C   UNL     1       2.892   2.647  19.011  0.00  0.00    +0.000 A 
ATOM      8  C   UNL     1       3.424   3.956  18.963  0.00  0.00    +0.000 A 
BRANCH   8   9
ATOM      9  C   UNL     1       4.687   4.174  18.248  0.00  0.00    +0.000 A 
ATOM     10  N   UNL     1       5.909   4.397  18.692  0.00  0.00    +0.000 NA
ATOM     11  N   UNL     1       6.730   4.470  17.577  0.00  0.00    +0.000 NA
ATOM     12  C   UNL     1       5.957   4.300  16.522  0.00  0.00    +0.000 A 
ATOM     13  O   UNL     1       4.642   4.115  16.872  0.00  0.00    +0.000 OA
BRANCH  12  14
ATOM     14  C   UNL     1       6.285   4.282  15.099  0.00  0.00    +0.000 A 
ATOM     15  C   UNL     1       7.372   5.033  14.619  0.00  0.00    +0.000 A 
ATOM     16  C   UNL     1       7.686   5.056  13.255  0.00  0.00    +0.000 A 
ATOM     17  C   UNL     1       6.917   4.331  12.348  0.00  0.00    +0.000 A 
ATOM     18  C   UNL     1       5.846   3.567  12.806  0.00  0.00    +0.000 A 
ATOM     19  C   UNL     1       5.534   3.541  14.171  0.00  0.00    +0.000 A 
ENDBRANCH  12  14
ENDBRANCH   8   9
ENDBRANCH   1   3
BRANCH   1  20
ATOM     20  C   UNL     1       2.893   7.235  18.506  0.00  0.00    +0.000 C 
BRANCH  20  23
ATOM     21  N   UNL     1       0.745   9.919  19.688  0.00  0.00    +0.000 N 
ATOM     22  C   UNL     1       1.480   8.808  19.993  0.00  0.00    +0.000 A 
ATOM     23  C   UNL     1       1.916   8.331  18.778  0.00  0.00    +0.000 A 
ATOM     24  N   UNL     1       1.319   9.053  17.782  0.00  0.00    +0.000 NA
ATOM     25  N   UNL     1       0.598  10.014  18.350  0.00  0.00    +0.000 NA
BRANCH  21  29
ATOM     26  C   UNL     1      -0.780  12.629  22.547  0.00  0.00    +0.000 A 
ATOM     27  C   UNL     1      -0.969  11.254  22.686  0.00  0.00    +0.000 A 
ATOM     28  C   UNL     1      -0.464  10.366  21.734  0.00  0.00    +0.000 A 
ATOM     29  C   UNL     1       0.218  10.849  20.604  0.00  0.00    +0.000 A 
ATOM     30  C   UNL     1       0.377  12.231  20.457  0.00  0.00    +0.000 A 
ATOM     31  C   UNL     1      -0.098  13.118  21.434  0.00  0.00    +0.000 A 
BRANCH  30  32
ATOM     32  N   UNL     1       1.152  12.831  19.384  0.00  0.00    +0.000 N 
ATOM     33  O   UNL     1       2.378  12.888  19.532  0.00  0.00    +0.000 OA
ATOM     34  O   UNL     1       0.505  13.347  18.459  0.00  0.00    +0.000 OA
ENDBRANCH  30  32
BRANCH  26  36
ATOM     35  C   UNL     1      -2.712  13.516  23.587  0.00  0.00    +0.000 C 
ATOM     36  O   UNL     1      -1.295  13.388  23.560  0.00  0.00    +0.000 OA
ENDBRANCH  26  36
ENDBRANCH  21  29
ENDBRANCH  20  23
ENDBRANCH   1  20
TORSDOF 8
ENDMDL
MODEL 5
REMARK VINA RESULT:      -8.9      0.957      1.210
REMARK  Name = 
REMARK  9 active torsions:
REMARK  status: ('A' for Active; 'I' for Inactive)
REMARK    1  A    between atoms: C_1  and  O_2
REMARK    2  A    between atoms: O_2  and  C_3
REMARK    3  A    between atoms: C_6  and  N_7
REMARK    4  A    between atoms: C_9  and  C_10
REMARK    5  A    between atoms: C_10  and  N_11
REMARK    6  A    between atoms: N_11  and  C_12
REMARK    7  A    between atoms: C_17  and  C_18
REMARK    8  A    between atoms: C_21  and  C_22
REMARK    9  A    between atoms: C_31  and  N_32
REMARK                            x       y       z     vdW  Elec       q    Type
REMARK                         _______ _______ _______ _____ _____    ______ ____
ROOT
ATOM      1  N   UNL     1       2.813   5.902  18.045  0.00  0.00    +0.000 N 
ATOM      2  H   UNL     1       1.958   5.962  17.488  0.00  0.00    +0.000 HD
ENDROOT
BRANCH   1   3
ATOM      3  C   UNL     1       2.890   4.761  18.857  0.00  0.00    +0.000 A 
ATOM      4  C   UNL     1       1.849   4.467  19.762  0.00  0.00    +0.000 A 
ATOM      5  C   UNL     1       1.888   3.374  20.624  0.00  0.00    +0.000 A 
ATOM      6  C   UNL     1       2.993   2.539  20.611  0.00  0.00    +0.000 A 
ATOM      7  C   UNL     1       4.060   2.823  19.765  0.00  0.00    +0.000 A 
ATOM      8  C   UNL     1       4.055   3.943  18.902  0.00  0.00    +0.000 A 
BRANCH   8   9
ATOM      9  C   UNL     1       5.251   4.209  18.094  0.00  0.00    +0.000 A 
ATOM     10  N   UNL     1       6.494   4.476  18.444  0.00  0.00    +0.000 NA
ATOM     11  N   UNL     1       7.224   4.583  17.271  0.00  0.00    +0.000 NA
ATOM     12  C   UNL     1       6.379   4.388  16.277  0.00  0.00    +0.000 A 
ATOM     13  O   UNL     1       5.103   4.153  16.725  0.00  0.00    +0.000 OA
BRANCH  12  14
ATOM     14  C   UNL     1       6.598   4.386  14.833  0.00  0.00    +0.000 A 
ATOM     15  C   UNL     1       5.834   3.543  14.008  0.00  0.00    +0.000 A 
ATOM     16  C   UNL     1       6.048   3.500  12.625  0.00  0.00    +0.000 A 
ATOM     17  C   UNL     1       7.031   4.298  12.045  0.00  0.00    +0.000 A 
ATOM     18  C   UNL     1       7.788   5.152  12.844  0.00  0.00    +0.000 A 
ATOM     19  C   UNL     1       7.571   5.198  14.226  0.00  0.00    +0.000 A 
ENDBRANCH  12  14
ENDBRANCH   8   9
ENDBRANCH   1   3
BRANCH   1  20
ATOM     20  C   UNL     1       3.269   7.211  18.551  0.00  0.00    +0.000 C 
BRANCH  20  23
ATOM     21  N   UNL     1       0.823   9.895  18.387  0.00  0.00    +0.000 N 
ATOM     22  C   UNL     1       1.127   8.634  18.816  0.00  0.00    +0.000 A 
ATOM     23  C   UNL     1       2.368   8.372  18.282  0.00  0.00    +0.000 A 
ATOM     24  N   UNL     1       2.707   9.390  17.435  0.00  0.00    +0.000 NA
ATOM     25  N   UNL     1       1.751  10.310  17.499  0.00  0.00    +0.000 NA
BRANCH  21  29
ATOM     26  C   UNL     1      -2.556  12.114  19.611  0.00  0.00    +0.000 A 
ATOM     27  C   UNL     1      -2.614  11.267  18.505  0.00  0.00    +0.000 A 
ATOM     28  C   UNL     1      -1.491  10.540  18.106  0.00  0.00    +0.000 A 
ATOM     29  C   UNL     1      -0.274  10.675  18.798  0.00  0.00    +0.000 A 
ATOM     30  C   UNL     1      -0.217  11.551  19.887  0.00  0.00    +0.000 A 
ATOM     31  C   UNL     1      -1.357  12.251  20.309  0.00  0.00    +0.000 A 
BRANCH  30  32
ATOM     32  N   UNL     1       0.956  11.689  20.733  0.00  0.00    +0.000 N 
ATOM     33  O   UNL     1       1.807  12.518  20.391  0.00  0.00    +0.000 OA
ATOM     34  O   UNL     1       1.064  10.877  21.665  0.00  0.00    +0.000 OA
ENDBRANCH  30  32
BRANCH  26  36
ATOM     35  C   UNL     1      -4.896  12.244  19.274  0.00  0.00    +0.000 C 
ATOM     36  O   UNL     1      -3.729  12.746  19.917  0.00  0.00    +0.000 OA
ENDBRANCH  26  36
ENDBRANCH  21  29
ENDBRANCH  20  23
ENDBRANCH   1  20
TORSDOF 8
ENDMDL
MODEL 6
REMARK VINA RESULT:      -8.9      2.201      3.073
REMARK  Name = 
REMARK  9 active torsions:
REMARK  status: ('A' for Active; 'I' for Inactive)
REMARK    1  A    between atoms: C_1  and  O_2
REMARK    2  A    between atoms: O_2  and  C_3
REMARK    3  A    between atoms: C_6  and  N_7
REMARK    4  A    between atoms: C_9  and  C_10
REMARK    5  A    between atoms: C_10  and  N_11
REMARK    6  A    between atoms: N_11  and  C_12
REMARK    7  A    between atoms: C_17  and  C_18
REMARK    8  A    between atoms: C_21  and  C_22
REMARK    9  A    between atoms: C_31  and  N_32
REMARK                            x       y       z     vdW  Elec       q    Type
REMARK                         _______ _______ _______ _____ _____    ______ ____
ROOT
ATOM      1  N   UNL     1       2.901   6.210  19.528  0.00  0.00    +0.000 N 
ATOM      2  H   UNL     1       3.448   6.603  18.760  0.00  0.00    +0.000 HD
ENDROOT
BRANCH   1   3
ATOM      3  C   UNL     1       2.455   4.900  19.303  0.00  0.00    +0.000 A 
ATOM      4  C   UNL     1       1.322   4.412  19.988  0.00  0.00    +0.000 A 
ATOM      5  C   UNL     1       0.857   3.108  19.840  0.00  0.00    +0.000 A 
ATOM      6  C   UNL     1       1.529   2.240  18.997  0.00  0.00    +0.000 A 
ATOM      7  C   UNL     1       2.676   2.670  18.339  0.00  0.00    +0.000 A 
ATOM      8  C   UNL     1       3.184   3.981  18.496  0.00  0.00    +0.000 A 
BRANCH   8   9
ATOM      9  C   UNL     1       4.439   4.331  17.821  0.00  0.00    +0.000 A 
ATOM     10  N   UNL     1       5.577   4.801  18.294  0.00  0.00    +0.000 NA
ATOM     11  N   UNL     1       6.447   4.895  17.218  0.00  0.00    +0.000 NA
ATOM     12  C   UNL     1       5.782   4.488  16.154  0.00  0.00    +0.000 A 
ATOM     13  O   UNL     1       4.494   4.122  16.460  0.00  0.00    +0.000 OA
BRANCH  12  14
ATOM     14  C   UNL     1       6.201   4.376  14.759  0.00  0.00    +0.000 A 
ATOM     15  C   UNL     1       7.333   5.076  14.308  0.00  0.00    +0.000 A 
ATOM     16  C   UNL     1       7.735   5.011  12.969  0.00  0.00    +0.000 A 
ATOM     17  C   UNL     1       7.011   4.245  12.058  0.00  0.00    +0.000 A 
ATOM     18  C   UNL     1       5.895   3.531  12.489  0.00  0.00    +0.000 A 
ATOM     19  C   UNL     1       5.496   3.594  13.830  0.00  0.00    +0.000 A 
ENDBRANCH  12  14
ENDBRANCH   8   9
ENDBRANCH   1   3
BRANCH   1  20
ATOM     20  C   UNL     1       2.017   7.198  20.176  0.00  0.00    +0.000 C 
BRANCH  20  23
ATOM     21  N   UNL     1       1.376  10.493  18.780  0.00  0.00    +0.000 N 
ATOM     22  C   UNL     1       1.289   9.659  19.859  0.00  0.00    +0.000 A 
ATOM     23  C   UNL     1       1.736   8.442  19.397  0.00  0.00    +0.000 A 
ATOM     24  N   UNL     1       1.926   8.526  18.046  0.00  0.00    +0.000 NA
ATOM     25  N   UNL     1       1.693   9.781  17.678  0.00  0.00    +0.000 NA
BRANCH  21  29
ATOM     26  C   UNL     1       0.902  14.690  18.691  0.00  0.00    +0.000 A 
ATOM     27  C   UNL     1       2.167  14.110  18.801  0.00  0.00    +0.000 A 
ATOM     28  C   UNL     1       2.313  12.722  18.832  0.00  0.00    +0.000 A 
ATOM     29  C   UNL     1       1.183  11.887  18.785  0.00  0.00    +0.000 A 
ATOM     30  C   UNL     1      -0.083  12.477  18.706  0.00  0.00    +0.000 A 
ATOM     31  C   UNL     1      -0.225  13.872  18.635  0.00  0.00    +0.000 A 
BRANCH  30  32
ATOM     32  N   UNL     1      -1.307  11.711  18.548  0.00  0.00    +0.000 N 
ATOM     33  O   UNL     1      -1.816  11.679  17.422  0.00  0.00    +0.000 OA
ATOM     34  O   UNL     1      -1.808  11.250  19.587  0.00  0.00    +0.000 OA
ENDBRANCH  30  32
BRANCH  26  36
ATOM     35  C   UNL     1       2.157  16.694  18.797  0.00  0.00    +0.000 C 
ATOM     36  O   UNL     1       0.895  16.056  18.640  0.00  0.00    +0.000 OA
ENDBRANCH  26  36
ENDBRANCH  21  29
ENDBRANCH  20  23
ENDBRANCH   1  20
TORSDOF 8
ENDMDL
MODEL 7
REMARK VINA RESULT:      -8.8      1.245      1.671
REMARK  Name = 
REMARK  9 active torsions:
REMARK  status: ('A' for Active; 'I' for Inactive)
REMARK    1  A    between atoms: C_1  and  O_2
REMARK    2  A    between atoms: O_2  and  C_3
REMARK    3  A    between atoms: C_6  and  N_7
REMARK    4  A    between atoms: C_9  and  C_10
REMARK    5  A    between atoms: C_10  and  N_11
REMARK    6  A    between atoms: N_11  and  C_12
REMARK    7  A    between atoms: C_17  and  C_18
REMARK    8  A    between atoms: C_21  and  C_22
REMARK    9  A    between atoms: C_31  and  N_32
REMARK                            x       y       z     vdW  Elec       q    Type
REMARK                         _______ _______ _______ _____ _____    ______ ____
ROOT
ATOM      1  N   UNL     1       3.019   6.498  19.617  0.00  0.00    +0.000 N 
ATOM      2  H   UNL     1       3.867   6.805  20.098  0.00  0.00    +0.000 HD
ENDROOT
BRANCH   1   3
ATOM      3  C   UNL     1       2.671   5.162  19.862  0.00  0.00    +0.000 A 
ATOM      4  C   UNL     1       1.540   4.860  20.648  0.00  0.00    +0.000 A 
ATOM      5  C   UNL     1       1.168   3.555  20.961  0.00  0.00    +0.000 A 
ATOM      6  C   UNL     1       1.937   2.501  20.498  0.00  0.00    +0.000 A 
ATOM      7  C   UNL     1       3.085   2.760  19.758  0.00  0.00    +0.000 A 
ATOM      8  C   UNL     1       3.498   4.078  19.451  0.00  0.00    +0.000 A 
BRANCH   8   9
ATOM      9  C   UNL     1       4.761   4.265  18.726  0.00  0.00    +0.000 A 
ATOM     10  N   UNL     1       5.994   4.438  19.161  0.00  0.00    +0.000 NA
ATOM     11  N   UNL     1       6.806   4.504  18.039  0.00  0.00    +0.000 NA
ATOM     12  C   UNL     1       6.016   4.380  16.990  0.00  0.00    +0.000 A 
ATOM     13  O   UNL     1       4.700   4.233  17.351  0.00  0.00    +0.000 OA
BRANCH  12  14
ATOM     14  C   UNL     1       6.329   4.376  15.563  0.00  0.00    +0.000 A 
ATOM     15  C   UNL     1       7.394   5.153  15.075  0.00  0.00    +0.000 A 
ATOM     16  C   UNL     1       7.693   5.191  13.708  0.00  0.00    +0.000 A 
ATOM     17  C   UNL     1       6.929   4.454  12.806  0.00  0.00    +0.000 A 
ATOM     18  C   UNL     1       5.879   3.666  13.271  0.00  0.00    +0.000 A 
ATOM     19  C   UNL     1       5.584   3.625  14.639  0.00  0.00    +0.000 A 
ENDBRANCH  12  14
ENDBRANCH   8   9
ENDBRANCH   1   3
BRANCH   1  20
ATOM     20  C   UNL     1       2.882   7.068  18.262  0.00  0.00    +0.000 C 
BRANCH  20  23
ATOM     21  N   UNL     1       0.783  10.030  18.455  0.00  0.00    +0.000 N 
ATOM     22  C   UNL     1       0.897   8.681  18.638  0.00  0.00    +0.000 A 
ATOM     23  C   UNL     1       2.150   8.367  18.165  0.00  0.00    +0.000 A 
ATOM     24  N   UNL     1       2.689   9.477  17.576  0.00  0.00    +0.000 NA
ATOM     25  N   UNL     1       1.840  10.484  17.749  0.00  0.00    +0.000 NA
BRANCH  21  29
ATOM     26  C   UNL     1      -2.437  12.387  19.840  0.00  0.00    +0.000 A 
ATOM     27  C   UNL     1      -2.515  11.705  18.626  0.00  0.00    +0.000 A 
ATOM     28  C   UNL     1      -1.444  10.931  18.175  0.00  0.00    +0.000 A 
ATOM     29  C   UNL     1      -0.258  10.852  18.926  0.00  0.00    +0.000 A 
ATOM     30  C   UNL     1      -0.178  11.564  20.127  0.00  0.00    +0.000 A 
ATOM     31  C   UNL     1      -1.269  12.311  20.596  0.00  0.00    +0.000 A 
BRANCH  30  32
ATOM     32  N   UNL     1       0.958  11.473  21.029  0.00  0.00    +0.000 N 
ATOM     33  O   UNL     1       0.927  10.588  21.892  0.00  0.00    +0.000 OA
ATOM     34  O   UNL     1       1.811  12.370  20.935  0.00  0.00    +0.000 OA
ENDBRANCH  30  32
BRANCH  26  36
ATOM     35  C   UNL     1      -4.796  12.395  20.031  0.00  0.00    +0.000 C 
ATOM     36  O   UNL     1      -3.561  13.085  20.183  0.00  0.00    +0.000 OA
ENDBRANCH  26  36
ENDBRANCH  21  29
ENDBRANCH  20  23
ENDBRANCH   1  20
TORSDOF 8
ENDMDL
MODEL 8
REMARK VINA RESULT:      -8.8      1.717      2.611
REMARK  Name = 
REMARK  9 active torsions:
REMARK  status: ('A' for Active; 'I' for Inactive)
REMARK    1  A    between atoms: C_1  and  O_2
REMARK    2  A    between atoms: O_2  and  C_3
REMARK    3  A    between atoms: C_6  and  N_7
REMARK    4  A    between atoms: C_9  and  C_10
REMARK    5  A    between atoms: C_10  and  N_11
REMARK    6  A    between atoms: N_11  and  C_12
REMARK    7  A    between atoms: C_17  and  C_18
REMARK    8  A    between atoms: C_21  and  C_22
REMARK    9  A    between atoms: C_31  and  N_32
REMARK                            x       y       z     vdW  Elec       q    Type
REMARK                         _______ _______ _______ _____ _____    ______ ____
ROOT
ATOM      1  N   UNL     1       2.978   6.131  19.769  0.00  0.00    +0.000 N 
ATOM      2  H   UNL     1       3.794   6.200  20.380  0.00  0.00    +0.000 HD
ENDROOT
BRANCH   1   3
ATOM      3  C   UNL     1       2.487   4.827  19.610  0.00  0.00    +0.000 A 
ATOM      4  C   UNL     1       1.318   4.424  20.289  0.00  0.00    +0.000 A 
ATOM      5  C   UNL     1       0.807   3.132  20.205  0.00  0.00    +0.000 A 
ATOM      6  C   UNL     1       1.468   2.190  19.434  0.00  0.00    +0.000 A 
ATOM      7  C   UNL     1       2.647   2.537  18.786  0.00  0.00    +0.000 A 
ATOM      8  C   UNL     1       3.201   3.835  18.879  0.00  0.00    +0.000 A 
BRANCH   8   9
ATOM      9  C   UNL     1       4.487   4.097  18.222  0.00  0.00    +0.000 A 
ATOM     10  N   UNL     1       5.687   4.324  18.720  0.00  0.00    +0.000 NA
ATOM     11  N   UNL     1       6.549   4.449  17.642  0.00  0.00    +0.000 NA
ATOM     12  C   UNL     1       5.820   4.302  16.553  0.00  0.00    +0.000 A 
ATOM     13  O   UNL     1       4.496   4.084  16.844  0.00  0.00    +0.000 OA
BRANCH  12  14
ATOM     14  C   UNL     1       6.203   4.337  15.143  0.00  0.00    +0.000 A 
ATOM     15  C   UNL     1       5.430   3.655  14.188  0.00  0.00    +0.000 A 
ATOM     16  C   UNL     1       5.796   3.647  12.837  0.00  0.00    +0.000 A 
ATOM     17  C   UNL     1       6.941   4.320  12.419  0.00  0.00    +0.000 A 
ATOM     18  C   UNL     1       7.712   5.015  13.348  0.00  0.00    +0.000 A 
ATOM     19  C   UNL     1       7.344   5.026  14.699  0.00  0.00    +0.000 A 
ENDBRANCH  12  14
ENDBRANCH   8   9
ENDBRANCH   1   3
BRANCH   1  20
ATOM     20  C   UNL     1       3.035   7.052  18.617  0.00  0.00    +0.000 C 
BRANCH  20  23
ATOM     21  N   UNL     1       0.797   9.829  19.321  0.00  0.00    +0.000 N 
ATOM     22  C   UNL     1       1.215   8.571  19.651  0.00  0.00    +0.000 A 
ATOM     23  C   UNL     1       2.131   8.240  18.678  0.00  0.00    +0.000 A 
ATOM     24  N   UNL     1       2.127   9.215  17.720  0.00  0.00    +0.000 NA
ATOM     25  N   UNL     1       1.299  10.176  18.118  0.00  0.00    +0.000 NA
BRANCH  21  29
ATOM     26  C   UNL     1      -1.547  12.424  21.691  0.00  0.00    +0.000 A 
ATOM     27  C   UNL     1      -0.353  11.889  22.175  0.00  0.00    +0.000 A 
ATOM     28  C   UNL     1       0.413  11.030  21.385  0.00  0.00    +0.000 A 
ATOM     29  C   UNL     1      -0.025  10.666  20.099  0.00  0.00    +0.000 A 
ATOM     30  C   UNL     1      -1.238  11.183  19.635  0.00  0.00    +0.000 A 
ATOM     31  C   UNL     1      -1.988  12.076  20.415  0.00  0.00    +0.000 A 
BRANCH  30  32
ATOM     32  N   UNL     1      -1.733  10.955  18.287  0.00  0.00    +0.000 N 
ATOM     33  O   UNL     1      -1.723  11.916  17.509  0.00  0.00    +0.000 OA
ATOM     34  O   UNL     1      -2.240   9.844  18.065  0.00  0.00    +0.000 OA
ENDBRANCH  30  32
BRANCH  26  36
ATOM     35  C   UNL     1      -1.353  14.103  23.348  0.00  0.00    +0.000 C 
ATOM     36  O   UNL     1      -2.189  13.274  22.548  0.00  0.00    +0.000 OA
ENDBRANCH  26  36
ENDBRANCH  21  29
ENDBRANCH  20  23
ENDBRANCH   1  20
TORSDOF 8
ENDMDL
MODEL 9
REMARK VINA RESULT:      -8.8      3.024      9.799
REMARK  Name = 
REMARK  9 active torsions:
REMARK  status: ('A' for Active; 'I' for Inactive)
REMARK    1  A    between atoms: C_1  and  O_2
REMARK    2  A    between atoms: O_2  and  C_3
REMARK    3  A    between atoms: C_6  and  N_7
REMARK    4  A    between atoms: C_9  and  C_10
REMARK    5  A    between atoms: C_10  and  N_11
REMARK    6  A    between atoms: N_11  and  C_12
REMARK    7  A    between atoms: C_17  and  C_18
REMARK    8  A    between atoms: C_21  and  C_22
REMARK    9  A    between atoms: C_31  and  N_32
REMARK                            x       y       z     vdW  Elec       q    Type
REMARK                         _______ _______ _______ _____ _____    ______ ____
ROOT
ATOM      1  N   UNL     1       0.233  10.459  18.060  0.00  0.00    +0.000 N 
ATOM      2  H   UNL     1       0.736  11.203  17.572  0.00  0.00    +0.000 HD
ENDROOT
BRANCH   1   3
ATOM      3  C   UNL     1      -1.159  10.622  18.079  0.00  0.00    +0.000 A 
ATOM      4  C   UNL     1      -1.995   9.625  17.534  0.00  0.00    +0.000 A 
ATOM      5  C   UNL     1      -3.380   9.749  17.484  0.00  0.00    +0.000 A 
ATOM      6  C   UNL     1      -3.977  10.898  17.977  0.00  0.00    +0.000 A 
ATOM      7  C   UNL     1      -3.184  11.923  18.481  0.00  0.00    +0.000 A 
ATOM      8  C   UNL     1      -1.773  11.831  18.515  0.00  0.00    +0.000 A 
BRANCH   8   9
ATOM      9  C   UNL     1      -1.008  12.987  18.997  0.00  0.00    +0.000 A 
ATOM     10  N   UNL     1      -1.245  13.839  19.976  0.00  0.00    +0.000 NA
ATOM     11  N   UNL     1      -0.159  14.699  20.027  0.00  0.00    +0.000 NA
ATOM     12  C   UNL     1       0.667  14.327  19.070  0.00  0.00    +0.000 A 
ATOM     13  O   UNL     1       0.189  13.249  18.367  0.00  0.00    +0.000 OA
BRANCH  12  14
ATOM     14  C   UNL     1       1.961  14.873  18.668  0.00  0.00    +0.000 A 
ATOM     15  C   UNL     1       3.096  14.045  18.642  0.00  0.00    +0.000 A 
ATOM     16  C   UNL     1       4.353  14.553  18.292  0.00  0.00    +0.000 A 
ATOM     17  C   UNL     1       4.495  15.899  17.965  0.00  0.00    +0.000 A 
ATOM     18  C   UNL     1       3.380  16.733  17.970  0.00  0.00    +0.000 A 
ATOM     19  C   UNL     1       2.122  16.224  18.316  0.00  0.00    +0.000 A 
ENDBRANCH  12  14
ENDBRANCH   8   9
ENDBRANCH   1   3
BRANCH   1  20
ATOM     20  C   UNL     1       0.943   9.968  19.258  0.00  0.00    +0.000 C 
BRANCH  20  23
ATOM     21  N   UNL     1       2.804   6.954  18.442  0.00  0.00    +0.000 N 
ATOM     22  C   UNL     1       2.132   8.054  17.990  0.00  0.00    +0.000 A 
ATOM     23  C   UNL     1       1.624   8.645  19.124  0.00  0.00    +0.000 A 
ATOM     24  N   UNL     1       1.859   7.824  20.191  0.00  0.00    +0.000 NA
ATOM     25  N   UNL     1       2.571   6.788  19.761  0.00  0.00    +0.000 NA
BRANCH  21  29
ATOM     26  C   UNL     1       5.401   4.465  16.227  0.00  0.00    +0.000 A 
ATOM     27  C   UNL     1       5.686   5.817  16.415  0.00  0.00    +0.000 A 
ATOM     28  C   UNL     1       4.820   6.633  17.146  0.00  0.00    +0.000 A 
ATOM     29  C   UNL     1       3.630   6.108  17.678  0.00  0.00    +0.000 A 
ATOM     30  C   UNL     1       3.336   4.758  17.459  0.00  0.00    +0.000 A 
ATOM     31  C   UNL     1       4.227   3.932  16.757  0.00  0.00    +0.000 A 
BRANCH  30  32
ATOM     32  N   UNL     1       2.189   4.089  18.049  0.00  0.00    +0.000 N 
ATOM     33  O   UNL     1       2.384   3.419  19.069  0.00  0.00    +0.000 OA
ATOM     34  O   UNL     1       1.127   4.148  17.408  0.00  0.00    +0.000 OA
ENDBRANCH  30  32
BRANCH  26  36
ATOM     35  C   UNL     1       6.381   4.017  14.119  0.00  0.00    +0.000 C 
ATOM     36  O   UNL     1       6.341   3.769  15.520  0.00  0.00    +0.000 OA
ENDBRANCH  26  36
ENDBRANCH  21  29
ENDBRANCH  20  23
ENDBRANCH   1  20
TORSDOF 8
ENDMDL
