MODEL 1
REMARK VINA RESULT:      -6.5      0.000      0.000
REMARK  Name = 
REMARK  5 active torsions:
REMARK  status: ('A' for Active; 'I' for Inactive)
REMARK    1  A    between atoms: N_2  and  C_3
REMARK    2  A    between atoms: C_15  and  C_16
REMARK    3  A    between atoms: C_15  and  C_17
REMARK    4  A    between atoms: C_22  and  C_23
REMARK    5  A    between atoms: C_22  and  C_24
REMARK                            x       y       z     vdW  Elec       q    Type
REMARK                         _______ _______ _______ _____ _____    ______ ____
ROOT
ATOM      1  C   UNL     1      -1.038  12.253  18.463  0.00  0.00    +0.000 C 
ATOM      2  C   UNL     1      -2.448  12.415  18.994  0.00  0.00    +0.000 C 
ATOM      3  C   UNL     1      -3.525  12.005  18.307  0.00  0.00    +0.000 C 
ATOM      4  C   UNL     1      -3.713  11.403  16.944  0.00  0.00    +0.000 C 
ATOM      5  O   UNL     1      -2.942  11.441  16.007  0.00  0.00    +0.000 OA
ATOM      6  N   UNL     1      -4.967  10.794  17.002  0.00  0.00    +0.000 N 
ATOM      7  C   UNL     1      -5.592  11.043  18.225  0.00  0.00    +0.000 A 
ATOM      8  C   UNL     1      -6.819  10.638  18.682  0.00  0.00    +0.000 A 
ATOM      9  C   UNL     1      -7.195  11.083  19.958  0.00  0.00    +0.000 A 
ATOM     10  C   UNL     1      -6.343  11.898  20.748  0.00  0.00    +0.000 A 
ATOM     11  C   UNL     1      -5.076  12.267  20.288  0.00  0.00    +0.000 A 
ATOM     12  C   UNL     1      -4.764  11.825  19.025  0.00  0.00    +0.000 A 
ATOM     13  C   UNL     1      -4.047  13.149  20.992  0.00  0.00    +0.000 C 
ATOM     14  C   UNL     1      -4.148  13.030  22.527  0.00  0.00    +0.000 C 
ATOM     15  C   UNL     1      -4.372  14.622  20.631  0.00  0.00    +0.000 C 
ATOM     16  C   UNL     1      -2.558  12.840  20.470  0.00  0.00    +0.000 C 
ATOM     17  C   UNL     1      -1.786  11.809  21.321  0.00  0.00    +0.000 C 
ATOM     18  C   UNL     1      -0.362  11.524  20.797  0.00  0.00    +0.000 C 
ATOM     19 CL   UNL     1       0.361  10.276  21.890  0.00  0.00    +0.000 Cl
ATOM     20  C   UNL     1      -0.301  11.127  19.277  0.00  0.00    +0.000 C 
ATOM     21  C   UNL     1      -1.019   9.764  19.050  0.00  0.00    +0.000 C 
ATOM     22  H   UNL     1      -5.365  10.283  16.230  0.00  0.00    +0.000 HD
ENDROOT
BRANCH   1  24
ATOM     23  C   UNL     1       0.138  14.583  18.660  0.00  0.00    +0.000 C 
ATOM     24  N   UNL     1      -0.375  13.533  18.563  0.00  0.00    +0.000 NA
ENDBRANCH   1  24
BRANCH  20  25
ATOM     25  C   UNL     1       1.151  10.921  18.821  0.00  0.00    +0.000 C 
ATOM     26  C   UNL     1       1.653   9.898  18.116  0.00  0.00    +0.000 C 
ENDBRANCH  20  25
TORSDOF 2
ENDMDL
MODEL 2
REMARK VINA RESULT:      -5.9      1.418      1.988
REMARK  Name = 
REMARK  5 active torsions:
REMARK  status: ('A' for Active; 'I' for Inactive)
REMARK    1  A    between atoms: N_2  and  C_3
REMARK    2  A    between atoms: C_15  and  C_16
REMARK    3  A    between atoms: C_15  and  C_17
REMARK    4  A    between atoms: C_22  and  C_23
REMARK    5  A    between atoms: C_22  and  C_24
REMARK                            x       y       z     vdW  Elec       q    Type
REMARK                         _______ _______ _______ _____ _____    ______ ____
ROOT
ATOM      1  C   UNL     1       0.128  11.437  18.982  0.00  0.00    +0.000 C 
ATOM      2  C   UNL     1      -0.987  12.176  19.692  0.00  0.00    +0.000 C 
ATOM      3  C   UNL     1      -2.228  12.258  19.188  0.00  0.00    +0.000 C 
ATOM      4  C   UNL     1      -2.855  11.794  17.904  0.00  0.00    +0.000 C 
ATOM      5  O   UNL     1      -2.290  11.506  16.869  0.00  0.00    +0.000 OA
ATOM      6  N   UNL     1      -4.223  11.769  18.173  0.00  0.00    +0.000 N 
ATOM      7  C   UNL     1      -4.494  12.254  19.453  0.00  0.00    +0.000 A 
ATOM      8  C   UNL     1      -5.694  12.402  20.101  0.00  0.00    +0.000 A 
ATOM      9  C   UNL     1      -5.652  12.962  21.387  0.00  0.00    +0.000 A 
ATOM     10  C   UNL     1      -4.428  13.341  21.999  0.00  0.00    +0.000 A 
ATOM     11  C   UNL     1      -3.209  13.144  21.345  0.00  0.00    +0.000 A 
ATOM     12  C   UNL     1      -3.305  12.614  20.081  0.00  0.00    +0.000 A 
ATOM     13  C   UNL     1      -1.812  13.510  21.843  0.00  0.00    +0.000 C 
ATOM     14  C   UNL     1      -1.719  13.442  23.381  0.00  0.00    +0.000 C 
ATOM     15  C   UNL     1      -1.546  14.984  21.440  0.00  0.00    +0.000 C 
ATOM     16  C   UNL     1      -0.685  12.605  21.140  0.00  0.00    +0.000 C 
ATOM     17  C   UNL     1      -0.292  11.343  21.937  0.00  0.00    +0.000 C 
ATOM     18  C   UNL     1       0.786  10.487  21.239  0.00  0.00    +0.000 C 
ATOM     19 CL   UNL     1       1.081   9.048  22.297  0.00  0.00    +0.000 Cl
ATOM     20  C   UNL     1       0.444  10.104  19.754  0.00  0.00    +0.000 C 
ATOM     21  C   UNL     1      -0.801   9.170  19.714  0.00  0.00    +0.000 C 
ATOM     22  H   UNL     1      -4.911  11.474  17.498  0.00  0.00    +0.000 HD
ENDROOT
BRANCH   1  24
ATOM     23  C   UNL     1       2.179  13.059  18.861  0.00  0.00    +0.000 C 
ATOM     24  N   UNL     1       1.270  12.319  18.909  0.00  0.00    +0.000 NA
ENDBRANCH   1  24
BRANCH  20  25
ATOM     25  C   UNL     1       1.592   9.308  19.114  0.00  0.00    +0.000 C 
ATOM     26  C   UNL     1       1.737   8.969  17.825  0.00  0.00    +0.000 C 
ENDBRANCH  20  25
TORSDOF 2
ENDMDL
MODEL 3
REMARK VINA RESULT:      -5.8      2.454      4.618
REMARK  Name = 
REMARK  5 active torsions:
REMARK  status: ('A' for Active; 'I' for Inactive)
REMARK    1  A    between atoms: N_2  and  C_3
REMARK    2  A    between atoms: C_15  and  C_16
REMARK    3  A    between atoms: C_15  and  C_17
REMARK    4  A    between atoms: C_22  and  C_23
REMARK    5  A    between atoms: C_22  and  C_24
REMARK                            x       y       z     vdW  Elec       q    Type
REMARK                         _______ _______ _______ _____ _____    ______ ____
ROOT
ATOM      1  C   UNL     1      -2.616  14.411  21.754  0.00  0.00    +0.000 C 
ATOM      2  C   UNL     1      -3.180  13.558  20.637  0.00  0.00    +0.000 C 
ATOM      3  C   UNL     1      -2.398  12.975  19.715  0.00  0.00    +0.000 C 
ATOM      4  C   UNL     1      -0.921  13.007  19.442  0.00  0.00    +0.000 C 
ATOM      5  O   UNL     1      -0.120  13.839  19.814  0.00  0.00    +0.000 OA
ATOM      6  N   UNL     1      -0.684  11.869  18.671  0.00  0.00    +0.000 N 
ATOM      7  C   UNL     1      -1.875  11.204  18.374  0.00  0.00    +0.000 A 
ATOM      8  C   UNL     1      -2.085  10.062  17.646  0.00  0.00    +0.000 A 
ATOM      9  C   UNL     1      -3.417   9.651  17.486  0.00  0.00    +0.000 A 
ATOM     10  C   UNL     1      -4.496  10.369  18.064  0.00  0.00    +0.000 A 
ATOM     11  C   UNL     1      -4.265  11.507  18.841  0.00  0.00    +0.000 A 
ATOM     12  C   UNL     1      -2.947  11.881  18.949  0.00  0.00    +0.000 A 
ATOM     13  C   UNL     1      -5.301  12.405  19.515  0.00  0.00    +0.000 C 
ATOM     14  C   UNL     1      -6.565  11.616  19.915  0.00  0.00    +0.000 C 
ATOM     15  C   UNL     1      -5.742  13.467  18.474  0.00  0.00    +0.000 C 
ATOM     16  C   UNL     1      -4.669  13.189  20.768  0.00  0.00    +0.000 C 
ATOM     17  C   UNL     1      -4.866  12.483  22.126  0.00  0.00    +0.000 C 
ATOM     18  C   UNL     1      -4.245  13.250  23.313  0.00  0.00    +0.000 C 
ATOM     19 CL   UNL     1      -4.542  12.256  24.796  0.00  0.00    +0.000 Cl
ATOM     20  C   UNL     1      -2.734  13.632  23.115  0.00  0.00    +0.000 C 
ATOM     21  C   UNL     1      -1.859  12.345  23.056  0.00  0.00    +0.000 C 
ATOM     22  H   UNL     1       0.233  11.607  18.346  0.00  0.00    +0.000 HD
ENDROOT
BRANCH   1  24
ATOM     23  C   UNL     1      -3.913  16.684  21.751  0.00  0.00    +0.000 C 
ATOM     24  N   UNL     1      -3.340  15.662  21.768  0.00  0.00    +0.000 NA
ENDBRANCH   1  24
BRANCH  20  25
ATOM     25  C   UNL     1      -2.211  14.445  24.309  0.00  0.00    +0.000 C 
ATOM     26  C   UNL     1      -2.921  15.189  25.169  0.00  0.00    +0.000 C 
ENDBRANCH  20  25
TORSDOF 2
ENDMDL
MODEL 4
REMARK VINA RESULT:      -5.8      2.622      4.148
REMARK  Name = 
REMARK  5 active torsions:
REMARK  status: ('A' for Active; 'I' for Inactive)
REMARK    1  A    between atoms: N_2  and  C_3
REMARK    2  A    between atoms: C_15  and  C_16
REMARK    3  A    between atoms: C_15  and  C_17
REMARK    4  A    between atoms: C_22  and  C_23
REMARK    5  A    between atoms: C_22  and  C_24
REMARK                            x       y       z     vdW  Elec       q    Type
REMARK                         _______ _______ _______ _____ _____    ______ ____
ROOT
ATOM      1  C   UNL     1      -1.374  12.224  21.067  0.00  0.00    +0.000 C 
ATOM      2  C   UNL     1      -2.440  11.923  20.034  0.00  0.00    +0.000 C 
ATOM      3  C   UNL     1      -3.732  12.232  20.224  0.00  0.00    +0.000 C 
ATOM      4  C   UNL     1      -4.494  12.825  21.375  0.00  0.00    +0.000 C 
ATOM      5  O   UNL     1      -4.155  12.870  22.539  0.00  0.00    +0.000 OA
ATOM      6  N   UNL     1      -5.670  13.310  20.802  0.00  0.00    +0.000 N 
ATOM      7  C   UNL     1      -5.737  12.992  19.445  0.00  0.00    +0.000 A 
ATOM      8  C   UNL     1      -6.714  13.273  18.524  0.00  0.00    +0.000 A 
ATOM      9  C   UNL     1      -6.516  12.783  17.225  0.00  0.00    +0.000 A 
ATOM     10  C   UNL     1      -5.355  12.048  16.871  0.00  0.00    +0.000 A 
ATOM     11  C   UNL     1      -4.346  11.806  17.807  0.00  0.00    +0.000 A 
ATOM     12  C   UNL     1      -4.597  12.287  19.070  0.00  0.00    +0.000 A 
ATOM     13  C   UNL     1      -3.052  11.022  17.605  0.00  0.00    +0.000 C 
ATOM     14  C   UNL     1      -2.549  11.117  16.149  0.00  0.00    +0.000 C 
ATOM     15  C   UNL     1      -3.366   9.527  17.876  0.00  0.00    +0.000 C 
ATOM     16  C   UNL     1      -1.922  11.476  18.654  0.00  0.00    +0.000 C 
ATOM     17  C   UNL     1      -0.967  12.570  18.128  0.00  0.00    +0.000 C 
ATOM     18  C   UNL     1       0.103  12.995  19.156  0.00  0.00    +0.000 C 
ATOM     19 CL   UNL     1       1.090  14.298  18.378  0.00  0.00    +0.000 Cl
ATOM     20  C   UNL     1      -0.475  13.409  20.557  0.00  0.00    +0.000 C 
ATOM     21  C   UNL     1      -1.337  14.698  20.422  0.00  0.00    +0.000 C 
ATOM     22  H   UNL     1      -6.382  13.787  21.331  0.00  0.00    +0.000 HD
ENDROOT
BRANCH   1  24
ATOM     23  C   UNL     1      -0.033  10.015  21.482  0.00  0.00    +0.000 C 
ATOM     24  N   UNL     1      -0.619  11.013  21.294  0.00  0.00    +0.000 NA
ENDBRANCH   1  24
BRANCH  20  25
ATOM     25  C   UNL     1       0.656  13.757  21.537  0.00  0.00    +0.000 C 
ATOM     26  C   UNL     1       1.031  14.973  21.959  0.00  0.00    +0.000 C 
ENDBRANCH  20  25
TORSDOF 2
ENDMDL
MODEL 5
REMARK VINA RESULT:      -5.7      9.495     13.316
REMARK  Name = 
REMARK  5 active torsions:
REMARK  status: ('A' for Active; 'I' for Inactive)
REMARK    1  A    between atoms: N_2  and  C_3
REMARK    2  A    between atoms: C_15  and  C_16
REMARK    3  A    between atoms: C_15  and  C_17
REMARK    4  A    between atoms: C_22  and  C_23
REMARK    5  A    between atoms: C_22  and  C_24
REMARK                            x       y       z     vdW  Elec       q    Type
REMARK                         _______ _______ _______ _____ _____    ______ ____
ROOT
ATOM      1  C   UNL     1       7.645  15.294  20.949  0.00  0.00    +0.000 C 
ATOM      2  C   UNL     1       8.388  14.681  19.781  0.00  0.00    +0.000 C 
ATOM      3  C   UNL     1       9.275  15.374  19.051  0.00  0.00    +0.000 C 
ATOM      4  C   UNL     1       9.731  16.806  19.065  0.00  0.00    +0.000 C 
ATOM      5  O   UNL     1       9.156  17.759  19.549  0.00  0.00    +0.000 OA
ATOM      6  N   UNL     1      10.957  16.787  18.400  0.00  0.00    +0.000 N 
ATOM      7  C   UNL     1      11.246  15.513  17.909  0.00  0.00    +0.000 A 
ATOM      8  C   UNL     1      12.333  15.070  17.201  0.00  0.00    +0.000 A 
ATOM      9  C   UNL     1      12.323  13.724  16.807  0.00  0.00    +0.000 A 
ATOM     10  C   UNL     1      11.251  12.855  17.137  0.00  0.00    +0.000 A 
ATOM     11  C   UNL     1      10.169  13.308  17.896  0.00  0.00    +0.000 A 
ATOM     12  C   UNL     1      10.215  14.638  18.239  0.00  0.00    +0.000 A 
ATOM     13  C   UNL     1       8.931  12.521  18.322  0.00  0.00    +0.000 C 
ATOM     14  C   UNL     1       9.242  11.022  18.504  0.00  0.00    +0.000 C 
ATOM     15  C   UNL     1       7.894  12.630  17.172  0.00  0.00    +0.000 C 
ATOM     16  C   UNL     1       8.260  13.153  19.639  0.00  0.00    +0.000 C 
ATOM     17  C   UNL     1       8.730  12.512  20.962  0.00  0.00    +0.000 C 
ATOM     18  C   UNL     1       8.078  13.139  22.213  0.00  0.00    +0.000 C 
ATOM     19 CL   UNL     1       8.777  12.291  23.651  0.00  0.00    +0.000 Cl
ATOM     20  C   UNL     1       8.208  14.703  22.293  0.00  0.00    +0.000 C 
ATOM     21  C   UNL     1       9.702  15.110  22.456  0.00  0.00    +0.000 C 
ATOM     22  H   UNL     1      11.523  17.611  18.269  0.00  0.00    +0.000 HD
ENDROOT
BRANCH   1  24
ATOM     23  C   UNL     1       5.087  14.834  20.636  0.00  0.00    +0.000 C 
ATOM     24  N   UNL     1       6.236  15.024  20.772  0.00  0.00    +0.000 NA
ENDBRANCH   1  24
BRANCH  20  25
ATOM     25  C   UNL     1       7.482  15.252  23.531  0.00  0.00    +0.000 C 
ATOM     26  C   UNL     1       8.025  15.833  24.610  0.00  0.00    +0.000 C 
ENDBRANCH  20  25
TORSDOF 2
ENDMDL
MODEL 6
REMARK VINA RESULT:      -5.7      2.748      5.537
REMARK  Name = 
REMARK  5 active torsions:
REMARK  status: ('A' for Active; 'I' for Inactive)
REMARK    1  A    between atoms: N_2  and  C_3
REMARK    2  A    between atoms: C_15  and  C_16
REMARK    3  A    between atoms: C_15  and  C_17
REMARK    4  A    between atoms: C_22  and  C_23
REMARK    5  A    between atoms: C_22  and  C_24
REMARK                            x       y       z     vdW  Elec       q    Type
REMARK                         _______ _______ _______ _____ _____    ______ ____
ROOT
ATOM      1  C   UNL     1      -4.745  14.555  21.363  0.00  0.00    +0.000 C 
ATOM      2  C   UNL     1      -4.583  13.564  20.229  0.00  0.00    +0.000 C 
ATOM      3  C   UNL     1      -3.380  13.175  19.782  0.00  0.00    +0.000 C 
ATOM      4  C   UNL     1      -1.972  13.570  20.128  0.00  0.00    +0.000 C 
ATOM      5  O   UNL     1      -1.606  14.584  20.685  0.00  0.00    +0.000 OA
ATOM      6  N   UNL     1      -1.190  12.512  19.665  0.00  0.00    +0.000 N 
ATOM      7  C   UNL     1      -1.967  11.564  18.998  0.00  0.00    +0.000 A 
ATOM      8  C   UNL     1      -1.595  10.390  18.395  0.00  0.00    +0.000 A 
ATOM      9  C   UNL     1      -2.610   9.656  17.763  0.00  0.00    +0.000 A 
ATOM     10  C   UNL     1      -3.960  10.094  17.762  0.00  0.00    +0.000 A 
ATOM     11  C   UNL     1      -4.333  11.270  18.418  0.00  0.00    +0.000 A 
ATOM     12  C   UNL     1      -3.300  11.963  19.002  0.00  0.00    +0.000 A 
ATOM     13  C   UNL     1      -5.725  11.894  18.498  0.00  0.00    +0.000 C 
ATOM     14  C   UNL     1      -6.834  10.823  18.447  0.00  0.00    +0.000 C 
ATOM     15  C   UNL     1      -5.905  12.790  17.244  0.00  0.00    +0.000 C 
ATOM     16  C   UNL     1      -5.869  12.837  19.791  0.00  0.00    +0.000 C 
ATOM     17  C   UNL     1      -6.462  12.133  21.031  0.00  0.00    +0.000 C 
ATOM     18  C   UNL     1      -6.584  13.056  22.261  0.00  0.00    +0.000 C 
ATOM     19 CL   UNL     1      -7.254  12.051  23.609  0.00  0.00    +0.000 Cl
ATOM     20  C   UNL     1      -5.254  13.800  22.646  0.00  0.00    +0.000 C 
ATOM     21  C   UNL     1      -4.179  12.771  23.106  0.00  0.00    +0.000 C 
ATOM     22  H   UNL     1      -0.188  12.481  19.774  0.00  0.00    +0.000 HD
ENDROOT
BRANCH   1  24
ATOM     23  C   UNL     1      -6.380  16.433  20.557  0.00  0.00    +0.000 C 
ATOM     24  N   UNL     1      -5.660  15.584  20.928  0.00  0.00    +0.000 NA
ENDBRANCH   1  24
BRANCH  20  25
ATOM     25  C   UNL     1      -5.475  14.742  23.838  0.00  0.00    +0.000 C 
ATOM     26  C   UNL     1      -4.633  15.667  24.322  0.00  0.00    +0.000 C 
ENDBRANCH  20  25
TORSDOF 2
ENDMDL
MODEL 7
REMARK VINA RESULT:      -5.7      9.055     11.836
REMARK  Name = 
REMARK  5 active torsions:
REMARK  status: ('A' for Active; 'I' for Inactive)
REMARK    1  A    between atoms: N_2  and  C_3
REMARK    2  A    between atoms: C_15  and  C_16
REMARK    3  A    between atoms: C_15  and  C_17
REMARK    4  A    between atoms: C_22  and  C_23
REMARK    5  A    between atoms: C_22  and  C_24
REMARK                            x       y       z     vdW  Elec       q    Type
REMARK                         _______ _______ _______ _____ _____    ______ ____
ROOT
ATOM      1  C   UNL     1       9.931  14.902  18.853  0.00  0.00    +0.000 C 
ATOM      2  C   UNL     1       8.977  14.785  20.023  0.00  0.00    +0.000 C 
ATOM      3  C   UNL     1       7.774  15.380  20.031  0.00  0.00    +0.000 C 
ATOM      4  C   UNL     1       7.069  16.298  19.073  0.00  0.00    +0.000 C 
ATOM      5  O   UNL     1       7.568  16.977  18.200  0.00  0.00    +0.000 OA
ATOM      6  N   UNL     1       5.721  16.191  19.416  0.00  0.00    +0.000 N 
ATOM      7  C   UNL     1       5.549  15.375  20.534  0.00  0.00    +0.000 A 
ATOM      8  C   UNL     1       4.400  15.017  21.192  0.00  0.00    +0.000 A 
ATOM      9  C   UNL     1       4.549  14.203  22.325  0.00  0.00    +0.000 A 
ATOM     10  C   UNL     1       5.822  13.755  22.763  0.00  0.00    +0.000 A 
ATOM     11  C   UNL     1       6.981  14.091  22.059  0.00  0.00    +0.000 A 
ATOM     12  C   UNL     1       6.785  14.907  20.970  0.00  0.00    +0.000 A 
ATOM     13  C   UNL     1       8.422  13.716  22.398  0.00  0.00    +0.000 C 
ATOM     14  C   UNL     1       8.502  12.361  23.129  0.00  0.00    +0.000 C 
ATOM     15  C   UNL     1       8.964  14.791  23.378  0.00  0.00    +0.000 C 
ATOM     16  C   UNL     1       9.356  13.741  21.090  0.00  0.00    +0.000 C 
ATOM     17  C   UNL     1       9.503  12.375  20.386  0.00  0.00    +0.000 C 
ATOM     18  C   UNL     1      10.398  12.425  19.129  0.00  0.00    +0.000 C 
ATOM     19 CL   UNL     1      10.416  10.756  18.429  0.00  0.00    +0.000 Cl
ATOM     20  C   UNL     1       9.989  13.529  18.089  0.00  0.00    +0.000 C 
ATOM     21  C   UNL     1       8.589  13.207  17.488  0.00  0.00    +0.000 C 
ATOM     22  H   UNL     1       4.990  16.683  18.927  0.00  0.00    +0.000 HD
ENDROOT
BRANCH   1  24
ATOM     23  C   UNL     1      12.270  15.601  19.797  0.00  0.00    +0.000 C 
ATOM     24  N   UNL     1      11.220  15.304  19.368  0.00  0.00    +0.000 NA
ENDBRANCH   1  24
BRANCH  20  25
ATOM     25  C   UNL     1      10.963  13.553  16.901  0.00  0.00    +0.000 C 
ATOM     26  C   UNL     1      12.277  13.287  16.912  0.00  0.00    +0.000 C 
ENDBRANCH  20  25
TORSDOF 2
ENDMDL
MODEL 8
REMARK VINA RESULT:      -5.7     10.792     13.286
REMARK  Name = 
REMARK  5 active torsions:
REMARK  status: ('A' for Active; 'I' for Inactive)
REMARK    1  A    between atoms: N_2  and  C_3
REMARK    2  A    between atoms: C_15  and  C_16
REMARK    3  A    between atoms: C_15  and  C_17
REMARK    4  A    between atoms: C_22  and  C_23
REMARK    5  A    between atoms: C_22  and  C_24
REMARK                            x       y       z     vdW  Elec       q    Type
REMARK                         _______ _______ _______ _____ _____    ______ ____
ROOT
ATOM      1  C   UNL     1       8.693  15.562  22.360  0.00  0.00    +0.000 C 
ATOM      2  C   UNL     1       9.380  14.723  21.303  0.00  0.00    +0.000 C 
ATOM      3  C   UNL     1       9.442  13.384  21.377  0.00  0.00    +0.000 C 
ATOM      4  C   UNL     1       8.995  12.385  22.406  0.00  0.00    +0.000 C 
ATOM      5  O   UNL     1       8.751  12.590  23.577  0.00  0.00    +0.000 OA
ATOM      6  N   UNL     1       8.924  11.177  21.712  0.00  0.00    +0.000 N 
ATOM      7  C   UNL     1       9.367  11.326  20.397  0.00  0.00    +0.000 A 
ATOM      8  C   UNL     1       9.463  10.397  19.392  0.00  0.00    +0.000 A 
ATOM      9  C   UNL     1       9.988  10.842  18.170  0.00  0.00    +0.000 A 
ATOM     10  C   UNL     1      10.384  12.190  17.971  0.00  0.00    +0.000 A 
ATOM     11  C   UNL     1      10.240  13.137  18.989  0.00  0.00    +0.000 A 
ATOM     12  C   UNL     1       9.742  12.647  20.173  0.00  0.00    +0.000 A 
ATOM     13  C   UNL     1      10.630  14.613  18.955  0.00  0.00    +0.000 C 
ATOM     14  C   UNL     1      10.523  15.199  17.532  0.00  0.00    +0.000 C 
ATOM     15  C   UNL     1      12.122  14.709  19.371  0.00  0.00    +0.000 C 
ATOM     16  C   UNL     1       9.777  15.468  20.015  0.00  0.00    +0.000 C 
ATOM     17  C   UNL     1       8.506  16.120  19.431  0.00  0.00    +0.000 C 
ATOM     18  C   UNL     1       7.699  16.930  20.469  0.00  0.00    +0.000 C 
ATOM     19 CL   UNL     1       6.241  17.576  19.614  0.00  0.00    +0.000 Cl
ATOM     20  C   UNL     1       7.348  16.134  21.778  0.00  0.00    +0.000 C 
ATOM     21  C   UNL     1       6.381  14.959  21.448  0.00  0.00    +0.000 C 
ATOM     22  H   UNL     1       8.629  10.314  22.140  0.00  0.00    +0.000 HD
ENDROOT
BRANCH   1  24
ATOM     23  C   UNL     1      10.375  17.433  23.082  0.00  0.00    +0.000 C 
ATOM     24  N   UNL     1       9.608  16.604  22.765  0.00  0.00    +0.000 NA
ENDBRANCH   1  24
BRANCH  20  25
ATOM     25  C   UNL     1       6.602  17.028  22.781  0.00  0.00    +0.000 C 
ATOM     26  C   UNL     1       5.802  16.643  23.785  0.00  0.00    +0.000 C 
ENDBRANCH  20  25
TORSDOF 2
ENDMDL
MODEL 9
REMARK VINA RESULT:      -5.6      1.561      1.850
REMARK  Name = 
REMARK  5 active torsions:
REMARK  status: ('A' for Active; 'I' for Inactive)
REMARK    1  A    between atoms: N_2  and  C_3
REMARK    2  A    between atoms: C_15  and  C_16
REMARK    3  A    between atoms: C_15  and  C_17
REMARK    4  A    between atoms: C_22  and  C_23
REMARK    5  A    between atoms: C_22  and  C_24
REMARK                            x       y       z     vdW  Elec       q    Type
REMARK                         _______ _______ _______ _____ _____    ______ ____
ROOT
ATOM      1  C   UNL     1      -0.244  11.716  20.069  0.00  0.00    +0.000 C 
ATOM      2  C   UNL     1      -1.574  12.340  20.436  0.00  0.00    +0.000 C 
ATOM      3  C   UNL     1      -2.626  12.332  19.603  0.00  0.00    +0.000 C 
ATOM      4  C   UNL     1      -2.824  11.849  18.194  0.00  0.00    +0.000 C 
ATOM      5  O   UNL     1      -1.969  11.635  17.360  0.00  0.00    +0.000 OA
ATOM      6  N   UNL     1      -4.205  11.703  18.066  0.00  0.00    +0.000 N 
ATOM      7  C   UNL     1      -4.866  12.132  19.218  0.00  0.00    +0.000 A 
ATOM      8  C   UNL     1      -6.207  12.163  19.502  0.00  0.00    +0.000 A 
ATOM      9  C   UNL     1      -6.577  12.691  20.748  0.00  0.00    +0.000 A 
ATOM     10  C   UNL     1      -5.613  13.156  21.680  0.00  0.00    +0.000 A 
ATOM     11  C   UNL     1      -4.246  13.078  21.397  0.00  0.00    +0.000 A 
ATOM     12  C   UNL     1      -3.937  12.574  20.156  0.00  0.00    +0.000 A 
ATOM     13  C   UNL     1      -3.083  13.546  22.268  0.00  0.00    +0.000 C 
ATOM     14  C   UNL     1      -3.420  13.448  23.770  0.00  0.00    +0.000 C 
ATOM     15  C   UNL     1      -2.844  15.047  21.957  0.00  0.00    +0.000 C 
ATOM     16  C   UNL     1      -1.729  12.757  21.911  0.00  0.00    +0.000 C 
ATOM     17  C   UNL     1      -1.467  11.512  22.786  0.00  0.00    +0.000 C 
ATOM     18  C   UNL     1      -0.167  10.767  22.419  0.00  0.00    +0.000 C 
ATOM     19 CL   UNL     1      -0.056   9.332  23.516  0.00  0.00    +0.000 Cl
ATOM     20  C   UNL     1      -0.043  10.395  20.898  0.00  0.00    +0.000 C 
ATOM     21  C   UNL     1      -1.140   9.361  20.507  0.00  0.00    +0.000 C 
ATOM     22  H   UNL     1      -4.647  11.369  17.224  0.00  0.00    +0.000 HD
ENDROOT
BRANCH   1  24
ATOM     23  C   UNL     1       1.641  13.466  20.551  0.00  0.00    +0.000 C 
ATOM     24  N   UNL     1       0.791  12.692  20.321  0.00  0.00    +0.000 NA
ENDBRANCH   1  24
BRANCH  20  25
ATOM     25  C   UNL     1       1.303   9.713  20.607  0.00  0.00    +0.000 C 
ATOM     26  C   UNL     1       1.529   8.416  20.357  0.00  0.00    +0.000 C 
ENDBRANCH  20  25
TORSDOF 2
ENDMDL
