MODEL 1
REMARK VINA RESULT:      -9.4      0.000      0.000
REMARK  Name = 
REMARK  7 active torsions:
REMARK  status: ('A' for Active; 'I' for Inactive)
REMARK    1  A    between atoms: C_1  and  O_2
REMARK    2  A    between atoms: O_2  and  C_3
REMARK    3  A    between atoms: N_15  and  C_16
REMARK    4  A    between atoms: C_19  and  C_20
REMARK    5  A    between atoms: C_20  and  C_21
REMARK    6  A    between atoms: C_20  and  C_22
REMARK    7  A    between atoms: C_20  and  C_23
REMARK                            x       y       z     vdW  Elec       q    Type
REMARK                         _______ _______ _______ _____ _____    ______ ____
ROOT
ATOM      1  C   UNL     1       6.388   5.177  16.013  0.00  0.00    +0.000 A 
ATOM      2  C   UNL     1       6.163   6.487  16.415  0.00  0.00    +0.000 A 
ATOM      3  C   UNL     1       5.063   6.813  17.204  0.00  0.00    +0.000 A 
ATOM      4  C   UNL     1       4.145   5.804  17.561  0.00  0.00    +0.000 A 
ATOM      5  C   UNL     1       4.372   4.472  17.211  0.00  0.00    +0.000 A 
ATOM      6  C   UNL     1       5.506   4.165  16.421  0.00  0.00    +0.000 A 
ATOM      7  C   UNL     1       3.328   3.689  17.794  0.00  0.00    +0.000 A 
ATOM      8  C   UNL     1       3.032   2.305  17.800  0.00  0.00    +0.000 A 
ATOM      9  C   UNL     1       1.892   1.834  18.466  0.00  0.00    +0.000 A 
ATOM     10  C   UNL     1       1.030   2.713  19.102  0.00  0.00    +0.000 A 
ATOM     11  C   UNL     1       1.291   4.082  19.090  0.00  0.00    +0.000 A 
ATOM     12  C   UNL     1       2.466   4.562  18.471  0.00  0.00    +0.000 A 
ATOM     13  N   UNL     1       2.973   5.856  18.313  0.00  0.00    +0.000 N 
ENDROOT
BRANCH  13  14
ATOM     14  C   UNL     1       2.382   7.043  18.837  0.00  0.00    +0.000 A 
ATOM     15  C   UNL     1       2.079   7.127  20.189  0.00  0.00    +0.000 A 
ATOM     16  C   UNL     1       1.415   8.241  20.689  0.00  0.00    +0.000 A 
ATOM     17  C   UNL     1       1.068   9.326  19.861  0.00  0.00    +0.000 A 
ATOM     18  C   UNL     1       1.452   9.252  18.514  0.00  0.00    +0.000 A 
ATOM     19  C   UNL     1       2.076   8.121  18.000  0.00  0.00    +0.000 A 
BRANCH  17  20
ATOM     20  C   UNL     1       0.276  10.529  20.393  0.00  0.00    +0.000 C 
ATOM     21  C   UNL     1      -0.996  10.808  19.562  0.00  0.00    +0.000 C 
ATOM     22  C   UNL     1      -0.151  10.275  21.852  0.00  0.00    +0.000 C 
ATOM     23  C   UNL     1       1.147  11.802  20.339  0.00  0.00    +0.000 C 
ENDBRANCH  17  20
ENDBRANCH  13  14
BRANCH   1  25
ATOM     24  C   UNL     1       7.176   4.611  13.850  0.00  0.00    +0.000 C 
ATOM     25  O   UNL     1       7.442   4.766  15.240  0.00  0.00    +0.000 OA
ENDBRANCH   1  25
TORSDOF 3
ENDMDL
MODEL 2
REMARK VINA RESULT:      -9.3      0.545      1.037
REMARK  Name = 
REMARK  7 active torsions:
REMARK  status: ('A' for Active; 'I' for Inactive)
REMARK    1  A    between atoms: C_1  and  O_2
REMARK    2  A    between atoms: O_2  and  C_3
REMARK    3  A    between atoms: N_15  and  C_16
REMARK    4  A    between atoms: C_19  and  C_20
REMARK    5  A    between atoms: C_20  and  C_21
REMARK    6  A    between atoms: C_20  and  C_22
REMARK    7  A    between atoms: C_20  and  C_23
REMARK                            x       y       z     vdW  Elec       q    Type
REMARK                         _______ _______ _______ _____ _____    ______ ____
ROOT
ATOM      1  C   UNL     1       5.847   4.824  15.812  0.00  0.00    +0.000 A 
ATOM      2  C   UNL     1       5.685   6.181  16.059  0.00  0.00    +0.000 A 
ATOM      3  C   UNL     1       4.694   6.636  16.925  0.00  0.00    +0.000 A 
ATOM      4  C   UNL     1       3.819   5.707  17.523  0.00  0.00    +0.000 A 
ATOM      5  C   UNL     1       3.988   4.335  17.329  0.00  0.00    +0.000 A 
ATOM      6  C   UNL     1       5.013   3.898  16.456  0.00  0.00    +0.000 A 
ATOM      7  C   UNL     1       3.018   3.661  18.134  0.00  0.00    +0.000 A 
ATOM      8  C   UNL     1       2.713   2.298  18.361  0.00  0.00    +0.000 A 
ATOM      9  C   UNL     1       1.660   1.947  19.217  0.00  0.00    +0.000 A 
ATOM     10  C   UNL     1       0.891   2.925  19.830  0.00  0.00    +0.000 A 
ATOM     11  C   UNL     1       1.160   4.273  19.603  0.00  0.00    +0.000 A 
ATOM     12  C   UNL     1       2.254   4.637  18.787  0.00  0.00    +0.000 A 
ATOM     13  N   UNL     1       2.749   5.886  18.398  0.00  0.00    +0.000 N 
ENDROOT
BRANCH  13  14
ATOM     14  C   UNL     1       2.237   7.146  18.826  0.00  0.00    +0.000 A 
ATOM     15  C   UNL     1       2.005   7.377  20.174  0.00  0.00    +0.000 A 
ATOM     16  C   UNL     1       1.415   8.566  20.589  0.00  0.00    +0.000 A 
ATOM     17  C   UNL     1       1.077   9.580  19.673  0.00  0.00    +0.000 A 
ATOM     18  C   UNL     1       1.392   9.357  18.325  0.00  0.00    +0.000 A 
ATOM     19  C   UNL     1       1.939   8.151  17.899  0.00  0.00    +0.000 A 
BRANCH  17  20
ATOM     20  C   UNL     1       0.367  10.867  20.117  0.00  0.00    +0.000 C 
ATOM     21  C   UNL     1      -0.022  10.838  21.612  0.00  0.00    +0.000 C 
ATOM     22  C   UNL     1       1.284  12.082  19.884  0.00  0.00    +0.000 C 
ATOM     23  C   UNL     1      -0.935  11.058  19.310  0.00  0.00    +0.000 C 
ENDBRANCH  17  20
ENDBRANCH  13  14
BRANCH   1  25
ATOM     24  C   UNL     1       6.355   3.953  13.666  0.00  0.00    +0.000 C 
ATOM     25  O   UNL     1       6.794   4.289  14.979  0.00  0.00    +0.000 OA
ENDBRANCH   1  25
TORSDOF 3
ENDMDL
MODEL 3
REMARK VINA RESULT:      -9.0      0.308      1.292
REMARK  Name = 
REMARK  7 active torsions:
REMARK  status: ('A' for Active; 'I' for Inactive)
REMARK    1  A    between atoms: C_1  and  O_2
REMARK    2  A    between atoms: O_2  and  C_3
REMARK    3  A    between atoms: N_15  and  C_16
REMARK    4  A    between atoms: C_19  and  C_20
REMARK    5  A    between atoms: C_20  and  C_21
REMARK    6  A    between atoms: C_20  and  C_22
REMARK    7  A    between atoms: C_20  and  C_23
REMARK                            x       y       z     vdW  Elec       q    Type
REMARK                         _______ _______ _______ _____ _____    ______ ____
ROOT
ATOM      1  C   UNL     1       6.375   5.265  16.088  0.00  0.00    +0.000 A 
ATOM      2  C   UNL     1       6.082   6.584  16.407  0.00  0.00    +0.000 A 
ATOM      3  C   UNL     1       4.950   6.902  17.155  0.00  0.00    +0.000 A 
ATOM      4  C   UNL     1       4.072   5.873  17.553  0.00  0.00    +0.000 A 
ATOM      5  C   UNL     1       4.368   4.536  17.285  0.00  0.00    +0.000 A 
ATOM      6  C   UNL     1       5.532   4.238  16.537  0.00  0.00    +0.000 A 
ATOM      7  C   UNL     1       3.349   3.738  17.893  0.00  0.00    +0.000 A 
ATOM      8  C   UNL     1       3.117   2.344  17.974  0.00  0.00    +0.000 A 
ATOM      9  C   UNL     1       1.986   1.858  18.644  0.00  0.00    +0.000 A 
ATOM     10  C   UNL     1       1.070   2.731  19.212  0.00  0.00    +0.000 A 
ATOM     11  C   UNL     1       1.268   4.108  19.124  0.00  0.00    +0.000 A 
ATOM     12  C   UNL     1       2.433   4.606  18.501  0.00  0.00    +0.000 A 
ATOM     13  N   UNL     1       2.883   5.912  18.278  0.00  0.00    +0.000 N 
ENDROOT
BRANCH  13  14
ATOM     14  C   UNL     1       2.226   7.098  18.720  0.00  0.00    +0.000 A 
ATOM     15  C   UNL     1       1.850   8.066  17.799  0.00  0.00    +0.000 A 
ATOM     16  C   UNL     1       1.297   9.265  18.232  0.00  0.00    +0.000 A 
ATOM     17  C   UNL     1       1.062   9.520  19.596  0.00  0.00    +0.000 A 
ATOM     18  C   UNL     1       1.377   8.496  20.502  0.00  0.00    +0.000 A 
ATOM     19  C   UNL     1       1.974   7.313  20.079  0.00  0.00    +0.000 A 
BRANCH  17  20
ATOM     20  C   UNL     1       0.513  10.867  20.086  0.00  0.00    +0.000 C 
ATOM     21  C   UNL     1       1.450  12.045  19.736  0.00  0.00    +0.000 C 
ATOM     22  C   UNL     1      -0.860  11.141  19.443  0.00  0.00    +0.000 C 
ATOM     23  C   UNL     1       0.354  10.849  21.620  0.00  0.00    +0.000 C 
ENDBRANCH  17  20
ENDBRANCH  13  14
BRANCH   1  25
ATOM     24  C   UNL     1       7.290   4.811  13.948  0.00  0.00    +0.000 C 
ATOM     25  O   UNL     1       7.464   4.861  15.360  0.00  0.00    +0.000 OA
ENDBRANCH   1  25
TORSDOF 3
ENDMDL
MODEL 4
REMARK VINA RESULT:      -8.8      1.288      1.860
REMARK  Name = 
REMARK  7 active torsions:
REMARK  status: ('A' for Active; 'I' for Inactive)
REMARK    1  A    between atoms: C_1  and  O_2
REMARK    2  A    between atoms: O_2  and  C_3
REMARK    3  A    between atoms: N_15  and  C_16
REMARK    4  A    between atoms: C_19  and  C_20
REMARK    5  A    between atoms: C_20  and  C_21
REMARK    6  A    between atoms: C_20  and  C_22
REMARK    7  A    between atoms: C_20  and  C_23
REMARK                            x       y       z     vdW  Elec       q    Type
REMARK                         _______ _______ _______ _____ _____    ______ ____
ROOT
ATOM      1  C   UNL     1       5.802   4.904  16.158  0.00  0.00    +0.000 A 
ATOM      2  C   UNL     1       5.380   6.220  16.023  0.00  0.00    +0.000 A 
ATOM      3  C   UNL     1       4.440   6.762  16.897  0.00  0.00    +0.000 A 
ATOM      4  C   UNL     1       3.882   5.947  17.903  0.00  0.00    +0.000 A 
ATOM      5  C   UNL     1       4.321   4.636  18.089  0.00  0.00    +0.000 A 
ATOM      6  C   UNL     1       5.288   4.114  17.197  0.00  0.00    +0.000 A 
ATOM      7  C   UNL     1       3.642   4.111  19.233  0.00  0.00    +0.000 A 
ATOM      8  C   UNL     1       3.678   2.866  19.905  0.00  0.00    +0.000 A 
ATOM      9  C   UNL     1       2.855   2.645  21.018  0.00  0.00    +0.000 A 
ATOM     10  C   UNL     1       1.981   3.627  21.458  0.00  0.00    +0.000 A 
ATOM     11  C   UNL     1       1.913   4.851  20.797  0.00  0.00    +0.000 A 
ATOM     12  C   UNL     1       2.778   5.106  19.710  0.00  0.00    +0.000 A 
ATOM     13  N   UNL     1       2.928   6.223  18.881  0.00  0.00    +0.000 N 
ENDROOT
BRANCH  13  14
ATOM     14  C   UNL     1       2.214   7.450  19.014  0.00  0.00    +0.000 A 
ATOM     15  C   UNL     1       1.953   8.224  17.893  0.00  0.00    +0.000 A 
ATOM     16  C   UNL     1       1.343   9.466  18.027  0.00  0.00    +0.000 A 
ATOM     17  C   UNL     1       0.938   9.957  19.282  0.00  0.00    +0.000 A 
ATOM     18  C   UNL     1       1.143   9.124  20.393  0.00  0.00    +0.000 A 
ATOM     19  C   UNL     1       1.793   7.901  20.270  0.00  0.00    +0.000 A 
BRANCH  17  20
ATOM     20  C   UNL     1       0.325  11.355  19.445  0.00  0.00    +0.000 C 
ATOM     21  C   UNL     1      -0.151  11.623  20.891  0.00  0.00    +0.000 C 
ATOM     22  C   UNL     1       1.363  12.432  19.076  0.00  0.00    +0.000 C 
ATOM     23  C   UNL     1      -0.904  11.505  18.524  0.00  0.00    +0.000 C 
ENDBRANCH  17  20
ENDBRANCH  13  14
BRANCH   1  25
ATOM     24  C   UNL     1       6.286   3.989  14.025  0.00  0.00    +0.000 C 
ATOM     25  O   UNL     1       6.720   4.291  15.347  0.00  0.00    +0.000 OA
ENDBRANCH   1  25
TORSDOF 3
ENDMDL
MODEL 5
REMARK VINA RESULT:      -8.6      1.005      1.382
REMARK  Name = 
REMARK  7 active torsions:
REMARK  status: ('A' for Active; 'I' for Inactive)
REMARK    1  A    between atoms: C_1  and  O_2
REMARK    2  A    between atoms: O_2  and  C_3
REMARK    3  A    between atoms: N_15  and  C_16
REMARK    4  A    between atoms: C_19  and  C_20
REMARK    5  A    between atoms: C_20  and  C_21
REMARK    6  A    between atoms: C_20  and  C_22
REMARK    7  A    between atoms: C_20  and  C_23
REMARK                            x       y       z     vdW  Elec       q    Type
REMARK                         _______ _______ _______ _____ _____    ______ ____
ROOT
ATOM      1  C   UNL     1       5.326   5.522  15.974  0.00  0.00    +0.000 A 
ATOM      2  C   UNL     1       5.091   6.858  16.273  0.00  0.00    +0.000 A 
ATOM      3  C   UNL     1       4.184   7.219  17.267  0.00  0.00    +0.000 A 
ATOM      4  C   UNL     1       3.465   6.213  17.945  0.00  0.00    +0.000 A 
ATOM      5  C   UNL     1       3.715   4.862  17.697  0.00  0.00    +0.000 A 
ATOM      6  C   UNL     1       4.654   4.522  16.692  0.00  0.00    +0.000 A 
ATOM      7  C   UNL     1       2.909   4.101  18.599  0.00  0.00    +0.000 A 
ATOM      8  C   UNL     1       2.741   2.714  18.827  0.00  0.00    +0.000 A 
ATOM      9  C   UNL     1       1.834   2.267  19.798  0.00  0.00    +0.000 A 
ATOM     10  C   UNL     1       1.075   3.170  20.526  0.00  0.00    +0.000 A 
ATOM     11  C   UNL     1       1.209   4.538  20.301  0.00  0.00    +0.000 A 
ATOM     12  C   UNL     1       2.159   5.002  19.366  0.00  0.00    +0.000 A 
ATOM     13  N   UNL     1       2.503   6.293  18.950  0.00  0.00    +0.000 N 
ENDROOT
BRANCH  13  14
ATOM     14  C   UNL     1       1.953   7.501  19.470  0.00  0.00    +0.000 A 
ATOM     15  C   UNL     1       1.681   7.610  20.826  0.00  0.00    +0.000 A 
ATOM     16  C   UNL     1       1.055   8.747  21.324  0.00  0.00    +0.000 A 
ATOM     17  C   UNL     1       0.719   9.829  20.490  0.00  0.00    +0.000 A 
ATOM     18  C   UNL     1       1.074   9.729  19.137  0.00  0.00    +0.000 A 
ATOM     19  C   UNL     1       1.657   8.576  18.624  0.00  0.00    +0.000 A 
BRANCH  17  20
ATOM     20  C   UNL     1      -0.031  11.059  21.022  0.00  0.00    +0.000 C 
ATOM     21  C   UNL     1       0.870  12.313  21.088  0.00  0.00    +0.000 C 
ATOM     22  C   UNL     1      -1.231  11.379  20.111  0.00  0.00    +0.000 C 
ATOM     23  C   UNL     1      -0.544  10.789  22.452  0.00  0.00    +0.000 C 
ENDBRANCH  17  20
ENDBRANCH  13  14
BRANCH   1  25
ATOM     24  C   UNL     1       6.229   3.670  14.802  0.00  0.00    +0.000 C 
ATOM     25  O   UNL     1       6.199   5.078  15.017  0.00  0.00    +0.000 OA
ENDBRANCH   1  25
TORSDOF 3
ENDMDL
MODEL 6
REMARK VINA RESULT:      -8.1      1.097      1.532
REMARK  Name = 
REMARK  7 active torsions:
REMARK  status: ('A' for Active; 'I' for Inactive)
REMARK    1  A    between atoms: C_1  and  O_2
REMARK    2  A    between atoms: O_2  and  C_3
REMARK    3  A    between atoms: N_15  and  C_16
REMARK    4  A    between atoms: C_19  and  C_20
REMARK    5  A    between atoms: C_20  and  C_21
REMARK    6  A    between atoms: C_20  and  C_22
REMARK    7  A    between atoms: C_20  and  C_23
REMARK                            x       y       z     vdW  Elec       q    Type
REMARK                         _______ _______ _______ _____ _____    ______ ____
ROOT
ATOM      1  C   UNL     1       5.413   5.717  16.117  0.00  0.00    +0.000 A 
ATOM      2  C   UNL     1       5.073   7.047  16.328  0.00  0.00    +0.000 A 
ATOM      3  C   UNL     1       4.123   7.399  17.283  0.00  0.00    +0.000 A 
ATOM      4  C   UNL     1       3.469   6.385  18.013  0.00  0.00    +0.000 A 
ATOM      5  C   UNL     1       3.824   5.044  17.854  0.00  0.00    +0.000 A 
ATOM      6  C   UNL     1       4.804   4.715  16.887  0.00  0.00    +0.000 A 
ATOM      7  C   UNL     1       3.060   4.281  18.791  0.00  0.00    +0.000 A 
ATOM      8  C   UNL     1       2.992   2.903  19.105  0.00  0.00    +0.000 A 
ATOM      9  C   UNL     1       2.103   2.449  20.089  0.00  0.00    +0.000 A 
ATOM     10  C   UNL     1       1.265   3.335  20.747  0.00  0.00    +0.000 A 
ATOM     11  C   UNL     1       1.300   4.694  20.439  0.00  0.00    +0.000 A 
ATOM     12  C   UNL     1       2.230   5.169  19.489  0.00  0.00    +0.000 A 
ATOM     13  N   UNL     1       2.485   6.454  18.997  0.00  0.00    +0.000 N 
ENDROOT
BRANCH  13  14
ATOM     14  C   UNL     1       1.836   7.646  19.432  0.00  0.00    +0.000 A 
ATOM     15  C   UNL     1       1.552   8.653  18.520  0.00  0.00    +0.000 A 
ATOM     16  C   UNL     1       1.008   9.856  18.953  0.00  0.00    +0.000 A 
ATOM     17  C   UNL     1       0.691  10.078  20.306  0.00  0.00    +0.000 A 
ATOM     18  C   UNL     1       0.914   9.018  21.198  0.00  0.00    +0.000 A 
ATOM     19  C   UNL     1       1.501   7.830  20.778  0.00  0.00    +0.000 A 
BRANCH  17  20
ATOM     20  C   UNL     1       0.151  11.428  20.800  0.00  0.00    +0.000 C 
ATOM     21  C   UNL     1      -1.025  11.941  19.940  0.00  0.00    +0.000 C 
ATOM     22  C   UNL     1      -0.340  11.298  22.254  0.00  0.00    +0.000 C 
ATOM     23  C   UNL     1       1.262  12.497  20.739  0.00  0.00    +0.000 C 
ENDBRANCH  17  20
ENDBRANCH  13  14
BRANCH   1  25
ATOM     24  C   UNL     1       6.545   3.874  15.146  0.00  0.00    +0.000 C 
ATOM     25  O   UNL     1       6.335   5.281  15.202  0.00  0.00    +0.000 OA
ENDBRANCH   1  25
TORSDOF 3
ENDMDL
MODEL 7
REMARK VINA RESULT:      -7.6      3.712      8.957
REMARK  Name = 
REMARK  7 active torsions:
REMARK  status: ('A' for Active; 'I' for Inactive)
REMARK    1  A    between atoms: C_1  and  O_2
REMARK    2  A    between atoms: O_2  and  C_3
REMARK    3  A    between atoms: N_15  and  C_16
REMARK    4  A    between atoms: C_19  and  C_20
REMARK    5  A    between atoms: C_20  and  C_21
REMARK    6  A    between atoms: C_20  and  C_22
REMARK    7  A    between atoms: C_20  and  C_23
REMARK                            x       y       z     vdW  Elec       q    Type
REMARK                         _______ _______ _______ _____ _____    ______ ____
ROOT
ATOM      1  C   UNL     1      -3.934  11.206  17.846  0.00  0.00    +0.000 A 
ATOM      2  C   UNL     1      -3.351   9.984  17.538  0.00  0.00    +0.000 A 
ATOM      3  C   UNL     1      -2.057   9.683  17.958  0.00  0.00    +0.000 A 
ATOM      4  C   UNL     1      -1.318  10.652  18.667  0.00  0.00    +0.000 A 
ATOM      5  C   UNL     1      -1.895  11.870  19.030  0.00  0.00    +0.000 A 
ATOM      6  C   UNL     1      -3.217  12.145  18.604  0.00  0.00    +0.000 A 
ATOM      7  C   UNL     1      -0.938  12.585  19.814  0.00  0.00    +0.000 A 
ATOM      8  C   UNL     1      -0.948  13.844  20.461  0.00  0.00    +0.000 A 
ATOM      9  C   UNL     1       0.186  14.286  21.156  0.00  0.00    +0.000 A 
ATOM     10  C   UNL     1       1.336  13.513  21.198  0.00  0.00    +0.000 A 
ATOM     11  C   UNL     1       1.375  12.280  20.550  0.00  0.00    +0.000 A 
ATOM     12  C   UNL     1       0.220  11.800  19.895  0.00  0.00    +0.000 A 
ATOM     13  N   UNL     1      -0.023  10.622  19.181  0.00  0.00    +0.000 N 
ENDROOT
BRANCH  13  14
ATOM     14  C   UNL     1       0.909   9.558  19.003  0.00  0.00    +0.000 A 
ATOM     15  C   UNL     1       1.588   9.426  17.799  0.00  0.00    +0.000 A 
ATOM     16  C   UNL     1       2.425   8.338  17.584  0.00  0.00    +0.000 A 
ATOM     17  C   UNL     1       2.644   7.367  18.580  0.00  0.00    +0.000 A 
ATOM     18  C   UNL     1       2.009   7.562  19.816  0.00  0.00    +0.000 A 
ATOM     19  C   UNL     1       1.134   8.624  20.020  0.00  0.00    +0.000 A 
BRANCH  17  20
ATOM     20  C   UNL     1       3.515   6.128  18.326  0.00  0.00    +0.000 C 
ATOM     21  C   UNL     1       2.711   4.962  17.711  0.00  0.00    +0.000 C 
ATOM     22  C   UNL     1       4.663   6.481  17.361  0.00  0.00    +0.000 C 
ATOM     23  C   UNL     1       4.114   5.621  19.654  0.00  0.00    +0.000 C 
ENDBRANCH  17  20
ENDBRANCH  13  14
BRANCH   1  25
ATOM     24  C   UNL     1      -6.249  11.197  18.354  0.00  0.00    +0.000 C 
ATOM     25  O   UNL     1      -5.197  11.585  17.477  0.00  0.00    +0.000 OA
ENDBRANCH   1  25
TORSDOF 3
ENDMDL
MODEL 8
REMARK VINA RESULT:      -7.5      1.547      1.841
REMARK  Name = 
REMARK  7 active torsions:
REMARK  status: ('A' for Active; 'I' for Inactive)
REMARK    1  A    between atoms: C_1  and  O_2
REMARK    2  A    between atoms: O_2  and  C_3
REMARK    3  A    between atoms: N_15  and  C_16
REMARK    4  A    between atoms: C_19  and  C_20
REMARK    5  A    between atoms: C_20  and  C_21
REMARK    6  A    between atoms: C_20  and  C_22
REMARK    7  A    between atoms: C_20  and  C_23
REMARK                            x       y       z     vdW  Elec       q    Type
REMARK                         _______ _______ _______ _____ _____    ______ ____
ROOT
ATOM      1  C   UNL     1       6.381   5.287  17.372  0.00  0.00    +0.000 A 
ATOM      2  C   UNL     1       6.018   6.622  17.256  0.00  0.00    +0.000 A 
ATOM      3  C   UNL     1       4.840   7.095  17.830  0.00  0.00    +0.000 A 
ATOM      4  C   UNL     1       3.989   6.193  18.500  0.00  0.00    +0.000 A 
ATOM      5  C   UNL     1       4.352   4.857  18.672  0.00  0.00    +0.000 A 
ATOM      6  C   UNL     1       5.561   4.405  18.091  0.00  0.00    +0.000 A 
ATOM      7  C   UNL     1       3.339   4.232  19.465  0.00  0.00    +0.000 A 
ATOM      8  C   UNL     1       3.162   2.922  19.969  0.00  0.00    +0.000 A 
ATOM      9  C   UNL     1       2.021   2.606  20.720  0.00  0.00    +0.000 A 
ATOM     10  C   UNL     1       1.045   3.561  20.958  0.00  0.00    +0.000 A 
ATOM     11  C   UNL     1       1.189   4.851  20.453  0.00  0.00    +0.000 A 
ATOM     12  C   UNL     1       2.360   5.195  19.743  0.00  0.00    +0.000 A 
ATOM     13  N   UNL     1       2.766   6.390  19.139  0.00  0.00    +0.000 N 
ENDROOT
BRANCH  13  14
ATOM     14  C   UNL     1       2.040   7.617  19.169  0.00  0.00    +0.000 A 
ATOM     15  C   UNL     1       1.612   8.139  20.382  0.00  0.00    +0.000 A 
ATOM     16  C   UNL     1       0.821   9.282  20.411  0.00  0.00    +0.000 A 
ATOM     17  C   UNL     1       0.467   9.964  19.232  0.00  0.00    +0.000 A 
ATOM     18  C   UNL     1       0.975   9.463  18.024  0.00  0.00    +0.000 A 
ATOM     19  C   UNL     1       1.728   8.294  17.985  0.00  0.00    +0.000 A 
BRANCH  17  20
ATOM     20  C   UNL     1      -0.460  11.188  19.252  0.00  0.00    +0.000 C 
ATOM     21  C   UNL     1       0.249  12.469  18.759  0.00  0.00    +0.000 C 
ATOM     22  C   UNL     1      -1.682  10.938  18.349  0.00  0.00    +0.000 C 
ATOM     23  C   UNL     1      -0.946  11.460  20.691  0.00  0.00    +0.000 C 
ENDBRANCH  17  20
ENDBRANCH  13  14
BRANCH   1  25
ATOM     24  C   UNL     1       8.485   4.273  17.778  0.00  0.00    +0.000 C 
ATOM     25  O   UNL     1       7.519   4.738  16.841  0.00  0.00    +0.000 OA
ENDBRANCH   1  25
TORSDOF 3
ENDMDL
MODEL 9
REMARK VINA RESULT:      -7.4      1.525      2.040
REMARK  Name = 
REMARK  7 active torsions:
REMARK  status: ('A' for Active; 'I' for Inactive)
REMARK    1  A    between atoms: C_1  and  O_2
REMARK    2  A    between atoms: O_2  and  C_3
REMARK    3  A    between atoms: N_15  and  C_16
REMARK    4  A    between atoms: C_19  and  C_20
REMARK    5  A    between atoms: C_20  and  C_21
REMARK    6  A    between atoms: C_20  and  C_22
REMARK    7  A    between atoms: C_20  and  C_23
REMARK                            x       y       z     vdW  Elec       q    Type
REMARK                         _______ _______ _______ _____ _____    ______ ____
ROOT
ATOM      1  C   UNL     1       6.335   5.324  17.309  0.00  0.00    +0.000 A 
ATOM      2  C   UNL     1       5.955   6.655  17.198  0.00  0.00    +0.000 A 
ATOM      3  C   UNL     1       4.778   7.113  17.785  0.00  0.00    +0.000 A 
ATOM      4  C   UNL     1       3.943   6.201  18.463  0.00  0.00    +0.000 A 
ATOM      5  C   UNL     1       4.323   4.868  18.629  0.00  0.00    +0.000 A 
ATOM      6  C   UNL     1       5.532   4.432  18.035  0.00  0.00    +0.000 A 
ATOM      7  C   UNL     1       3.326   4.232  19.432  0.00  0.00    +0.000 A 
ATOM      8  C   UNL     1       3.169   2.918  19.935  0.00  0.00    +0.000 A 
ATOM      9  C   UNL     1       2.039   2.589  20.698  0.00  0.00    +0.000 A 
ATOM     10  C   UNL     1       1.055   3.533  20.947  0.00  0.00    +0.000 A 
ATOM     11  C   UNL     1       1.179   4.825  20.442  0.00  0.00    +0.000 A 
ATOM     12  C   UNL     1       2.339   5.183  19.720  0.00  0.00    +0.000 A 
ATOM     13  N   UNL     1       2.725   6.383  19.114  0.00  0.00    +0.000 N 
ENDROOT
BRANCH  13  14
ATOM     14  C   UNL     1       1.985   7.602  19.153  0.00  0.00    +0.000 A 
ATOM     15  C   UNL     1       1.691   8.271  17.973  0.00  0.00    +0.000 A 
ATOM     16  C   UNL     1       1.055   9.507  18.011  0.00  0.00    +0.000 A 
ATOM     17  C   UNL     1       0.655  10.094  19.226  0.00  0.00    +0.000 A 
ATOM     18  C   UNL     1       0.893   9.364  20.400  0.00  0.00    +0.000 A 
ATOM     19  C   UNL     1       1.570   8.149  20.372  0.00  0.00    +0.000 A 
BRANCH  17  20
ATOM     20  C   UNL     1       0.012  11.488  19.278  0.00  0.00    +0.000 C 
ATOM     21  C   UNL     1       0.960  12.591  18.756  0.00  0.00    +0.000 C 
ATOM     22  C   UNL     1      -1.267  11.510  18.421  0.00  0.00    +0.000 C 
ATOM     23  C   UNL     1      -0.352  11.848  20.734  0.00  0.00    +0.000 C 
ENDBRANCH  17  20
ENDBRANCH  13  14
BRANCH   1  25
ATOM     24  C   UNL     1       8.425   4.273  17.691  0.00  0.00    +0.000 C 
ATOM     25  O   UNL     1       7.473   4.788  16.766  0.00  0.00    +0.000 OA
ENDBRANCH   1  25
TORSDOF 3
ENDMDL
