MODEL 1
REMARK VINA RESULT:      -7.7      0.000      0.000
REMARK  Name = 
REMARK  5 active torsions:
REMARK  status: ('A' for Active; 'I' for Inactive)
REMARK    1  A    between atoms: C_7  and  O_8
REMARK    2  A    between atoms: O_8  and  C_9
REMARK    3  A    between atoms: C_9  and  C_10
REMARK    4  A    between atoms: C_10  and  N_11
REMARK    5  A    between atoms: N_14  and  C_15
REMARK                            x       y       z     vdW  Elec       q    Type
REMARK                         _______ _______ _______ _____ _____    ______ ____
ROOT
ATOM      1  C   UNL     1       3.945   2.761  18.934  0.00  0.00    +0.000 C 
ENDROOT
BRANCH   1   2
ATOM      2  O   UNL     1       5.135   3.501  19.251  0.00  0.00    +0.000 OA
BRANCH   2   9
ATOM      3  S   UNL     1       7.234   4.491  12.151  0.00  0.00    +0.000 S 
ATOM      4  C   UNL     1       6.941   4.547  13.772  0.00  0.00    +0.000 A 
ATOM      5  N   UNL     1       7.479   5.472  14.677  0.00  0.00    +0.000 N 
ATOM      6  C   UNL     1       6.992   5.163  15.947  0.00  0.00    +0.000 A 
ATOM      7  C   UNL     1       7.254   5.770  17.148  0.00  0.00    +0.000 A 
ATOM      8  C   UNL     1       6.629   5.223  18.278  0.00  0.00    +0.000 A 
ATOM      9  C   UNL     1       5.778   4.095  18.186  0.00  0.00    +0.000 A 
ATOM     10  C   UNL     1       5.529   3.503  16.936  0.00  0.00    +0.000 A 
ATOM     11  C   UNL     1       6.158   4.051  15.842  0.00  0.00    +0.000 A 
ATOM     12  N   UNL     1       6.117   3.677  14.498  0.00  0.00    +0.000 N 
ATOM     13  H   UNL     1       8.116   6.218  14.436  0.00  0.00    +0.000 HD
ATOM     14  H   UNL     1       5.602   2.904  14.107  0.00  0.00    +0.000 HD
ENDBRANCH   2   9
ENDBRANCH   1   2
BRANCH   1  15
ATOM     15  C   UNL     1       2.846   3.014  19.987  0.00  0.00    +0.000 C 
BRANCH  15  16
ATOM     16  N   UNL     1       1.751   3.858  19.476  0.00  0.00    +0.000 NA
ATOM     17  C   UNL     1       1.122   4.738  20.488  0.00  0.00    +0.000 C 
ATOM     18  C   UNL     1       1.847   6.066  20.823  0.00  0.00    +0.000 C 
ATOM     19  N   UNL     1       2.174   6.794  19.590  0.00  0.00    +0.000 N 
ATOM     20  C   UNL     1       2.902   5.991  18.596  0.00  0.00    +0.000 C 
ATOM     21  C   UNL     1       2.153   4.669  18.301  0.00  0.00    +0.000 C 
BRANCH  19  22
ATOM     22  C   UNL     1       1.805   8.108  19.387  0.00  0.00    +0.000 A 
ATOM     23  C   UNL     1       1.140   8.851  20.380  0.00  0.00    +0.000 A 
ATOM     24  C   UNL     1       0.734  10.178  20.173  0.00  0.00    +0.000 A 
ATOM     25  C   UNL     1       0.992  10.796  18.958  0.00  0.00    +0.000 A 
ATOM     26 CL   UNL     1       0.490  12.418  18.690  0.00  0.00    +0.000 Cl
ATOM     27  C   UNL     1       1.654  10.099  17.957  0.00  0.00    +0.000 A 
ATOM     28  C   UNL     1       2.053   8.774  18.176  0.00  0.00    +0.000 A 
ENDBRANCH  19  22
ENDBRANCH  15  16
ENDBRANCH   1  15
TORSDOF 5
ENDMDL
MODEL 2
REMARK VINA RESULT:      -7.5      0.415      1.025
REMARK  Name = 
REMARK  5 active torsions:
REMARK  status: ('A' for Active; 'I' for Inactive)
REMARK    1  A    between atoms: C_7  and  O_8
REMARK    2  A    between atoms: O_8  and  C_9
REMARK    3  A    between atoms: C_9  and  C_10
REMARK    4  A    between atoms: C_10  and  N_11
REMARK    5  A    between atoms: N_14  and  C_15
REMARK                            x       y       z     vdW  Elec       q    Type
REMARK                         _______ _______ _______ _____ _____    ______ ____
ROOT
ATOM      1  C   UNL     1       3.620   2.646  18.539  0.00  0.00    +0.000 C 
ENDROOT
BRANCH   1   2
ATOM      2  O   UNL     1       4.764   3.387  18.992  0.00  0.00    +0.000 OA
BRANCH   2   9
ATOM      3  S   UNL     1       7.364   4.623  12.099  0.00  0.00    +0.000 S 
ATOM      4  C   UNL     1       6.986   4.598  13.704  0.00  0.00    +0.000 A 
ATOM      5  N   UNL     1       7.575   5.386  14.702  0.00  0.00    +0.000 N 
ATOM      6  C   UNL     1       6.985   5.048  15.919  0.00  0.00    +0.000 A 
ATOM      7  C   UNL     1       7.245   5.533  17.175  0.00  0.00    +0.000 A 
ATOM      8  C   UNL     1       6.499   4.985  18.229  0.00  0.00    +0.000 A 
ATOM      9  C   UNL     1       5.530   3.975  18.009  0.00  0.00    +0.000 A 
ATOM     10  C   UNL     1       5.287   3.508  16.706  0.00  0.00    +0.000 A 
ATOM     11  C   UNL     1       6.035   4.053  15.690  0.00  0.00    +0.000 A 
ATOM     12  N   UNL     1       6.029   3.783  14.320  0.00  0.00    +0.000 N 
ATOM     13  H   UNL     1       8.306   6.066  14.550  0.00  0.00    +0.000 HD
ATOM     14  H   UNL     1       5.452   3.106  13.846  0.00  0.00    +0.000 HD
ENDBRANCH   2   9
ENDBRANCH   1   2
BRANCH   1  15
ATOM     15  C   UNL     1       2.533   2.594  19.633  0.00  0.00    +0.000 C 
BRANCH  15  16
ATOM     16  N   UNL     1       1.432   3.541  19.389  0.00  0.00    +0.000 NA
ATOM     17  C   UNL     1       1.166   4.483  20.500  0.00  0.00    +0.000 C 
ATOM     18  C   UNL     1       2.076   5.733  20.605  0.00  0.00    +0.000 C 
ATOM     19  N   UNL     1       2.151   6.420  19.309  0.00  0.00    +0.000 N 
ATOM     20  C   UNL     1       2.524   5.544  18.187  0.00  0.00    +0.000 C 
ATOM     21  C   UNL     1       1.601   4.304  18.128  0.00  0.00    +0.000 C 
BRANCH  19  22
ATOM     22  C   UNL     1       1.870   7.763  19.167  0.00  0.00    +0.000 A 
ATOM     23  C   UNL     1       2.279   8.490  18.033  0.00  0.00    +0.000 A 
ATOM     24  C   UNL     1       2.024   9.862  17.894  0.00  0.00    +0.000 A 
ATOM     25  C   UNL     1       1.342  10.542  18.893  0.00  0.00    +0.000 A 
ATOM     26 CL   UNL     1       1.034  12.226  18.737  0.00  0.00    +0.000 Cl
ATOM     27  C   UNL     1       0.914   9.858  20.022  0.00  0.00    +0.000 A 
ATOM     28  C   UNL     1       1.177   8.488  20.150  0.00  0.00    +0.000 A 
ENDBRANCH  19  22
ENDBRANCH  15  16
ENDBRANCH   1  15
TORSDOF 5
ENDMDL
MODEL 3
REMARK VINA RESULT:      -7.4      3.975      7.252
REMARK  Name = 
REMARK  5 active torsions:
REMARK  status: ('A' for Active; 'I' for Inactive)
REMARK    1  A    between atoms: C_7  and  O_8
REMARK    2  A    between atoms: O_8  and  C_9
REMARK    3  A    between atoms: C_9  and  C_10
REMARK    4  A    between atoms: C_10  and  N_11
REMARK    5  A    between atoms: N_14  and  C_15
REMARK                            x       y       z     vdW  Elec       q    Type
REMARK                         _______ _______ _______ _____ _____    ______ ____
ROOT
ATOM      1  C   UNL     1       1.525   4.485  20.090  0.00  0.00    +0.000 C 
ENDROOT
BRANCH   1   2
ATOM      2  O   UNL     1       2.103   5.624  20.746  0.00  0.00    +0.000 OA
BRANCH   2   9
ATOM      3  S   UNL     1      -0.091  12.705  19.819  0.00  0.00    +0.000 S 
ATOM      4  C   UNL     1       0.532  11.181  19.730  0.00  0.00    +0.000 A 
ATOM      5  N   UNL     1       1.203  10.627  18.632  0.00  0.00    +0.000 N 
ATOM      6  C   UNL     1       1.552   9.316  18.958  0.00  0.00    +0.000 A 
ATOM      7  C   UNL     1       2.199   8.375  18.199  0.00  0.00    +0.000 A 
ATOM      8  C   UNL     1       2.398   7.119  18.791  0.00  0.00    +0.000 A 
ATOM      9  C   UNL     1       1.948   6.834  20.103  0.00  0.00    +0.000 A 
ATOM     10  C   UNL     1       1.294   7.826  20.852  0.00  0.00    +0.000 A 
ATOM     11  C   UNL     1       1.101   9.047  20.250  0.00  0.00    +0.000 A 
ATOM     12  N   UNL     1       0.481  10.202  20.730  0.00  0.00    +0.000 N 
ATOM     13  H   UNL     1       1.383  11.103  17.759  0.00  0.00    +0.000 HD
ATOM     14  H   UNL     1       0.051  10.318  21.634  0.00  0.00    +0.000 HD
ENDBRANCH   2   9
ENDBRANCH   1   2
BRANCH   1  15
ATOM     15  C   UNL     1       2.153   3.175  20.611  0.00  0.00    +0.000 C 
BRANCH  15  16
ATOM     16  N   UNL     1       2.967   2.489  19.593  0.00  0.00    +0.000 NA
ATOM     17  C   UNL     1       2.512   2.688  18.197  0.00  0.00    +0.000 C 
ATOM     18  C   UNL     1       2.934   4.003  17.493  0.00  0.00    +0.000 C 
ATOM     19  N   UNL     1       4.381   4.216  17.636  0.00  0.00    +0.000 N 
ATOM     20  C   UNL     1       4.864   4.139  19.023  0.00  0.00    +0.000 C 
ATOM     21  C   UNL     1       4.409   2.819  19.691  0.00  0.00    +0.000 C 
BRANCH  19  22
ATOM     22  C   UNL     1       5.204   4.443  16.552  0.00  0.00    +0.000 A 
ATOM     23  C   UNL     1       4.779   4.190  15.234  0.00  0.00    +0.000 A 
ATOM     24  C   UNL     1       5.619   4.390  14.129  0.00  0.00    +0.000 A 
ATOM     25  C   UNL     1       6.911   4.859  14.319  0.00  0.00    +0.000 A 
ATOM     26 CL   UNL     1       7.951   5.098  12.972  0.00  0.00    +0.000 Cl
ATOM     27  C   UNL     1       7.363   5.131  15.603  0.00  0.00    +0.000 A 
ATOM     28  C   UNL     1       6.515   4.924  16.700  0.00  0.00    +0.000 A 
ENDBRANCH  19  22
ENDBRANCH  15  16
ENDBRANCH   1  15
TORSDOF 5
ENDMDL
MODEL 4
REMARK VINA RESULT:      -7.3      1.918      2.529
REMARK  Name = 
REMARK  5 active torsions:
REMARK  status: ('A' for Active; 'I' for Inactive)
REMARK    1  A    between atoms: C_7  and  O_8
REMARK    2  A    between atoms: O_8  and  C_9
REMARK    3  A    between atoms: C_9  and  C_10
REMARK    4  A    between atoms: C_10  and  N_11
REMARK    5  A    between atoms: N_14  and  C_15
REMARK                            x       y       z     vdW  Elec       q    Type
REMARK                         _______ _______ _______ _____ _____    ______ ____
ROOT
ATOM      1  C   UNL     1       2.981   2.216  17.997  0.00  0.00    +0.000 C 
ENDROOT
BRANCH   1   2
ATOM      2  O   UNL     1       4.415   2.297  17.993  0.00  0.00    +0.000 OA
BRANCH   2   9
ATOM      3  S   UNL     1       8.196   8.739  17.937  0.00  0.00    +0.000 S 
ATOM      4  C   UNL     1       7.328   7.372  17.628  0.00  0.00    +0.000 A 
ATOM      5  N   UNL     1       6.755   7.018  16.399  0.00  0.00    +0.000 N 
ATOM      6  C   UNL     1       6.096   5.800  16.568  0.00  0.00    +0.000 A 
ATOM      7  C   UNL     1       5.375   5.070  15.658  0.00  0.00    +0.000 A 
ATOM      8  C   UNL     1       4.802   3.877  16.123  0.00  0.00    +0.000 A 
ATOM      9  C   UNL     1       4.953   3.451  17.465  0.00  0.00    +0.000 A 
ATOM     10  C   UNL     1       5.704   4.224  18.366  0.00  0.00    +0.000 A 
ATOM     11  C   UNL     1       6.251   5.393  17.893  0.00  0.00    +0.000 A 
ATOM     12  N   UNL     1       7.020   6.358  18.544  0.00  0.00    +0.000 N 
ATOM     13  H   UNL     1       6.809   7.566  15.553  0.00  0.00    +0.000 HD
ATOM     14  H   UNL     1       7.297   6.348  19.513  0.00  0.00    +0.000 HD
ENDBRANCH   2   9
ENDBRANCH   1   2
BRANCH   1  15
ATOM     15  C   UNL     1       2.412   2.641  19.367  0.00  0.00    +0.000 C 
BRANCH  15  16
ATOM     16  N   UNL     1       1.320   3.623  19.250  0.00  0.00    +0.000 NA
ATOM     17  C   UNL     1       1.173   4.528  20.413  0.00  0.00    +0.000 C 
ATOM     18  C   UNL     1       2.122   5.752  20.486  0.00  0.00    +0.000 C 
ATOM     19  N   UNL     1       2.107   6.485  19.213  0.00  0.00    +0.000 N 
ATOM     20  C   UNL     1       2.361   5.644  18.033  0.00  0.00    +0.000 C 
ATOM     21  C   UNL     1       1.403   4.429  18.008  0.00  0.00    +0.000 C 
BRANCH  19  22
ATOM     22  C   UNL     1       1.851   7.839  19.144  0.00  0.00    +0.000 A 
ATOM     23  C   UNL     1       2.223   8.607  18.024  0.00  0.00    +0.000 A 
ATOM     24  C   UNL     1       1.995   9.989  17.957  0.00  0.00    +0.000 A 
ATOM     25  C   UNL     1       1.377  10.638  19.017  0.00  0.00    +0.000 A 
ATOM     26 CL   UNL     1       1.101  12.333  18.949  0.00  0.00    +0.000 Cl
ATOM     27  C   UNL     1       0.986   9.914  20.135  0.00  0.00    +0.000 A 
ATOM     28  C   UNL     1       1.223   8.534  20.190  0.00  0.00    +0.000 A 
ENDBRANCH  19  22
ENDBRANCH  15  16
ENDBRANCH   1  15
TORSDOF 5
ENDMDL
MODEL 5
REMARK VINA RESULT:      -7.3      6.303      8.097
REMARK  Name = 
REMARK  5 active torsions:
REMARK  status: ('A' for Active; 'I' for Inactive)
REMARK    1  A    between atoms: C_7  and  O_8
REMARK    2  A    between atoms: O_8  and  C_9
REMARK    3  A    between atoms: C_9  and  C_10
REMARK    4  A    between atoms: C_10  and  N_11
REMARK    5  A    between atoms: N_14  and  C_15
REMARK                            x       y       z     vdW  Elec       q    Type
REMARK                         _______ _______ _______ _____ _____    ______ ____
ROOT
ATOM      1  C   UNL     1       8.308   9.022  17.418  0.00  0.00    +0.000 C 
ENDROOT
BRANCH   1   2
ATOM      2  O   UNL     1       8.183  10.144  18.307  0.00  0.00    +0.000 OA
BRANCH   2   9
ATOM      3  S   UNL     1      11.062  16.960  17.285  0.00  0.00    +0.000 S 
ATOM      4  C   UNL     1      10.737  15.369  17.566  0.00  0.00    +0.000 A 
ATOM      5  N   UNL     1      11.684  14.360  17.788  0.00  0.00    +0.000 N 
ATOM      6  C   UNL     1      10.998  13.159  17.966  0.00  0.00    +0.000 A 
ATOM      7  C   UNL     1      11.494  11.900  18.190  0.00  0.00    +0.000 A 
ATOM      8  C   UNL     1      10.554  10.866  18.312  0.00  0.00    +0.000 A 
ATOM      9  C   UNL     1       9.163  11.108  18.203  0.00  0.00    +0.000 A 
ATOM     10  C   UNL     1       8.692  12.412  17.980  0.00  0.00    +0.000 A 
ATOM     11  C   UNL     1       9.630  13.410  17.854  0.00  0.00    +0.000 A 
ATOM     12  N   UNL     1       9.469  14.775  17.618  0.00  0.00    +0.000 N 
ATOM     13  H   UNL     1      12.685  14.494  17.800  0.00  0.00    +0.000 HD
ATOM     14  H   UNL     1       8.596  15.261  17.487  0.00  0.00    +0.000 HD
ENDBRANCH   2   9
ENDBRANCH   1   2
BRANCH   1  15
ATOM     15  C   UNL     1       8.294   7.695  18.206  0.00  0.00    +0.000 C 
BRANCH  15  16
ATOM     16  N   UNL     1       7.676   6.591  17.451  0.00  0.00    +0.000 NA
ATOM     17  C   UNL     1       7.536   5.325  18.206  0.00  0.00    +0.000 C 
ATOM     18  C   UNL     1       6.327   5.201  19.169  0.00  0.00    +0.000 C 
ATOM     19  N   UNL     1       5.084   5.569  18.476  0.00  0.00    +0.000 N 
ATOM     20  C   UNL     1       5.137   6.875  17.803  0.00  0.00    +0.000 C 
ATOM     21  C   UNL     1       6.365   6.961  16.864  0.00  0.00    +0.000 C 
BRANCH  19  22
ATOM     22  C   UNL     1       3.981   4.740  18.449  0.00  0.00    +0.000 A 
ATOM     23  C   UNL     1       2.761   5.151  17.879  0.00  0.00    +0.000 A 
ATOM     24  C   UNL     1       1.626   4.327  17.873  0.00  0.00    +0.000 A 
ATOM     25  C   UNL     1       1.690   3.060  18.437  0.00  0.00    +0.000 A 
ATOM     26 CL   UNL     1       0.302   2.046  18.444  0.00  0.00    +0.000 Cl
ATOM     27  C   UNL     1       2.879   2.615  18.999  0.00  0.00    +0.000 A 
ATOM     28  C   UNL     1       4.005   3.450  19.001  0.00  0.00    +0.000 A 
ENDBRANCH  19  22
ENDBRANCH  15  16
ENDBRANCH   1  15
TORSDOF 5
ENDMDL
MODEL 6
REMARK VINA RESULT:      -7.2      2.663      3.341
REMARK  Name = 
REMARK  5 active torsions:
REMARK  status: ('A' for Active; 'I' for Inactive)
REMARK    1  A    between atoms: C_7  and  O_8
REMARK    2  A    between atoms: O_8  and  C_9
REMARK    3  A    between atoms: C_9  and  C_10
REMARK    4  A    between atoms: C_10  and  N_11
REMARK    5  A    between atoms: N_14  and  C_15
REMARK                            x       y       z     vdW  Elec       q    Type
REMARK                         _______ _______ _______ _____ _____    ______ ____
ROOT
ATOM      1  C   UNL     1       4.189   4.095  16.643  0.00  0.00    +0.000 C 
ENDROOT
BRANCH   1   2
ATOM      2  O   UNL     1       5.610   3.894  16.571  0.00  0.00    +0.000 OA
BRANCH   2   9
ATOM      3  S   UNL     1       8.823  10.463  18.096  0.00  0.00    +0.000 S 
ATOM      4  C   UNL     1       8.252   8.917  18.040  0.00  0.00    +0.000 A 
ATOM      5  N   UNL     1       8.562   7.890  18.942  0.00  0.00    +0.000 N 
ATOM      6  C   UNL     1       7.888   6.740  18.531  0.00  0.00    +0.000 A 
ATOM      7  C   UNL     1       7.897   5.485  19.081  0.00  0.00    +0.000 A 
ATOM      8  C   UNL     1       7.127   4.508  18.433  0.00  0.00    +0.000 A 
ATOM      9  C   UNL     1       6.383   4.801  17.264  0.00  0.00    +0.000 A 
ATOM     10  C   UNL     1       6.394   6.101  16.732  0.00  0.00    +0.000 A 
ATOM     11  C   UNL     1       7.162   7.041  17.378  0.00  0.00    +0.000 A 
ATOM     12  N   UNL     1       7.379   8.388  17.082  0.00  0.00    +0.000 N 
ATOM     13  H   UNL     1       9.179   7.980  19.737  0.00  0.00    +0.000 HD
ATOM     14  H   UNL     1       6.993   8.899  16.304  0.00  0.00    +0.000 HD
ENDBRANCH   2   9
ENDBRANCH   1   2
BRANCH   1  15
ATOM     15  C   UNL     1       3.710   4.093  18.110  0.00  0.00    +0.000 C 
BRANCH  15  16
ATOM     16  N   UNL     1       2.367   4.677  18.271  0.00  0.00    +0.000 NA
ATOM     17  C   UNL     1       1.889   4.758  19.671  0.00  0.00    +0.000 C 
ATOM     18  C   UNL     1       2.393   5.948  20.526  0.00  0.00    +0.000 C 
ATOM     19  N   UNL     1       2.197   7.213  19.804  0.00  0.00    +0.000 N 
ATOM     20  C   UNL     1       2.757   7.220  18.444  0.00  0.00    +0.000 C 
ATOM     21  C   UNL     1       2.240   6.009  17.631  0.00  0.00    +0.000 C 
BRANCH  19  22
ATOM     22  C   UNL     1       1.525   8.283  20.359  0.00  0.00    +0.000 A 
ATOM     23  C   UNL     1       1.138   9.394  19.587  0.00  0.00    +0.000 A 
ATOM     24  C   UNL     1       0.481  10.500  20.147  0.00  0.00    +0.000 A 
ATOM     25  C   UNL     1       0.188  10.513  21.503  0.00  0.00    +0.000 A 
ATOM     26 CL   UNL     1      -0.608  11.867  22.201  0.00  0.00    +0.000 Cl
ATOM     27  C   UNL     1       0.544   9.431  22.296  0.00  0.00    +0.000 A 
ATOM     28  C   UNL     1       1.203   8.334  21.724  0.00  0.00    +0.000 A 
ENDBRANCH  19  22
ENDBRANCH  15  16
ENDBRANCH   1  15
TORSDOF 5
ENDMDL
MODEL 7
REMARK VINA RESULT:      -7.1      2.493      3.056
REMARK  Name = 
REMARK  5 active torsions:
REMARK  status: ('A' for Active; 'I' for Inactive)
REMARK    1  A    between atoms: C_7  and  O_8
REMARK    2  A    between atoms: O_8  and  C_9
REMARK    3  A    between atoms: C_9  and  C_10
REMARK    4  A    between atoms: C_10  and  N_11
REMARK    5  A    between atoms: N_14  and  C_15
REMARK                            x       y       z     vdW  Elec       q    Type
REMARK                         _______ _______ _______ _____ _____    ______ ____
ROOT
ATOM      1  C   UNL     1       3.879   3.000  17.588  0.00  0.00    +0.000 C 
ENDROOT
BRANCH   1   2
ATOM      2  O   UNL     1       5.298   3.222  17.541  0.00  0.00    +0.000 OA
BRANCH   2   9
ATOM      3  S   UNL     1       9.133   9.515  18.763  0.00  0.00    +0.000 S 
ATOM      4  C   UNL     1       8.161   8.291  18.239  0.00  0.00    +0.000 A 
ATOM      5  N   UNL     1       7.235   8.363  17.190  0.00  0.00    +0.000 N 
ATOM      6  C   UNL     1       6.610   7.121  17.082  0.00  0.00    +0.000 A 
ATOM      7  C   UNL     1       5.624   6.717  16.220  0.00  0.00    +0.000 A 
ATOM      8  C   UNL     1       5.169   5.397  16.358  0.00  0.00    +0.000 A 
ATOM      9  C   UNL     1       5.697   4.527  17.343  0.00  0.00    +0.000 A 
ATOM     10  C   UNL     1       6.712   4.975  18.205  0.00  0.00    +0.000 A 
ATOM     11  C   UNL     1       7.137   6.275  18.058  0.00  0.00    +0.000 A 
ATOM     12  N   UNL     1       8.102   6.994  18.765  0.00  0.00    +0.000 N 
ATOM     13  H   UNL     1       7.055   9.183  16.629  0.00  0.00    +0.000 HD
ATOM     14  H   UNL     1       8.655   6.655  19.536  0.00  0.00    +0.000 HD
ENDBRANCH   2   9
ENDBRANCH   1   2
BRANCH   1  15
ATOM     15  C   UNL     1       3.309   3.394  18.966  0.00  0.00    +0.000 C 
BRANCH  15  16
ATOM     16  N   UNL     1       2.055   4.162  18.865  0.00  0.00    +0.000 NA
ATOM     17  C   UNL     1       1.428   4.499  20.163  0.00  0.00    +0.000 C 
ATOM     18  C   UNL     1       1.992   5.725  20.927  0.00  0.00    +0.000 C 
ATOM     19  N   UNL     1       2.071   6.889  20.035  0.00  0.00    +0.000 N 
ATOM     20  C   UNL     1       2.786   6.633  18.776  0.00  0.00    +0.000 C 
ATOM     21  C   UNL     1       2.202   5.395  18.054  0.00  0.00    +0.000 C 
BRANCH  19  22
ATOM     22  C   UNL     1       1.499   8.104  20.354  0.00  0.00    +0.000 A 
ATOM     23  C   UNL     1       1.256   9.087  19.377  0.00  0.00    +0.000 A 
ATOM     24  C   UNL     1       0.703  10.336  19.696  0.00  0.00    +0.000 A 
ATOM     25  C   UNL     1       0.371  10.627  21.011  0.00  0.00    +0.000 A 
ATOM     26 CL   UNL     1      -0.299  12.158  21.414  0.00  0.00    +0.000 Cl
ATOM     27  C   UNL     1       0.585   9.680  22.002  0.00  0.00    +0.000 A 
ATOM     28  C   UNL     1       1.141   8.437  21.670  0.00  0.00    +0.000 A 
ENDBRANCH  19  22
ENDBRANCH  15  16
ENDBRANCH   1  15
TORSDOF 5
ENDMDL
MODEL 8
REMARK VINA RESULT:      -7.1      4.227      7.722
REMARK  Name = 
REMARK  5 active torsions:
REMARK  status: ('A' for Active; 'I' for Inactive)
REMARK    1  A    between atoms: C_7  and  O_8
REMARK    2  A    between atoms: O_8  and  C_9
REMARK    3  A    between atoms: C_9  and  C_10
REMARK    4  A    between atoms: C_10  and  N_11
REMARK    5  A    between atoms: N_14  and  C_15
REMARK                            x       y       z     vdW  Elec       q    Type
REMARK                         _______ _______ _______ _____ _____    ______ ____
ROOT
ATOM      1  C   UNL     1       1.484   5.377  20.480  0.00  0.00    +0.000 C 
ENDROOT
BRANCH   1   2
ATOM      2  O   UNL     1       2.082   6.605  20.924  0.00  0.00    +0.000 OA
BRANCH   2   9
ATOM      3  S   UNL     1      -1.647  13.014  20.011  0.00  0.00    +0.000 S 
ATOM      4  C   UNL     1      -0.698  11.668  19.918  0.00  0.00    +0.000 A 
ATOM      5  N   UNL     1       0.076  11.279  18.817  0.00  0.00    +0.000 N 
ATOM      6  C   UNL     1       0.711  10.080  19.141  0.00  0.00    +0.000 A 
ATOM      7  C   UNL     1       1.550   9.308  18.380  0.00  0.00    +0.000 A 
ATOM      8  C   UNL     1       2.028   8.129  18.969  0.00  0.00    +0.000 A 
ATOM      9  C   UNL     1       1.657   7.749  20.283  0.00  0.00    +0.000 A 
ATOM     10  C   UNL     1       0.799   8.570  21.035  0.00  0.00    +0.000 A 
ATOM     11  C   UNL     1       0.336   9.717  20.435  0.00  0.00    +0.000 A 
ATOM     12  N   UNL     1      -0.526  10.703  20.918  0.00  0.00    +0.000 N 
ATOM     13  H   UNL     1       0.141  11.783  17.945  0.00  0.00    +0.000 HD
ATOM     14  H   UNL     1      -0.969  10.719  21.823  0.00  0.00    +0.000 HD
ENDBRANCH   2   9
ENDBRANCH   1   2
BRANCH   1  15
ATOM     15  C   UNL     1       2.377   4.171  20.841  0.00  0.00    +0.000 C 
BRANCH  15  16
ATOM     16  N   UNL     1       2.753   3.368  19.665  0.00  0.00    +0.000 NA
ATOM     17  C   UNL     1       2.309   3.924  18.366  0.00  0.00    +0.000 C 
ATOM     18  C   UNL     1       3.173   5.048  17.741  0.00  0.00    +0.000 C 
ATOM     19  N   UNL     1       4.587   4.648  17.713  0.00  0.00    +0.000 N 
ATOM     20  C   UNL     1       5.107   4.194  19.012  0.00  0.00    +0.000 C 
ATOM     21  C   UNL     1       4.207   3.083  19.606  0.00  0.00    +0.000 C 
BRANCH  19  22
ATOM     22  C   UNL     1       5.341   4.680  16.558  0.00  0.00    +0.000 A 
ATOM     23  C   UNL     1       6.656   5.180  16.546  0.00  0.00    +0.000 A 
ATOM     24  C   UNL     1       7.420   5.244  15.371  0.00  0.00    +0.000 A 
ATOM     25  C   UNL     1       6.880   4.798  14.173  0.00  0.00    +0.000 A 
ATOM     26 CL   UNL     1       7.804   4.881  12.726  0.00  0.00    +0.000 Cl
ATOM     27  C   UNL     1       5.590   4.288  14.146  0.00  0.00    +0.000 A 
ATOM     28  C   UNL     1       4.837   4.232  15.326  0.00  0.00    +0.000 A 
ENDBRANCH  19  22
ENDBRANCH  15  16
ENDBRANCH   1  15
TORSDOF 5
ENDMDL
MODEL 9
REMARK VINA RESULT:      -7.0      3.823      5.432
REMARK  Name = 
REMARK  5 active torsions:
REMARK  status: ('A' for Active; 'I' for Inactive)
REMARK    1  A    between atoms: C_7  and  O_8
REMARK    2  A    between atoms: O_8  and  C_9
REMARK    3  A    between atoms: C_9  and  C_10
REMARK    4  A    between atoms: C_10  and  N_11
REMARK    5  A    between atoms: N_14  and  C_15
REMARK                            x       y       z     vdW  Elec       q    Type
REMARK                         _______ _______ _______ _____ _____    ______ ____
ROOT
ATOM      1  C   UNL     1       2.125   7.479  20.160  0.00  0.00    +0.000 C 
ENDROOT
BRANCH   1   2
ATOM      2  O   UNL     1       2.005   6.048  20.119  0.00  0.00    +0.000 OA
BRANCH   2   9
ATOM      3  S   UNL     1       6.730   4.728  14.487  0.00  0.00    +0.000 S 
ATOM      4  C   UNL     1       5.823   4.752  15.863  0.00  0.00    +0.000 A 
ATOM      5  N   UNL     1       5.836   3.786  16.878  0.00  0.00    +0.000 N 
ATOM      6  C   UNL     1       4.915   4.173  17.851  0.00  0.00    +0.000 A 
ATOM      7  C   UNL     1       4.564   3.539  19.015  0.00  0.00    +0.000 A 
ATOM      8  C   UNL     1       3.582   4.163  19.799  0.00  0.00    +0.000 A 
ATOM      9  C   UNL     1       2.977   5.382  19.405  0.00  0.00    +0.000 A 
ATOM     10  C   UNL     1       3.368   6.005  18.208  0.00  0.00    +0.000 A 
ATOM     11  C   UNL     1       4.326   5.372  17.451  0.00  0.00    +0.000 A 
ATOM     12  N   UNL     1       4.894   5.735  16.229  0.00  0.00    +0.000 N 
ATOM     13  H   UNL     1       6.408   2.954  16.881  0.00  0.00    +0.000 HD
ATOM     14  H   UNL     1       4.670   6.553  15.684  0.00  0.00    +0.000 HD
ENDBRANCH   2   9
ENDBRANCH   1   2
BRANCH   1  15
ATOM     15  C   UNL     1       0.910   8.111  20.872  0.00  0.00    +0.000 C 
BRANCH  15  16
ATOM     16  N   UNL     1       1.230   9.398  21.512  0.00  0.00    +0.000 NA
ATOM     17  C   UNL     1       0.734  10.591  20.790  0.00  0.00    +0.000 C 
ATOM     18  C   UNL     1      -0.752  10.980  20.997  0.00  0.00    +0.000 C 
ATOM     19  N   UNL     1      -1.070  11.034  22.430  0.00  0.00    +0.000 N 
ATOM     20  C   UNL     1      -0.696   9.820  23.173  0.00  0.00    +0.000 C 
ATOM     21  C   UNL     1       0.789   9.461  22.926  0.00  0.00    +0.000 C 
BRANCH  19  22
ATOM     22  C   UNL     1      -1.647  12.141  23.018  0.00  0.00    +0.000 A 
ATOM     23  C   UNL     1      -2.975  12.123  23.486  0.00  0.00    +0.000 A 
ATOM     24  C   UNL     1      -3.579  13.252  24.057  0.00  0.00    +0.000 A 
ATOM     25  C   UNL     1      -2.859  14.432  24.181  0.00  0.00    +0.000 A 
ATOM     26 CL   UNL     1      -3.594  15.824  24.871  0.00  0.00    +0.000 Cl
ATOM     27  C   UNL     1      -1.544  14.486  23.741  0.00  0.00    +0.000 A 
ATOM     28  C   UNL     1      -0.952  13.351  23.169  0.00  0.00    +0.000 A 
ENDBRANCH  19  22
ENDBRANCH  15  16
ENDBRANCH   1  15
TORSDOF 5
ENDMDL
