MODEL 1
REMARK VINA RESULT:      -8.5      0.000      0.000
REMARK  Name = 
REMARK  4 active torsions:
REMARK  status: ('A' for Active; 'I' for Inactive)
REMARK    1  A    between atoms: C_1  and  N_2
REMARK    2  A    between atoms: C_11  and  C_12
REMARK    3  A    between atoms: C_12  and  C_14
REMARK    4  A    between atoms: N_16  and  C_17
REMARK                            x       y       z     vdW  Elec       q    Type
REMARK                         _______ _______ _______ _____ _____    ______ ____
ROOT
ATOM      1  C   UNL     1       4.367   5.230  16.967  0.00  0.00    +0.000 C 
ATOM      2  N   UNL     1       3.554   5.453  18.144  0.00  0.00    +0.000 N 
ATOM      3  C   UNL     1       3.304   4.533  19.138  0.00  0.00    +0.000 A 
ATOM      4  C   UNL     1       3.698   3.190  19.275  0.00  0.00    +0.000 A 
ATOM      5  C   UNL     1       3.306   2.498  20.423  0.00  0.00    +0.000 A 
ATOM      6  C   UNL     1       2.543   3.122  21.403  0.00  0.00    +0.000 A 
ATOM      7  C   UNL     1       2.148   4.457  21.257  0.00  0.00    +0.000 A 
ATOM      8  C   UNL     1       2.532   5.182  20.108  0.00  0.00    +0.000 A 
ATOM      9  C   UNL     1       2.313   6.529  19.665  0.00  0.00    +0.000 A 
ATOM     10  C   UNL     1       1.623   7.650  20.198  0.00  0.00    +0.000 A 
ATOM     11  C   UNL     1       1.600   8.860  19.481  0.00  0.00    +0.000 A 
ATOM     12  C   UNL     1       2.289   8.959  18.268  0.00  0.00    +0.000 A 
ATOM     13  C   UNL     1       2.961   7.867  17.719  0.00  0.00    +0.000 A 
ATOM     14  C   UNL     1       2.961   6.666  18.436  0.00  0.00    +0.000 A 
ENDROOT
BRANCH  11  15
ATOM     15  C   UNL     1       0.827  10.021  20.018  0.00  0.00    +0.000 C 
ATOM     16  O   UNL     1       0.939  10.400  21.179  0.00  0.00    +0.000 OA
BRANCH  15  17
ATOM     17  C   UNL     1      -0.166  10.747  19.099  0.00  0.00    +0.000 C 
ATOM     18  O   UNL     1       0.064  11.912  18.799  0.00  0.00    +0.000 OA
ATOM     19  N   UNL     1      -1.251   9.991  18.696  0.00  0.00    +0.000 N 
ATOM     20  H   UNL     1      -1.309   9.048  19.077  0.00  0.00    +0.000 HD
BRANCH  19  21
ATOM     21  C   UNL     1      -2.285  10.436  17.836  0.00  0.00    +0.000 A 
ATOM     22  C   UNL     1      -3.353  11.228  18.285  0.00  0.00    +0.000 A 
ATOM     23  C   UNL     1      -4.379  11.620  17.422  0.00  0.00    +0.000 A 
ATOM     24  C   UNL     1      -4.349  11.235  16.091  0.00  0.00    +0.000 A 
ATOM     25  C   UNL     1      -3.284  10.468  15.620  0.00  0.00    +0.000 A 
ATOM     26  C   UNL     1      -2.252  10.076  16.486  0.00  0.00    +0.000 A 
ENDBRANCH  19  21
ENDBRANCH  15  17
ENDBRANCH  11  15
TORSDOF 3
ENDMDL
MODEL 2
REMARK VINA RESULT:      -8.2      0.889      2.719
REMARK  Name = 
REMARK  4 active torsions:
REMARK  status: ('A' for Active; 'I' for Inactive)
REMARK    1  A    between atoms: C_1  and  N_2
REMARK    2  A    between atoms: C_11  and  C_12
REMARK    3  A    between atoms: C_12  and  C_14
REMARK    4  A    between atoms: N_16  and  C_17
REMARK                            x       y       z     vdW  Elec       q    Type
REMARK                         _______ _______ _______ _____ _____    ______ ____
ROOT
ATOM      1  C   UNL     1       2.955   3.533  20.157  0.00  0.00    +0.000 C 
ATOM      2  N   UNL     1       3.105   4.779  19.436  0.00  0.00    +0.000 N 
ATOM      3  C   UNL     1       3.857   4.966  18.296  0.00  0.00    +0.000 A 
ATOM      4  C   UNL     1       4.676   4.081  17.573  0.00  0.00    +0.000 A 
ATOM      5  C   UNL     1       5.309   4.554  16.423  0.00  0.00    +0.000 A 
ATOM      6  C   UNL     1       5.136   5.869  16.006  0.00  0.00    +0.000 A 
ATOM      7  C   UNL     1       4.325   6.747  16.735  0.00  0.00    +0.000 A 
ATOM      8  C   UNL     1       3.669   6.295  17.901  0.00  0.00    +0.000 A 
ATOM      9  C   UNL     1       2.783   6.914  18.844  0.00  0.00    +0.000 A 
ATOM     10  C   UNL     1       2.228   8.213  18.981  0.00  0.00    +0.000 A 
ATOM     11  C   UNL     1       1.371   8.496  20.059  0.00  0.00    +0.000 A 
ATOM     12  C   UNL     1       1.043   7.483  20.966  0.00  0.00    +0.000 A 
ATOM     13  C   UNL     1       1.587   6.203  20.859  0.00  0.00    +0.000 A 
ATOM     14  C   UNL     1       2.451   5.942  19.790  0.00  0.00    +0.000 A 
ENDROOT
BRANCH  11  15
ATOM     15  C   UNL     1       0.833   9.880  20.231  0.00  0.00    +0.000 C 
ATOM     16  O   UNL     1       1.008  10.527  21.258  0.00  0.00    +0.000 OA
BRANCH  15  17
ATOM     17  C   UNL     1       0.002  10.503  19.100  0.00  0.00    +0.000 C 
ATOM     18  O   UNL     1       0.491  11.428  18.462  0.00  0.00    +0.000 OA
ATOM     19  N   UNL     1      -1.249   9.945  18.916  0.00  0.00    +0.000 N 
ATOM     20  H   UNL     1      -1.514   9.210  19.568  0.00  0.00    +0.000 HD
BRANCH  19  21
ATOM     21  C   UNL     1      -2.184  10.339  17.927  0.00  0.00    +0.000 A 
ATOM     22  C   UNL     1      -2.074   9.945  16.584  0.00  0.00    +0.000 A 
ATOM     23  C   UNL     1      -2.988  10.380  15.622  0.00  0.00    +0.000 A 
ATOM     24  C   UNL     1      -4.036  11.211  15.989  0.00  0.00    +0.000 A 
ATOM     25  C   UNL     1      -4.176  11.593  17.322  0.00  0.00    +0.000 A 
ATOM     26  C   UNL     1      -3.259  11.154  18.289  0.00  0.00    +0.000 A 
ENDBRANCH  19  21
ENDBRANCH  15  17
ENDBRANCH  11  15
TORSDOF 3
ENDMDL
MODEL 3
REMARK VINA RESULT:      -8.0      3.162      7.847
REMARK  Name = 
REMARK  4 active torsions:
REMARK  status: ('A' for Active; 'I' for Inactive)
REMARK    1  A    between atoms: C_1  and  N_2
REMARK    2  A    between atoms: C_11  and  C_12
REMARK    3  A    between atoms: C_12  and  C_14
REMARK    4  A    between atoms: N_16  and  C_17
REMARK                            x       y       z     vdW  Elec       q    Type
REMARK                         _______ _______ _______ _____ _____    ______ ____
ROOT
ATOM      1  C   UNL     1       0.367  11.967  18.513  0.00  0.00    +0.000 C 
ATOM      2  N   UNL     1       0.412  10.978  19.570  0.00  0.00    +0.000 N 
ATOM      3  C   UNL     1      -0.201  11.085  20.799  0.00  0.00    +0.000 A 
ATOM      4  C   UNL     1      -0.957  12.123  21.369  0.00  0.00    +0.000 A 
ATOM      5  C   UNL     1      -1.481  11.937  22.650  0.00  0.00    +0.000 A 
ATOM      6  C   UNL     1      -1.255  10.754  23.345  0.00  0.00    +0.000 A 
ATOM      7  C   UNL     1      -0.494   9.726  22.774  0.00  0.00    +0.000 A 
ATOM      8  C   UNL     1       0.045   9.886  21.479  0.00  0.00    +0.000 A 
ATOM      9  C   UNL     1       0.836   9.049  20.623  0.00  0.00    +0.000 A 
ATOM     10  C   UNL     1       1.390   7.748  20.743  0.00  0.00    +0.000 A 
ATOM     11  C   UNL     1       2.142   7.210  19.683  0.00  0.00    +0.000 A 
ATOM     12  C   UNL     1       2.304   7.947  18.506  0.00  0.00    +0.000 A 
ATOM     13  C   UNL     1       1.781   9.232  18.371  0.00  0.00    +0.000 A 
ATOM     14  C   UNL     1       1.049   9.760  19.441  0.00  0.00    +0.000 A 
ENDROOT
BRANCH  11  15
ATOM     15  C   UNL     1       2.770   5.862  19.834  0.00  0.00    +0.000 C 
ATOM     16  O   UNL     1       2.300   4.999  20.568  0.00  0.00    +0.000 OA
BRANCH  15  17
ATOM     17  C   UNL     1       4.067   5.553  19.072  0.00  0.00    +0.000 C 
ATOM     18  O   UNL     1       5.097   5.399  19.716  0.00  0.00    +0.000 OA
ATOM     19  N   UNL     1       3.937   5.484  17.697  0.00  0.00    +0.000 N 
ATOM     20  H   UNL     1       3.011   5.683  17.323  0.00  0.00    +0.000 HD
BRANCH  19  21
ATOM     21  C   UNL     1       4.985   5.196  16.789  0.00  0.00    +0.000 A 
ATOM     22  C   UNL     1       6.082   6.051  16.604  0.00  0.00    +0.000 A 
ATOM     23  C   UNL     1       7.082   5.760  15.674  0.00  0.00    +0.000 A 
ATOM     24  C   UNL     1       7.007   4.601  14.917  0.00  0.00    +0.000 A 
ATOM     25  C   UNL     1       5.937   3.726  15.103  0.00  0.00    +0.000 A 
ATOM     26  C   UNL     1       4.935   4.017  16.040  0.00  0.00    +0.000 A 
ENDBRANCH  19  21
ENDBRANCH  15  17
ENDBRANCH  11  15
TORSDOF 3
ENDMDL
MODEL 4
REMARK VINA RESULT:      -8.0      2.650      3.380
REMARK  Name = 
REMARK  4 active torsions:
REMARK  status: ('A' for Active; 'I' for Inactive)
REMARK    1  A    between atoms: C_1  and  N_2
REMARK    2  A    between atoms: C_11  and  C_12
REMARK    3  A    between atoms: C_12  and  C_14
REMARK    4  A    between atoms: N_16  and  C_17
REMARK                            x       y       z     vdW  Elec       q    Type
REMARK                         _______ _______ _______ _____ _____    ______ ____
ROOT
ATOM      1  C   UNL     1       5.170   3.899  17.641  0.00  0.00    +0.000 C 
ATOM      2  N   UNL     1       4.042   4.528  18.295  0.00  0.00    +0.000 N 
ATOM      3  C   UNL     1       3.213   3.934  19.221  0.00  0.00    +0.000 A 
ATOM      4  C   UNL     1       3.189   2.626  19.736  0.00  0.00    +0.000 A 
ATOM      5  C   UNL     1       2.229   2.310  20.699  0.00  0.00    +0.000 A 
ATOM      6  C   UNL     1       1.317   3.266  21.134  0.00  0.00    +0.000 A 
ATOM      7  C   UNL     1       1.342   4.564  20.611  0.00  0.00    +0.000 A 
ATOM      8  C   UNL     1       2.304   4.913  19.639  0.00  0.00    +0.000 A 
ATOM      9  C   UNL     1       2.604   6.122  18.928  0.00  0.00    +0.000 A 
ATOM     10  C   UNL     1       2.051   7.430  18.915  0.00  0.00    +0.000 A 
ATOM     11  C   UNL     1       2.598   8.410  18.069  0.00  0.00    +0.000 A 
ATOM     12  C   UNL     1       3.707   8.099  17.275  0.00  0.00    +0.000 A 
ATOM     13  C   UNL     1       4.258   6.818  17.261  0.00  0.00    +0.000 A 
ATOM     14  C   UNL     1       3.691   5.849  18.096  0.00  0.00    +0.000 A 
ENDROOT
BRANCH  11  15
ATOM     15  C   UNL     1       1.979   9.770  18.018  0.00  0.00    +0.000 C 
ATOM     16  O   UNL     1       2.415  10.661  17.297  0.00  0.00    +0.000 OA
BRANCH  15  17
ATOM     17  C   UNL     1       0.777  10.078  18.923  0.00  0.00    +0.000 C 
ATOM     18  O   UNL     1      -0.347   9.833  18.500  0.00  0.00    +0.000 OA
ATOM     19  N   UNL     1       1.094  10.619  20.155  0.00  0.00    +0.000 N 
ATOM     20  H   UNL     1       2.081  10.799  20.326  0.00  0.00    +0.000 HD
BRANCH  19  21
ATOM     21  C   UNL     1       0.160  10.966  21.162  0.00  0.00    +0.000 A 
ATOM     22  C   UNL     1      -0.466  12.221  21.212  0.00  0.00    +0.000 A 
ATOM     23  C   UNL     1      -1.354  12.549  22.239  0.00  0.00    +0.000 A 
ATOM     24  C   UNL     1      -1.641  11.622  23.229  0.00  0.00    +0.000 A 
ATOM     25  C   UNL     1      -1.048  10.361  23.183  0.00  0.00    +0.000 A 
ATOM     26  C   UNL     1      -0.158  10.031  22.151  0.00  0.00    +0.000 A 
ENDBRANCH  19  21
ENDBRANCH  15  17
ENDBRANCH  11  15
TORSDOF 3
ENDMDL
MODEL 5
REMARK VINA RESULT:      -8.0      0.960      2.462
REMARK  Name = 
REMARK  4 active torsions:
REMARK  status: ('A' for Active; 'I' for Inactive)
REMARK    1  A    between atoms: C_1  and  N_2
REMARK    2  A    between atoms: C_11  and  C_12
REMARK    3  A    between atoms: C_12  and  C_14
REMARK    4  A    between atoms: N_16  and  C_17
REMARK                            x       y       z     vdW  Elec       q    Type
REMARK                         _______ _______ _______ _____ _____    ______ ____
ROOT
ATOM      1  C   UNL     1       2.264   4.100  20.841  0.00  0.00    +0.000 C 
ATOM      2  N   UNL     1       2.543   5.258  20.018  0.00  0.00    +0.000 N 
ATOM      3  C   UNL     1       3.331   5.273  18.888  0.00  0.00    +0.000 A 
ATOM      4  C   UNL     1       4.077   4.256  18.267  0.00  0.00    +0.000 A 
ATOM      5  C   UNL     1       4.773   4.564  17.097  0.00  0.00    +0.000 A 
ATOM      6  C   UNL     1       4.732   5.847  16.562  0.00  0.00    +0.000 A 
ATOM      7  C   UNL     1       3.993   6.857  17.190  0.00  0.00    +0.000 A 
ATOM      8  C   UNL     1       3.276   6.573  18.373  0.00  0.00    +0.000 A 
ATOM      9  C   UNL     1       2.434   7.352  19.234  0.00  0.00    +0.000 A 
ATOM     10  C   UNL     1       2.001   8.704  19.242  0.00  0.00    +0.000 A 
ATOM     11  C   UNL     1       1.154   9.158  20.268  0.00  0.00    +0.000 A 
ATOM     12  C   UNL     1       0.715   8.265  21.250  0.00  0.00    +0.000 A 
ATOM     13  C   UNL     1       1.138   6.936  21.270  0.00  0.00    +0.000 A 
ATOM     14  C   UNL     1       1.994   6.503  20.252  0.00  0.00    +0.000 A 
ENDROOT
BRANCH  11  15
ATOM     15  C   UNL     1       0.744  10.596  20.305  0.00  0.00    +0.000 C 
ATOM     16  O   UNL     1       1.119  11.361  21.187  0.00  0.00    +0.000 OA
BRANCH  15  17
ATOM     17  C   UNL     1      -0.205  11.129  19.222  0.00  0.00    +0.000 C 
ATOM     18  O   UNL     1       0.036  12.221  18.723  0.00  0.00    +0.000 OA
ATOM     19  N   UNL     1      -1.269  10.300  18.915  0.00  0.00    +0.000 N 
ATOM     20  H   UNL     1      -1.343   9.444  19.461  0.00  0.00    +0.000 HD
BRANCH  19  21
ATOM     21  C   UNL     1      -2.261  10.568  17.941  0.00  0.00    +0.000 A 
ATOM     22  C   UNL     1      -3.375  11.381  18.200  0.00  0.00    +0.000 A 
ATOM     23  C   UNL     1      -4.359  11.597  17.232  0.00  0.00    +0.000 A 
ATOM     24  C   UNL     1      -4.239  11.010  15.981  0.00  0.00    +0.000 A 
ATOM     25  C   UNL     1      -3.127  10.219  15.696  0.00  0.00    +0.000 A 
ATOM     26  C   UNL     1      -2.138  10.004  16.668  0.00  0.00    +0.000 A 
ENDBRANCH  19  21
ENDBRANCH  15  17
ENDBRANCH  11  15
TORSDOF 3
ENDMDL
MODEL 6
REMARK VINA RESULT:      -7.9      1.340      3.210
REMARK  Name = 
REMARK  4 active torsions:
REMARK  status: ('A' for Active; 'I' for Inactive)
REMARK    1  A    between atoms: C_1  and  N_2
REMARK    2  A    between atoms: C_11  and  C_12
REMARK    3  A    between atoms: C_12  and  C_14
REMARK    4  A    between atoms: N_16  and  C_17
REMARK                            x       y       z     vdW  Elec       q    Type
REMARK                         _______ _______ _______ _____ _____    ______ ____
ROOT
ATOM      1  C   UNL     1       3.939   3.699  19.609  0.00  0.00    +0.000 C 
ATOM      2  N   UNL     1       4.043   4.790  18.663  0.00  0.00    +0.000 N 
ATOM      3  C   UNL     1       4.797   4.787  17.510  0.00  0.00    +0.000 A 
ATOM      4  C   UNL     1       5.658   3.816  16.970  0.00  0.00    +0.000 A 
ATOM      5  C   UNL     1       6.281   4.087  15.750  0.00  0.00    +0.000 A 
ATOM      6  C   UNL     1       6.058   5.290  15.090  0.00  0.00    +0.000 A 
ATOM      7  C   UNL     1       5.205   6.256  15.637  0.00  0.00    +0.000 A 
ATOM      8  C   UNL     1       4.558   6.007  16.867  0.00  0.00    +0.000 A 
ATOM      9  C   UNL     1       3.640   6.757  17.675  0.00  0.00    +0.000 A 
ATOM     10  C   UNL     1       3.031   8.035  17.560  0.00  0.00    +0.000 A 
ATOM     11  C   UNL     1       2.154   8.482  18.565  0.00  0.00    +0.000 A 
ATOM     12  C   UNL     1       1.859   7.648  19.648  0.00  0.00    +0.000 A 
ATOM     13  C   UNL     1       2.456   6.395  19.788  0.00  0.00    +0.000 A 
ATOM     14  C   UNL     1       3.339   5.971  18.789  0.00  0.00    +0.000 A 
ENDROOT
BRANCH  11  15
ATOM     15  C   UNL     1       1.558   9.849  18.469  0.00  0.00    +0.000 C 
ATOM     16  O   UNL     1       2.208  10.822  18.102  0.00  0.00    +0.000 OA
BRANCH  15  17
ATOM     17  C   UNL     1       0.091  10.054  18.874  0.00  0.00    +0.000 C 
ATOM     18  O   UNL     1      -0.249   9.736  20.007  0.00  0.00    +0.000 OA
ATOM     19  N   UNL     1      -0.721  10.586  17.889  0.00  0.00    +0.000 N 
ATOM     20  H   UNL     1      -0.282  10.750  16.985  0.00  0.00    +0.000 HD
BRANCH  19  21
ATOM     21  C   UNL     1      -2.099  10.880  18.034  0.00  0.00    +0.000 A 
ATOM     22  C   UNL     1      -3.096  10.205  17.313  0.00  0.00    +0.000 A 
ATOM     23  C   UNL     1      -4.445  10.543  17.447  0.00  0.00    +0.000 A 
ATOM     24  C   UNL     1      -4.821  11.556  18.315  0.00  0.00    +0.000 A 
ATOM     25  C   UNL     1      -3.847  12.222  19.059  0.00  0.00    +0.000 A 
ATOM     26  C   UNL     1      -2.493  11.881  18.926  0.00  0.00    +0.000 A 
ENDBRANCH  19  21
ENDBRANCH  15  17
ENDBRANCH  11  15
TORSDOF 3
ENDMDL
MODEL 7
REMARK VINA RESULT:      -7.9      1.206      1.563
REMARK  Name = 
REMARK  4 active torsions:
REMARK  status: ('A' for Active; 'I' for Inactive)
REMARK    1  A    between atoms: C_1  and  N_2
REMARK    2  A    between atoms: C_11  and  C_12
REMARK    3  A    between atoms: C_12  and  C_14
REMARK    4  A    between atoms: N_16  and  C_17
REMARK                            x       y       z     vdW  Elec       q    Type
REMARK                         _______ _______ _______ _____ _____    ______ ____
ROOT
ATOM      1  C   UNL     1       5.066   3.922  17.551  0.00  0.00    +0.000 C 
ATOM      2  N   UNL     1       4.062   4.582  18.358  0.00  0.00    +0.000 N 
ATOM      3  C   UNL     1       3.409   4.034  19.440  0.00  0.00    +0.000 A 
ATOM      4  C   UNL     1       3.484   2.753  20.014  0.00  0.00    +0.000 A 
ATOM      5  C   UNL     1       2.705   2.485  21.142  0.00  0.00    +0.000 A 
ATOM      6  C   UNL     1       1.874   3.461  21.680  0.00  0.00    +0.000 A 
ATOM      7  C   UNL     1       1.798   4.733  21.098  0.00  0.00    +0.000 A 
ATOM      8  C   UNL     1       2.577   5.033  19.959  0.00  0.00    +0.000 A 
ATOM      9  C   UNL     1       2.740   6.206  19.150  0.00  0.00    +0.000 A 
ATOM     10  C   UNL     1       2.182   7.511  19.169  0.00  0.00    +0.000 A 
ATOM     11  C   UNL     1       2.568   8.449  18.195  0.00  0.00    +0.000 A 
ATOM     12  C   UNL     1       3.527   8.099  17.239  0.00  0.00    +0.000 A 
ATOM     13  C   UNL     1       4.078   6.819  17.192  0.00  0.00    +0.000 A 
ATOM     14  C   UNL     1       3.671   5.892  18.158  0.00  0.00    +0.000 A 
ENDROOT
BRANCH  11  15
ATOM     15  C   UNL     1       1.939   9.805  18.185  0.00  0.00    +0.000 C 
ATOM     16  O   UNL     1       2.555  10.810  17.847  0.00  0.00    +0.000 OA
BRANCH  15  17
ATOM     17  C   UNL     1       0.481   9.954  18.645  0.00  0.00    +0.000 C 
ATOM     18  O   UNL     1       0.201   9.647  19.797  0.00  0.00    +0.000 OA
ATOM     19  N   UNL     1      -0.391  10.430  17.683  0.00  0.00    +0.000 N 
ATOM     20  H   UNL     1       0.004  10.594  16.760  0.00  0.00    +0.000 HD
BRANCH  19  21
ATOM     21  C   UNL     1      -1.774  10.667  17.878  0.00  0.00    +0.000 A 
ATOM     22  C   UNL     1      -2.256  11.742  18.639  0.00  0.00    +0.000 A 
ATOM     23  C   UNL     1      -3.625  11.930  18.847  0.00  0.00    +0.000 A 
ATOM     24  C   UNL     1      -4.537  11.049  18.287  0.00  0.00    +0.000 A 
ATOM     25  C   UNL     1      -4.078   9.988  17.507  0.00  0.00    +0.000 A 
ATOM     26  C   UNL     1      -2.704   9.801  17.296  0.00  0.00    +0.000 A 
ENDBRANCH  19  21
ENDBRANCH  15  17
ENDBRANCH  11  15
TORSDOF 3
ENDMDL
MODEL 8
REMARK VINA RESULT:      -7.9      1.713      3.319
REMARK  Name = 
REMARK  4 active torsions:
REMARK  status: ('A' for Active; 'I' for Inactive)
REMARK    1  A    between atoms: C_1  and  N_2
REMARK    2  A    between atoms: C_11  and  C_12
REMARK    3  A    between atoms: C_12  and  C_14
REMARK    4  A    between atoms: N_16  and  C_17
REMARK                            x       y       z     vdW  Elec       q    Type
REMARK                         _______ _______ _______ _____ _____    ______ ____
ROOT
ATOM      1  C   UNL     1       3.026   2.392  18.372  0.00  0.00    +0.000 C 
ATOM      2  N   UNL     1       3.274   3.814  18.251  0.00  0.00    +0.000 N 
ATOM      3  C   UNL     1       4.045   4.417  17.281  0.00  0.00    +0.000 A 
ATOM      4  C   UNL     1       4.798   3.873  16.226  0.00  0.00    +0.000 A 
ATOM      5  C   UNL     1       5.472   4.748  15.372  0.00  0.00    +0.000 A 
ATOM      6  C   UNL     1       5.402   6.123  15.563  0.00  0.00    +0.000 A 
ATOM      7  C   UNL     1       4.656   6.659  16.621  0.00  0.00    +0.000 A 
ATOM      8  C   UNL     1       3.961   5.797  17.498  0.00  0.00    +0.000 A 
ATOM      9  C   UNL     1       3.120   6.013  18.640  0.00  0.00    +0.000 A 
ATOM     10  C   UNL     1       2.665   7.163  19.336  0.00  0.00    +0.000 A 
ATOM     11  C   UNL     1       1.826   7.016  20.455  0.00  0.00    +0.000 A 
ATOM     12  C   UNL     1       1.417   5.738  20.849  0.00  0.00    +0.000 A 
ATOM     13  C   UNL     1       1.862   4.593  20.189  0.00  0.00    +0.000 A 
ATOM     14  C   UNL     1       2.709   4.755  19.088  0.00  0.00    +0.000 A 
ENDROOT
BRANCH  11  15
ATOM     15  C   UNL     1       1.394   8.226  21.218  0.00  0.00    +0.000 C 
ATOM     16  O   UNL     1       2.056   8.689  22.140  0.00  0.00    +0.000 OA
BRANCH  15  17
ATOM     17  C   UNL     1       0.060   8.897  20.861  0.00  0.00    +0.000 C 
ATOM     18  O   UNL     1      -0.918   8.654  21.558  0.00  0.00    +0.000 OA
ATOM     19  N   UNL     1       0.097   9.725  19.754  0.00  0.00    +0.000 N 
ATOM     20  H   UNL     1       0.987   9.778  19.263  0.00  0.00    +0.000 HD
BRANCH  19  21
ATOM     21  C   UNL     1      -1.000  10.463  19.246  0.00  0.00    +0.000 A 
ATOM     22  C   UNL     1      -1.552  11.559  19.925  0.00  0.00    +0.000 A 
ATOM     23  C   UNL     1      -2.659  12.245  19.419  0.00  0.00    +0.000 A 
ATOM     24  C   UNL     1      -3.227  11.851  18.218  0.00  0.00    +0.000 A 
ATOM     25  C   UNL     1      -2.678  10.779  17.516  0.00  0.00    +0.000 A 
ATOM     26  C   UNL     1      -1.565  10.092  18.022  0.00  0.00    +0.000 A 
ENDBRANCH  19  21
ENDBRANCH  15  17
ENDBRANCH  11  15
TORSDOF 3
ENDMDL
MODEL 9
REMARK VINA RESULT:      -7.8      1.951      7.996
REMARK  Name = 
REMARK  4 active torsions:
REMARK  status: ('A' for Active; 'I' for Inactive)
REMARK    1  A    between atoms: C_1  and  N_2
REMARK    2  A    between atoms: C_11  and  C_12
REMARK    3  A    between atoms: C_12  and  C_14
REMARK    4  A    between atoms: N_16  and  C_17
REMARK                            x       y       z     vdW  Elec       q    Type
REMARK                         _______ _______ _______ _____ _____    ______ ____
ROOT
ATOM      1  C   UNL     1      -2.237  12.269  20.382  0.00  0.00    +0.000 C 
ATOM      2  N   UNL     1      -1.954  11.419  19.244  0.00  0.00    +0.000 N 
ATOM      3  C   UNL     1      -2.762  11.256  18.140  0.00  0.00    +0.000 A 
ATOM      4  C   UNL     1      -4.024  11.791  17.830  0.00  0.00    +0.000 A 
ATOM      5  C   UNL     1      -4.601  11.460  16.602  0.00  0.00    +0.000 A 
ATOM      6  C   UNL     1      -3.944  10.619  15.712  0.00  0.00    +0.000 A 
ATOM      7  C   UNL     1      -2.690  10.083  16.030  0.00  0.00    +0.000 A 
ATOM      8  C   UNL     1      -2.081  10.404  17.263  0.00  0.00    +0.000 A 
ATOM      9  C   UNL     1      -0.834  10.046  17.876  0.00  0.00    +0.000 A 
ATOM     10  C   UNL     1       0.263   9.231  17.493  0.00  0.00    +0.000 A 
ATOM     11  C   UNL     1       1.361   9.087  18.360  0.00  0.00    +0.000 A 
ATOM     12  C   UNL     1       1.378   9.779  19.575  0.00  0.00    +0.000 A 
ATOM     13  C   UNL     1       0.306  10.574  19.978  0.00  0.00    +0.000 A 
ATOM     14  C   UNL     1      -0.787  10.694  19.112  0.00  0.00    +0.000 A 
ENDROOT
BRANCH  11  15
ATOM     15  C   UNL     1       2.490   8.185  17.978  0.00  0.00    +0.000 C 
ATOM     16  O   UNL     1       3.340   8.513  17.157  0.00  0.00    +0.000 OA
BRANCH  15  17
ATOM     17  C   UNL     1       2.573   6.787  18.606  0.00  0.00    +0.000 C 
ATOM     18  O   UNL     1       3.134   6.668  19.689  0.00  0.00    +0.000 OA
ATOM     19  N   UNL     1       1.995   5.774  17.863  0.00  0.00    +0.000 N 
ATOM     20  H   UNL     1       1.610   6.044  16.960  0.00  0.00    +0.000 HD
BRANCH  19  21
ATOM     21  C   UNL     1       1.932   4.412  18.245  0.00  0.00    +0.000 A 
ATOM     22  C   UNL     1       1.196   3.972  19.356  0.00  0.00    +0.000 A 
ATOM     23  C   UNL     1       1.183   2.627  19.732  0.00  0.00    +0.000 A 
ATOM     24  C   UNL     1       1.899   1.695  18.996  0.00  0.00    +0.000 A 
ATOM     25  C   UNL     1       2.617   2.109  17.875  0.00  0.00    +0.000 A 
ATOM     26  C   UNL     1       2.628   3.459  17.495  0.00  0.00    +0.000 A 
ENDBRANCH  19  21
ENDBRANCH  15  17
ENDBRANCH  11  15
TORSDOF 3
ENDMDL
