MODEL 1
REMARK VINA RESULT:      -8.3      0.000      0.000
REMARK  Name = 
REMARK  7 active torsions:
REMARK  status: ('A' for Active; 'I' for Inactive)
REMARK    1  A    between atoms: C_1  and  C_2
REMARK    2  A    between atoms: C_5  and  C_6
REMARK    3  A    between atoms: C_12  and  C_13
REMARK    4  A    between atoms: C_13  and  O_14
REMARK    5  A    between atoms: O_14  and  C_15
REMARK    6  A    between atoms: C_18  and  C_19
REMARK    7  A    between atoms: N_21  and  C_22
REMARK                            x       y       z     vdW  Elec       q    Type
REMARK                         _______ _______ _______ _____ _____    ______ ____
ROOT
ATOM      1  O   UNL     1       3.184   6.789  18.680  0.00  0.00    +0.000 OA
ENDROOT
BRANCH   1   2
ATOM      2  C   UNL     1       2.287   7.794  18.969  0.00  0.00    +0.000 A 
ATOM      3  C   UNL     1       1.877   8.607  17.922  0.00  0.00    +0.000 A 
ATOM      4  C   UNL     1       0.960   9.634  18.181  0.00  0.00    +0.000 A 
ATOM      5  C   UNL     1       0.465   9.797  19.480  0.00  0.00    +0.000 A 
ATOM      6  C   UNL     1       0.919   8.908  20.446  0.00  0.00    +0.000 A 
ATOM      7  N   UNL     1       1.819   7.917  20.223  0.00  0.00    +0.000 NA
BRANCH   5   8
ATOM      8  C   UNL     1      -0.507  10.835  19.926  0.00  0.00    +0.000 C 
ATOM      9  O   UNL     1      -1.207  11.393  19.085  0.00  0.00    +0.000 OA
ATOM     10  N   UNL     1      -0.580  11.144  21.271  0.00  0.00    +0.000 N 
ATOM     11  H   UNL     1       0.071  10.746  21.933  0.00  0.00    +0.000 HD
BRANCH  10  12
ATOM     12  C   UNL     1      -1.425  12.207  21.730  0.00  0.00    +0.000 C 
ATOM     13  C   UNL     1      -2.335  12.034  22.915  0.00  0.00    +0.000 C 
ATOM     14  C   UNL     1      -1.130  12.921  23.019  0.00  0.00    +0.000 C 
ENDBRANCH  10  12
ENDBRANCH   5   8
ENDBRANCH   1   2
BRANCH   1  15
ATOM     15  C   UNL     1       2.529   5.608  18.184  0.00  0.00    +0.000 C 
BRANCH  15  21
ATOM     16  C   UNL     1       1.018   3.725  20.513  0.00  0.00    +0.000 C 
ATOM     17  C   UNL     1       2.326   3.619  19.838  0.00  0.00    +0.000 A 
ATOM     18  O   UNL     1       3.105   2.574  20.211  0.00  0.00    +0.000 OA
ATOM     19  N   UNL     1       4.297   2.616  19.528  0.00  0.00    +0.000 NA
ATOM     20  C   UNL     1       4.248   3.702  18.734  0.00  0.00    +0.000 A 
ATOM     21  C   UNL     1       2.982   4.367  18.884  0.00  0.00    +0.000 A 
BRANCH  20  22
ATOM     22  C   UNL     1       5.392   4.078  17.890  0.00  0.00    +0.000 A 
ATOM     23  C   UNL     1       5.317   4.004  16.511  0.00  0.00    +0.000 A 
ATOM     24  C   UNL     1       6.460   4.340  15.823  0.00  0.00    +0.000 A 
ATOM     25  N   UNL     1       7.598   4.729  16.422  0.00  0.00    +0.000 NA
ATOM     26  C   UNL     1       7.566   4.775  17.759  0.00  0.00    +0.000 A 
ATOM     27  N   UNL     1       6.514   4.471  18.533  0.00  0.00    +0.000 NA
ENDBRANCH  20  22
ENDBRANCH  15  21
ENDBRANCH   1  15
TORSDOF 6
ENDMDL
MODEL 2
REMARK VINA RESULT:      -8.1      1.759      1.930
REMARK  Name = 
REMARK  7 active torsions:
REMARK  status: ('A' for Active; 'I' for Inactive)
REMARK    1  A    between atoms: C_1  and  C_2
REMARK    2  A    between atoms: C_5  and  C_6
REMARK    3  A    between atoms: C_12  and  C_13
REMARK    4  A    between atoms: C_13  and  O_14
REMARK    5  A    between atoms: O_14  and  C_15
REMARK    6  A    between atoms: C_18  and  C_19
REMARK    7  A    between atoms: N_21  and  C_22
REMARK                            x       y       z     vdW  Elec       q    Type
REMARK                         _______ _______ _______ _____ _____    ______ ____
ROOT
ATOM      1  O   UNL     1       2.959   6.559  19.808  0.00  0.00    +0.000 OA
ENDROOT
BRANCH   1   2
ATOM      2  C   UNL     1       2.165   7.635  19.477  0.00  0.00    +0.000 A 
ATOM      3  C   UNL     1       2.187   8.066  18.159  0.00  0.00    +0.000 A 
ATOM      4  C   UNL     1       1.385   9.154  17.788  0.00  0.00    +0.000 A 
ATOM      5  C   UNL     1       0.569   9.759  18.749  0.00  0.00    +0.000 A 
ATOM      6  C   UNL     1       0.602   9.229  20.034  0.00  0.00    +0.000 A 
ATOM      7  N   UNL     1       1.382   8.188  20.419  0.00  0.00    +0.000 NA
BRANCH   5   8
ATOM      8  C   UNL     1      -0.336  10.922  18.527  0.00  0.00    +0.000 C 
ATOM      9  O   UNL     1       0.139  12.055  18.539  0.00  0.00    +0.000 OA
ATOM     10  N   UNL     1      -1.683  10.688  18.324  0.00  0.00    +0.000 N 
ATOM     11  H   UNL     1      -2.070   9.760  18.416  0.00  0.00    +0.000 HD
BRANCH  10  12
ATOM     12  C   UNL     1      -2.604  11.781  18.209  0.00  0.00    +0.000 C 
ATOM     13  C   UNL     1      -3.876  11.659  17.416  0.00  0.00    +0.000 C 
ATOM     14  C   UNL     1      -3.931  11.745  18.914  0.00  0.00    +0.000 C 
ENDBRANCH  10  12
ENDBRANCH   5   8
ENDBRANCH   1   2
BRANCH   1  15
ATOM     15  C   UNL     1       2.646   5.396  19.021  0.00  0.00    +0.000 C 
BRANCH  15  21
ATOM     16  C   UNL     1       1.627   3.324  21.455  0.00  0.00    +0.000 C 
ATOM     17  C   UNL     1       2.811   3.323  20.575  0.00  0.00    +0.000 A 
ATOM     18  O   UNL     1       3.690   2.308  20.760  0.00  0.00    +0.000 OA
ATOM     19  N   UNL     1       4.751   2.449  19.898  0.00  0.00    +0.000 NA
ATOM     20  C   UNL     1       4.521   3.566  19.183  0.00  0.00    +0.000 A 
ATOM     21  C   UNL     1       3.266   4.151  19.570  0.00  0.00    +0.000 A 
BRANCH  20  22
ATOM     22  C   UNL     1       5.493   4.044  18.188  0.00  0.00    +0.000 A 
ATOM     23  C   UNL     1       5.215   3.990  16.835  0.00  0.00    +0.000 A 
ATOM     24  C   UNL     1       6.212   4.426  15.993  0.00  0.00    +0.000 A 
ATOM     25  N   UNL     1       7.396   4.891  16.425  0.00  0.00    +0.000 NA
ATOM     26  C   UNL     1       7.564   4.909  17.753  0.00  0.00    +0.000 A 
ATOM     27  N   UNL     1       6.667   4.512  18.667  0.00  0.00    +0.000 NA
ENDBRANCH  20  22
ENDBRANCH  15  21
ENDBRANCH   1  15
TORSDOF 6
ENDMDL
MODEL 3
REMARK VINA RESULT:      -8.0      1.162      1.281
REMARK  Name = 
REMARK  7 active torsions:
REMARK  status: ('A' for Active; 'I' for Inactive)
REMARK    1  A    between atoms: C_1  and  C_2
REMARK    2  A    between atoms: C_5  and  C_6
REMARK    3  A    between atoms: C_12  and  C_13
REMARK    4  A    between atoms: C_13  and  O_14
REMARK    5  A    between atoms: O_14  and  C_15
REMARK    6  A    between atoms: C_18  and  C_19
REMARK    7  A    between atoms: N_21  and  C_22
REMARK                            x       y       z     vdW  Elec       q    Type
REMARK                         _______ _______ _______ _____ _____    ______ ____
ROOT
ATOM      1  O   UNL     1       2.873   6.282  19.255  0.00  0.00    +0.000 OA
ENDROOT
BRANCH   1   2
ATOM      2  C   UNL     1       2.255   7.512  19.217  0.00  0.00    +0.000 A 
ATOM      3  C   UNL     1       2.238   8.185  18.003  0.00  0.00    +0.000 A 
ATOM      4  C   UNL     1       1.611   9.435  17.930  0.00  0.00    +0.000 A 
ATOM      5  C   UNL     1       1.000   9.962  19.073  0.00  0.00    +0.000 A 
ATOM      6  C   UNL     1       1.049   9.191  20.229  0.00  0.00    +0.000 A 
ATOM      7  N   UNL     1       1.665   7.987  20.328  0.00  0.00    +0.000 NA
BRANCH   5   8
ATOM      8  C   UNL     1       0.298  11.272  19.169  0.00  0.00    +0.000 C 
ATOM      9  O   UNL     1       0.965  12.304  19.175  0.00  0.00    +0.000 OA
ATOM     10  N   UNL     1      -1.082  11.283  19.259  0.00  0.00    +0.000 N 
ATOM     11  H   UNL     1      -1.604  10.424  19.352  0.00  0.00    +0.000 HD
BRANCH  10  12
ATOM     12  C   UNL     1      -1.790  12.514  19.457  0.00  0.00    +0.000 C 
ATOM     13  C   UNL     1      -3.186  12.538  20.014  0.00  0.00    +0.000 C 
ATOM     14  C   UNL     1      -2.040  13.042  20.842  0.00  0.00    +0.000 C 
ENDBRANCH  10  12
ENDBRANCH   5   8
ENDBRANCH   1   2
BRANCH   1  15
ATOM     15  C   UNL     1       2.508   5.461  18.131  0.00  0.00    +0.000 C 
BRANCH  15  21
ATOM     16  C   UNL     1       0.690   3.029  19.557  0.00  0.00    +0.000 C 
ATOM     17  C   UNL     1       2.034   3.044  18.948  0.00  0.00    +0.000 A 
ATOM     18  O   UNL     1       2.703   1.865  18.954  0.00  0.00    +0.000 OA
ATOM     19  N   UNL     1       3.944   2.032  18.386  0.00  0.00    +0.000 NA
ATOM     20  C   UNL     1       4.035   3.328  18.034  0.00  0.00    +0.000 A 
ATOM     21  C   UNL     1       2.814   4.015  18.357  0.00  0.00    +0.000 A 
BRANCH  20  22
ATOM     22  C   UNL     1       5.264   3.867  17.433  0.00  0.00    +0.000 A 
ATOM     23  C   UNL     1       5.421   3.928  16.060  0.00  0.00    +0.000 A 
ATOM     24  C   UNL     1       6.627   4.412  15.608  0.00  0.00    +0.000 A 
ATOM     25  N   UNL     1       7.615   4.817  16.424  0.00  0.00    +0.000 NA
ATOM     26  C   UNL     1       7.362   4.725  17.735  0.00  0.00    +0.000 A 
ATOM     27  N   UNL     1       6.229   4.272  18.290  0.00  0.00    +0.000 NA
ENDBRANCH  20  22
ENDBRANCH  15  21
ENDBRANCH   1  15
TORSDOF 6
ENDMDL
MODEL 4
REMARK VINA RESULT:      -8.0      1.048      1.164
REMARK  Name = 
REMARK  7 active torsions:
REMARK  status: ('A' for Active; 'I' for Inactive)
REMARK    1  A    between atoms: C_1  and  C_2
REMARK    2  A    between atoms: C_5  and  C_6
REMARK    3  A    between atoms: C_12  and  C_13
REMARK    4  A    between atoms: C_13  and  O_14
REMARK    5  A    between atoms: O_14  and  C_15
REMARK    6  A    between atoms: C_18  and  C_19
REMARK    7  A    between atoms: N_21  and  C_22
REMARK                            x       y       z     vdW  Elec       q    Type
REMARK                         _______ _______ _______ _____ _____    ______ ____
ROOT
ATOM      1  O   UNL     1       3.057   6.413  18.038  0.00  0.00    +0.000 OA
ENDROOT
BRANCH   1   2
ATOM      2  C   UNL     1       2.426   7.445  18.697  0.00  0.00    +0.000 A 
ATOM      3  C   UNL     1       2.080   8.563  17.953  0.00  0.00    +0.000 A 
ATOM      4  C   UNL     1       1.431   9.628  18.592  0.00  0.00    +0.000 A 
ATOM      5  C   UNL     1       1.129   9.526  19.954  0.00  0.00    +0.000 A 
ATOM      6  C   UNL     1       1.495   8.349  20.597  0.00  0.00    +0.000 A 
ATOM      7  N   UNL     1       2.138   7.312  20.004  0.00  0.00    +0.000 NA
BRANCH   5   8
ATOM      8  C   UNL     1       0.451  10.561  20.784  0.00  0.00    +0.000 C 
ATOM      9  O   UNL     1       0.567  10.512  22.006  0.00  0.00    +0.000 OA
ATOM     10  N   UNL     1      -0.297  11.537  20.151  0.00  0.00    +0.000 N 
ATOM     11  H   UNL     1      -0.461  11.502  19.155  0.00  0.00    +0.000 HD
BRANCH  10  12
ATOM     12  C   UNL     1      -1.049  12.488  20.914  0.00  0.00    +0.000 C 
ATOM     13  C   UNL     1      -2.124  13.330  20.284  0.00  0.00    +0.000 C 
ATOM     14  C   UNL     1      -2.493  12.238  21.246  0.00  0.00    +0.000 C 
ENDBRANCH  10  12
ENDBRANCH   5   8
ENDBRANCH   1   2
BRANCH   1  15
ATOM     15  C   UNL     1       2.312   5.185  18.122  0.00  0.00    +0.000 C 
BRANCH  15  21
ATOM     16  C   UNL     1       1.216   3.547  20.836  0.00  0.00    +0.000 C 
ATOM     17  C   UNL     1       2.494   3.514  20.099  0.00  0.00    +0.000 A 
ATOM     18  O   UNL     1       3.441   2.677  20.588  0.00  0.00    +0.000 OA
ATOM     19  N   UNL     1       4.581   2.769  19.825  0.00  0.00    +0.000 NA
ATOM     20  C   UNL     1       4.329   3.677  18.864  0.00  0.00    +0.000 A 
ATOM     21  C   UNL     1       2.983   4.167  18.988  0.00  0.00    +0.000 A 
BRANCH  20  22
ATOM     22  C   UNL     1       5.362   4.059  17.890  0.00  0.00    +0.000 A 
ATOM     23  C   UNL     1       5.157   3.901  16.532  0.00  0.00    +0.000 A 
ATOM     24  C   UNL     1       6.207   4.253  15.714  0.00  0.00    +0.000 A 
ATOM     25  N   UNL     1       7.375   4.731  16.174  0.00  0.00    +0.000 NA
ATOM     26  C   UNL     1       7.471   4.853  17.504  0.00  0.00    +0.000 A 
ATOM     27  N   UNL     1       6.519   4.544  18.395  0.00  0.00    +0.000 NA
ENDBRANCH  20  22
ENDBRANCH  15  21
ENDBRANCH   1  15
TORSDOF 6
ENDMDL
MODEL 5
REMARK VINA RESULT:      -8.0      1.539      1.695
REMARK  Name = 
REMARK  7 active torsions:
REMARK  status: ('A' for Active; 'I' for Inactive)
REMARK    1  A    between atoms: C_1  and  C_2
REMARK    2  A    between atoms: C_5  and  C_6
REMARK    3  A    between atoms: C_12  and  C_13
REMARK    4  A    between atoms: C_13  and  O_14
REMARK    5  A    between atoms: O_14  and  C_15
REMARK    6  A    between atoms: C_18  and  C_19
REMARK    7  A    between atoms: N_21  and  C_22
REMARK                            x       y       z     vdW  Elec       q    Type
REMARK                         _______ _______ _______ _____ _____    ______ ____
ROOT
ATOM      1  O   UNL     1       2.961   6.548  19.876  0.00  0.00    +0.000 OA
ENDROOT
BRANCH   1   2
ATOM      2  C   UNL     1       2.212   7.658  19.550  0.00  0.00    +0.000 A 
ATOM      3  C   UNL     1       2.205   8.058  18.221  0.00  0.00    +0.000 A 
ATOM      4  C   UNL     1       1.448   9.178  17.855  0.00  0.00    +0.000 A 
ATOM      5  C   UNL     1       0.702   9.848  18.831  0.00  0.00    +0.000 A 
ATOM      6  C   UNL     1       0.757   9.345  20.126  0.00  0.00    +0.000 A 
ATOM      7  N   UNL     1       1.496   8.273  20.507  0.00  0.00    +0.000 NA
BRANCH   5   8
ATOM      8  C   UNL     1      -0.148  11.052  18.615  0.00  0.00    +0.000 C 
ATOM      9  O   UNL     1      -1.256  10.912  18.103  0.00  0.00    +0.000 OA
ATOM     10  N   UNL     1       0.343  12.290  18.987  0.00  0.00    +0.000 N 
ATOM     11  H   UNL     1       1.292  12.396  19.315  0.00  0.00    +0.000 HD
BRANCH  10  12
ATOM     12  C   UNL     1      -0.397  13.484  18.703  0.00  0.00    +0.000 C 
ATOM     13  C   UNL     1      -0.844  14.413  19.797  0.00  0.00    +0.000 C 
ATOM     14  C   UNL     1       0.240  14.836  18.849  0.00  0.00    +0.000 C 
ENDBRANCH  10  12
ENDBRANCH   5   8
ENDBRANCH   1   2
BRANCH   1  15
ATOM     15  C   UNL     1       2.548   5.384  19.140  0.00  0.00    +0.000 C 
BRANCH  15  21
ATOM     16  C   UNL     1       1.504   3.067  21.329  0.00  0.00    +0.000 C 
ATOM     17  C   UNL     1       2.740   3.203  20.534  0.00  0.00    +0.000 A 
ATOM     18  O   UNL     1       3.665   2.226  20.698  0.00  0.00    +0.000 OA
ATOM     19  N   UNL     1       4.769   2.496  19.924  0.00  0.00    +0.000 NA
ATOM     20  C   UNL     1       4.517   3.654  19.285  0.00  0.00    +0.000 A 
ATOM     21  C   UNL     1       3.207   4.134  19.630  0.00  0.00    +0.000 A 
BRANCH  20  22
ATOM     22  C   UNL     1       5.519   4.265  18.399  0.00  0.00    +0.000 A 
ATOM     23  C   UNL     1       5.388   4.204  17.024  0.00  0.00    +0.000 A 
ATOM     24  C   UNL     1       6.405   4.774  16.292  0.00  0.00    +0.000 A 
ATOM     25  N   UNL     1       7.474   5.369  16.848  0.00  0.00    +0.000 NA
ATOM     26  C   UNL     1       7.503   5.381  18.186  0.00  0.00    +0.000 A 
ATOM     27  N   UNL     1       6.573   4.860  19.000  0.00  0.00    +0.000 NA
ENDBRANCH  20  22
ENDBRANCH  15  21
ENDBRANCH   1  15
TORSDOF 6
ENDMDL
MODEL 6
REMARK VINA RESULT:      -8.0      1.324      1.702
REMARK  Name = 
REMARK  7 active torsions:
REMARK  status: ('A' for Active; 'I' for Inactive)
REMARK    1  A    between atoms: C_1  and  C_2
REMARK    2  A    between atoms: C_5  and  C_6
REMARK    3  A    between atoms: C_12  and  C_13
REMARK    4  A    between atoms: C_13  and  O_14
REMARK    5  A    between atoms: O_14  and  C_15
REMARK    6  A    between atoms: C_18  and  C_19
REMARK    7  A    between atoms: N_21  and  C_22
REMARK                            x       y       z     vdW  Elec       q    Type
REMARK                         _______ _______ _______ _____ _____    ______ ____
ROOT
ATOM      1  O   UNL     1       2.852   6.696  18.646  0.00  0.00    +0.000 OA
ENDROOT
BRANCH   1   2
ATOM      2  C   UNL     1       2.115   7.655  19.306  0.00  0.00    +0.000 A 
ATOM      3  C   UNL     1       1.809   7.422  20.639  0.00  0.00    +0.000 A 
ATOM      4  C   UNL     1       1.066   8.380  21.341  0.00  0.00    +0.000 A 
ATOM      5  C   UNL     1       0.674   9.554  20.688  0.00  0.00    +0.000 A 
ATOM      6  C   UNL     1       1.060   9.699  19.360  0.00  0.00    +0.000 A 
ATOM      7  N   UNL     1       1.764   8.778  18.656  0.00  0.00    +0.000 NA
BRANCH   5   8
ATOM      8  C   UNL     1      -0.119  10.667  21.282  0.00  0.00    +0.000 C 
ATOM      9  O   UNL     1       0.066  10.965  22.459  0.00  0.00    +0.000 OA
ATOM     10  N   UNL     1      -1.047  11.320  20.490  0.00  0.00    +0.000 N 
ATOM     11  H   UNL     1      -1.254  10.996  19.557  0.00  0.00    +0.000 HD
BRANCH  10  12
ATOM     12  C   UNL     1      -1.903  12.325  21.049  0.00  0.00    +0.000 C 
ATOM     13  C   UNL     1      -2.003  13.698  20.445  0.00  0.00    +0.000 C 
ATOM     14  C   UNL     1      -3.158  12.746  20.339  0.00  0.00    +0.000 C 
ENDBRANCH  10  12
ENDBRANCH   5   8
ENDBRANCH   1   2
BRANCH   1  15
ATOM     15  C   UNL     1       3.348   5.686  19.542  0.00  0.00    +0.000 C 
BRANCH  15  21
ATOM     16  C   UNL     1       0.954   3.434  20.215  0.00  0.00    +0.000 C 
ATOM     17  C   UNL     1       2.127   3.406  19.321  0.00  0.00    +0.000 A 
ATOM     18  O   UNL     1       2.317   2.259  18.623  0.00  0.00    +0.000 OA
ATOM     19  N   UNL     1       3.455   2.363  17.860  0.00  0.00    +0.000 NA
ATOM     20  C   UNL     1       3.969   3.584  18.098  0.00  0.00    +0.000 A 
ATOM     21  C   UNL     1       3.131   4.302  19.018  0.00  0.00    +0.000 A 
BRANCH  20  22
ATOM     22  C   UNL     1       5.229   4.012  17.472  0.00  0.00    +0.000 A 
ATOM     23  C   UNL     1       5.347   4.109  16.097  0.00  0.00    +0.000 A 
ATOM     24  C   UNL     1       6.582   4.480  15.619  0.00  0.00    +0.000 A 
ATOM     25  N   UNL     1       7.634   4.748  16.412  0.00  0.00    +0.000 NA
ATOM     26  C   UNL     1       7.415   4.632  17.727  0.00  0.00    +0.000 A 
ATOM     27  N   UNL     1       6.258   4.280  18.306  0.00  0.00    +0.000 NA
ENDBRANCH  20  22
ENDBRANCH  15  21
ENDBRANCH   1  15
TORSDOF 6
ENDMDL
MODEL 7
REMARK VINA RESULT:      -7.9      0.914      1.399
REMARK  Name = 
REMARK  7 active torsions:
REMARK  status: ('A' for Active; 'I' for Inactive)
REMARK    1  A    between atoms: C_1  and  C_2
REMARK    2  A    between atoms: C_5  and  C_6
REMARK    3  A    between atoms: C_12  and  C_13
REMARK    4  A    between atoms: C_13  and  O_14
REMARK    5  A    between atoms: O_14  and  C_15
REMARK    6  A    between atoms: C_18  and  C_19
REMARK    7  A    between atoms: N_21  and  C_22
REMARK                            x       y       z     vdW  Elec       q    Type
REMARK                         _______ _______ _______ _____ _____    ______ ____
ROOT
ATOM      1  O   UNL     1       3.139   6.868  18.282  0.00  0.00    +0.000 OA
ENDROOT
BRANCH   1   2
ATOM      2  C   UNL     1       2.301   7.851  18.760  0.00  0.00    +0.000 A 
ATOM      3  C   UNL     1       1.918   7.775  20.091  0.00  0.00    +0.000 A 
ATOM      4  C   UNL     1       1.072   8.764  20.610  0.00  0.00    +0.000 A 
ATOM      5  C   UNL     1       0.656   9.811  19.781  0.00  0.00    +0.000 A 
ATOM      6  C   UNL     1       1.123   9.806  18.472  0.00  0.00    +0.000 A 
ATOM      7  N   UNL     1       1.928   8.852  17.943  0.00  0.00    +0.000 NA
BRANCH   5   8
ATOM      8  C   UNL     1      -0.242  10.935  20.169  0.00  0.00    +0.000 C 
ATOM      9  O   UNL     1      -0.400  11.867  19.385  0.00  0.00    +0.000 OA
ATOM     10  N   UNL     1      -0.860  10.897  21.406  0.00  0.00    +0.000 N 
ATOM     11  H   UNL     1      -0.640  10.173  22.075  0.00  0.00    +0.000 HD
BRANCH  10  12
ATOM     12  C   UNL     1      -1.648  12.004  21.862  0.00  0.00    +0.000 C 
ATOM     13  C   UNL     1      -2.353  11.975  23.189  0.00  0.00    +0.000 C 
ATOM     14  C   UNL     1      -1.170  12.876  22.988  0.00  0.00    +0.000 C 
ENDBRANCH  10  12
ENDBRANCH   5   8
ENDBRANCH   1   2
BRANCH   1  15
ATOM     15  C   UNL     1       2.468   5.601  18.157  0.00  0.00    +0.000 C 
BRANCH  15  21
ATOM     16  C   UNL     1       1.404   3.551  20.589  0.00  0.00    +0.000 C 
ATOM     17  C   UNL     1       2.696   3.681  19.888  0.00  0.00    +0.000 A 
ATOM     18  O   UNL     1       3.675   2.831  20.281  0.00  0.00    +0.000 OA
ATOM     19  N   UNL     1       4.823   3.083  19.569  0.00  0.00    +0.000 NA
ATOM     20  C   UNL     1       4.544   4.103  18.737  0.00  0.00    +0.000 A 
ATOM     21  C   UNL     1       3.173   4.506  18.892  0.00  0.00    +0.000 A 
BRANCH  20  22
ATOM     22  C   UNL     1       5.575   4.666  17.852  0.00  0.00    +0.000 A 
ATOM     23  C   UNL     1       6.436   5.653  18.296  0.00  0.00    +0.000 A 
ATOM     24  C   UNL     1       7.334   6.135  17.372  0.00  0.00    +0.000 A 
ATOM     25  N   UNL     1       7.404   5.691  16.105  0.00  0.00    +0.000 NA
ATOM     26  C   UNL     1       6.533   4.730  15.777  0.00  0.00    +0.000 A 
ATOM     27  N   UNL     1       5.616   4.185  16.590  0.00  0.00    +0.000 NA
ENDBRANCH  20  22
ENDBRANCH  15  21
ENDBRANCH   1  15
TORSDOF 6
ENDMDL
MODEL 8
REMARK VINA RESULT:      -7.9      1.251      1.611
REMARK  Name = 
REMARK  7 active torsions:
REMARK  status: ('A' for Active; 'I' for Inactive)
REMARK    1  A    between atoms: C_1  and  C_2
REMARK    2  A    between atoms: C_5  and  C_6
REMARK    3  A    between atoms: C_12  and  C_13
REMARK    4  A    between atoms: C_13  and  O_14
REMARK    5  A    between atoms: O_14  and  C_15
REMARK    6  A    between atoms: C_18  and  C_19
REMARK    7  A    between atoms: N_21  and  C_22
REMARK                            x       y       z     vdW  Elec       q    Type
REMARK                         _______ _______ _______ _____ _____    ______ ____
ROOT
ATOM      1  O   UNL     1       3.193   6.453  17.948  0.00  0.00    +0.000 OA
ENDROOT
BRANCH   1   2
ATOM      2  C   UNL     1       2.492   7.553  18.391  0.00  0.00    +0.000 A 
ATOM      3  C   UNL     1       2.054   7.545  19.708  0.00  0.00    +0.000 A 
ATOM      4  C   UNL     1       1.344   8.651  20.192  0.00  0.00    +0.000 A 
ATOM      5  C   UNL     1       1.116   9.741  19.345  0.00  0.00    +0.000 A 
ATOM      6  C   UNL     1       1.624   9.657  18.054  0.00  0.00    +0.000 A 
ATOM      7  N   UNL     1       2.299   8.590  17.558  0.00  0.00    +0.000 NA
BRANCH   5   8
ATOM      8  C   UNL     1       0.379  10.988  19.697  0.00  0.00    +0.000 C 
ATOM      9  O   UNL     1      -0.693  11.220  19.143  0.00  0.00    +0.000 OA
ATOM     10  N   UNL     1       0.931  11.848  20.627  0.00  0.00    +0.000 N 
ATOM     11  H   UNL     1       1.857  11.689  20.998  0.00  0.00    +0.000 HD
BRANCH  10  12
ATOM     12  C   UNL     1       0.308  13.106  20.918  0.00  0.00    +0.000 C 
ATOM     13  C   UNL     1       1.086  14.254  21.500  0.00  0.00    +0.000 C 
ATOM     14  C   UNL     1       0.600  14.319  20.081  0.00  0.00    +0.000 C 
ENDBRANCH  10  12
ENDBRANCH   5   8
ENDBRANCH   1   2
BRANCH   1  15
ATOM     15  C   UNL     1       2.410   5.249  18.021  0.00  0.00    +0.000 C 
BRANCH  15  21
ATOM     16  C   UNL     1       1.188   3.627  20.691  0.00  0.00    +0.000 C 
ATOM     17  C   UNL     1       2.490   3.570  19.998  0.00  0.00    +0.000 A 
ATOM     18  O   UNL     1       3.403   2.714  20.517  0.00  0.00    +0.000 OA
ATOM     19  N   UNL     1       4.570   2.786  19.795  0.00  0.00    +0.000 NA
ATOM     20  C   UNL     1       4.369   3.701  18.829  0.00  0.00    +0.000 A 
ATOM     21  C   UNL     1       3.030   4.217  18.907  0.00  0.00    +0.000 A 
BRANCH  20  22
ATOM     22  C   UNL     1       5.443   4.064  17.892  0.00  0.00    +0.000 A 
ATOM     23  C   UNL     1       5.265   3.960  16.525  0.00  0.00    +0.000 A 
ATOM     24  C   UNL     1       6.349   4.288  15.744  0.00  0.00    +0.000 A 
ATOM     25  N   UNL     1       7.527   4.696  16.247  0.00  0.00    +0.000 NA
ATOM     26  C   UNL     1       7.596   4.770  17.581  0.00  0.00    +0.000 A 
ATOM     27  N   UNL     1       6.608   4.478  18.439  0.00  0.00    +0.000 NA
ENDBRANCH  20  22
ENDBRANCH  15  21
ENDBRANCH   1  15
TORSDOF 6
ENDMDL
MODEL 9
REMARK VINA RESULT:      -7.9      2.099      3.824
REMARK  Name = 
REMARK  7 active torsions:
REMARK  status: ('A' for Active; 'I' for Inactive)
REMARK    1  A    between atoms: C_1  and  C_2
REMARK    2  A    between atoms: C_5  and  C_6
REMARK    3  A    between atoms: C_12  and  C_13
REMARK    4  A    between atoms: C_13  and  O_14
REMARK    5  A    between atoms: O_14  and  C_15
REMARK    6  A    between atoms: C_18  and  C_19
REMARK    7  A    between atoms: N_21  and  C_22
REMARK                            x       y       z     vdW  Elec       q    Type
REMARK                         _______ _______ _______ _____ _____    ______ ____
ROOT
ATOM      1  O   UNL     1       2.471   7.242  18.034  0.00  0.00    +0.000 OA
ENDROOT
BRANCH   1   2
ATOM      2  C   UNL     1       1.891   7.884  19.106  0.00  0.00    +0.000 A 
ATOM      3  C   UNL     1       1.880   7.218  20.323  0.00  0.00    +0.000 A 
ATOM      4  C   UNL     1       1.303   7.847  21.434  0.00  0.00    +0.000 A 
ATOM      5  C   UNL     1       0.776   9.135  21.294  0.00  0.00    +0.000 A 
ATOM      6  C   UNL     1       0.867   9.723  20.037  0.00  0.00    +0.000 A 
ATOM      7  N   UNL     1       1.404   9.127  18.943  0.00  0.00    +0.000 NA
BRANCH   5   8
ATOM      8  C   UNL     1       0.127   9.940  22.366  0.00  0.00    +0.000 C 
ATOM      9  O   UNL     1       0.433   9.727  23.536  0.00  0.00    +0.000 OA
ATOM     10  N   UNL     1      -0.808  10.894  22.009  0.00  0.00    +0.000 N 
ATOM     11  H   UNL     1      -1.118  10.986  21.052  0.00  0.00    +0.000 HD
BRANCH  10  12
ATOM     12  C   UNL     1      -1.532  11.618  23.012  0.00  0.00    +0.000 C 
ATOM     13  C   UNL     1      -1.488  13.119  23.086  0.00  0.00    +0.000 C 
ATOM     14  C   UNL     1      -2.746  12.426  22.652  0.00  0.00    +0.000 C 
ENDBRANCH  10  12
ENDBRANCH   5   8
ENDBRANCH   1   2
BRANCH   1  15
ATOM     15  C   UNL     1       3.762   6.700  18.365  0.00  0.00    +0.000 C 
BRANCH  15  21
ATOM     16  C   UNL     1       5.438   6.147  15.513  0.00  0.00    +0.000 C 
ATOM     17  C   UNL     1       4.751   5.245  16.458  0.00  0.00    +0.000 A 
ATOM     18  O   UNL     1       4.770   3.927  16.143  0.00  0.00    +0.000 OA
ATOM     19  N   UNL     1       4.072   3.214  17.088  0.00  0.00    +0.000 NA
ATOM     20  C   UNL     1       3.618   4.107  17.986  0.00  0.00    +0.000 A 
ATOM     21  C   UNL     1       4.053   5.430  17.632  0.00  0.00    +0.000 A 
BRANCH  20  22
ATOM     22  C   UNL     1       2.782   3.685  19.120  0.00  0.00    +0.000 A 
ATOM     23  C   UNL     1       1.411   3.864  19.103  0.00  0.00    +0.000 A 
ATOM     24  C   UNL     1       0.733   3.469  20.233  0.00  0.00    +0.000 A 
ATOM     25  N   UNL     1       1.334   2.932  21.308  0.00  0.00    +0.000 NA
ATOM     26  C   UNL     1       2.663   2.795  21.223  0.00  0.00    +0.000 A 
ATOM     27  N   UNL     1       3.426   3.141  20.177  0.00  0.00    +0.000 NA
ENDBRANCH  20  22
ENDBRANCH  15  21
ENDBRANCH   1  15
TORSDOF 6
ENDMDL
