MODEL 1
REMARK VINA RESULT:      -7.4      0.000      0.000
REMARK  Name = 
REMARK  13 active torsions:
REMARK  status: ('A' for Active; 'I' for Inactive)
REMARK    1  A    between atoms: C_1  and  C_2
REMARK    2  A    between atoms: C_4  and  C_5
REMARK    3  A    between atoms: C_6  and  C_7
REMARK    4  A    between atoms: C_7  and  O_8
REMARK    5  A    between atoms: O_8  and  C_9
REMARK    6  A    between atoms: C_11  and  N_12
REMARK    7  A    between atoms: C_13  and  C_15
REMARK    8  A    between atoms: C_15  and  C_16
REMARK    9  A    between atoms: C_24  and  N_25
REMARK   10  A    between atoms: N_25  and  C_26
REMARK   11  A    between atoms: N_25  and  S_27
REMARK   12  A    between atoms: S_27  and  C_28
REMARK   13  A    between atoms: C_31  and  C_32
REMARK                            x       y       z     vdW  Elec       q    Type
REMARK                         _______ _______ _______ _____ _____    ______ ____
ROOT
ATOM      1  C   UNL     1       9.853  12.317  20.312  0.00  0.00    +0.000 A 
ATOM      2  C   UNL     1       9.422  10.963  20.349  0.00  0.00    +0.000 A 
ATOM      3  C   UNL     1       9.300  10.199  19.173  0.00  0.00    +0.000 A 
ATOM      4  C   UNL     1       9.591  10.788  17.949  0.00  0.00    +0.000 A 
ATOM      5  C   UNL     1       9.984  12.126  17.890  0.00  0.00    +0.000 A 
ATOM      6  C   UNL     1      10.147  12.891  19.053  0.00  0.00    +0.000 A 
ENDROOT
BRANCH   3   7
ATOM      7  N   UNL     1       8.952   8.825  19.170  0.00  0.00    +0.000 N 
ATOM      8  C   UNL     1       8.130   8.221  18.228  0.00  0.00    +0.000 C 
ATOM      9  O   UNL     1       7.630   8.797  17.264  0.00  0.00    +0.000 OA
ATOM     10  H   UNL     1       9.592   8.202  19.648  0.00  0.00    +0.000 HD
BRANCH   8  11
ATOM     11  C   UNL     1       7.889   6.733  18.480  0.00  0.00    +0.000 C 
BRANCH  11  12
ATOM     12  C   UNL     1       6.915   6.073  17.537  0.00  0.00    +0.000 A 
ATOM     13  C   UNL     1       5.530   6.198  17.715  0.00  0.00    +0.000 A 
ATOM     14  C   UNL     1       4.651   5.600  16.813  0.00  0.00    +0.000 A 
ATOM     15  C   UNL     1       5.183   4.900  15.746  0.00  0.00    +0.000 A 
ATOM     16  N   UNL     1       6.510   4.781  15.522  0.00  0.00    +0.000 NA
ATOM     17  C   UNL     1       7.342   5.375  16.412  0.00  0.00    +0.000 A 
ENDBRANCH  11  12
ENDBRANCH   8  11
ENDBRANCH   3   7
BRANCH   6  18
ATOM     18  N   UNL     1      10.686  14.216  18.862  0.00  0.00    +0.000 N 
ATOM     19  C   UNL     1      12.124  14.450  18.777  0.00  0.00    +0.000 C 
BRANCH  18  20
ATOM     20  S   UNL     1       9.634  15.467  18.460  0.00  0.00    +0.000 S 
ATOM     21  C   UNL     1       9.959  16.640  19.747  0.00  0.00    +0.000 C 
ATOM     22  O   UNL     1      10.022  16.061  17.202  0.00  0.00    +0.000 OA
ATOM     23  O   UNL     1       8.265  14.986  18.660  0.00  0.00    +0.000 OA
ENDBRANCH  18  20
ENDBRANCH   6  18
BRANCH   1  24
ATOM     24  O   UNL     1      10.019  13.109  21.439  0.00  0.00    +0.000 OA
BRANCH  24  25
ATOM     25  C   UNL     1       8.819  13.675  21.994  0.00  0.00    +0.000 C 
BRANCH  25  31
ATOM     26  C   UNL     1       7.793  14.528  27.706  0.00  0.00    +0.000 C 
ATOM     27  C   UNL     1       8.186  14.289  26.281  0.00  0.00    +0.000 A 
ATOM     28  C   UNL     1       8.783  15.293  25.526  0.00  0.00    +0.000 A 
ATOM     29  C   UNL     1       9.091  15.114  24.163  0.00  0.00    +0.000 A 
ATOM     30  C   UNL     1       9.810  16.247  23.499  0.00  0.00    +0.000 C 
ATOM     31  C   UNL     1       8.744  13.910  23.510  0.00  0.00    +0.000 A 
ATOM     32  C   UNL     1       8.252  12.842  24.318  0.00  0.00    +0.000 A 
ATOM     33  C   UNL     1       7.975  11.452  23.796  0.00  0.00    +0.000 C 
ATOM     34  C   UNL     1       7.959  13.057  25.678  0.00  0.00    +0.000 A 
ENDBRANCH  25  31
ENDBRANCH  24  25
ENDBRANCH   1  24
TORSDOF 8
ENDMDL
MODEL 2
REMARK VINA RESULT:      -7.3      7.701      9.205
REMARK  Name = 
REMARK  13 active torsions:
REMARK  status: ('A' for Active; 'I' for Inactive)
REMARK    1  A    between atoms: C_1  and  C_2
REMARK    2  A    between atoms: C_4  and  C_5
REMARK    3  A    between atoms: C_6  and  C_7
REMARK    4  A    between atoms: C_7  and  O_8
REMARK    5  A    between atoms: O_8  and  C_9
REMARK    6  A    between atoms: C_11  and  N_12
REMARK    7  A    between atoms: C_13  and  C_15
REMARK    8  A    between atoms: C_15  and  C_16
REMARK    9  A    between atoms: C_24  and  N_25
REMARK   10  A    between atoms: N_25  and  C_26
REMARK   11  A    between atoms: N_25  and  S_27
REMARK   12  A    between atoms: S_27  and  C_28
REMARK   13  A    between atoms: C_31  and  C_32
REMARK                            x       y       z     vdW  Elec       q    Type
REMARK                         _______ _______ _______ _____ _____    ______ ____
ROOT
ATOM      1  C   UNL     1       0.131   9.654  20.160  0.00  0.00    +0.000 A 
ATOM      2  C   UNL     1       1.049   8.612  20.455  0.00  0.00    +0.000 A 
ATOM      3  C   UNL     1       1.913   8.093  19.473  0.00  0.00    +0.000 A 
ATOM      4  C   UNL     1       1.853   8.601  18.181  0.00  0.00    +0.000 A 
ATOM      5  C   UNL     1       0.934   9.602  17.863  0.00  0.00    +0.000 A 
ATOM      6  C   UNL     1       0.093  10.157  18.838  0.00  0.00    +0.000 A 
ENDROOT
BRANCH   3   7
ATOM      7  N   UNL     1       2.899   7.111  19.743  0.00  0.00    +0.000 N 
ATOM      8  C   UNL     1       2.838   5.791  19.315  0.00  0.00    +0.000 C 
ATOM      9  O   UNL     1       1.936   5.322  18.624  0.00  0.00    +0.000 OA
ATOM     10  H   UNL     1       3.831   7.457  19.943  0.00  0.00    +0.000 HD
BRANCH   8  11
ATOM     11  C   UNL     1       4.017   4.935  19.775  0.00  0.00    +0.000 C 
BRANCH  11  12
ATOM     12  C   UNL     1       5.195   4.906  18.834  0.00  0.00    +0.000 A 
ATOM     13  C   UNL     1       6.448   5.399  19.220  0.00  0.00    +0.000 A 
ATOM     14  C   UNL     1       7.527   5.336  18.339  0.00  0.00    +0.000 A 
ATOM     15  C   UNL     1       7.324   4.768  17.094  0.00  0.00    +0.000 A 
ATOM     16  N   UNL     1       6.140   4.254  16.695  0.00  0.00    +0.000 NA
ATOM     17  C   UNL     1       5.110   4.325  17.573  0.00  0.00    +0.000 A 
ENDBRANCH  11  12
ENDBRANCH   8  11
ENDBRANCH   3   7
BRANCH   6  18
ATOM     18  N   UNL     1      -0.712  11.274  18.407  0.00  0.00    +0.000 N 
ATOM     19  C   UNL     1      -0.143  12.609  18.250  0.00  0.00    +0.000 C 
BRANCH  18  20
ATOM     20  S   UNL     1      -2.261  10.978  17.820  0.00  0.00    +0.000 S 
ATOM     21  C   UNL     1      -3.259  11.920  18.939  0.00  0.00    +0.000 C 
ATOM     22  O   UNL     1      -2.411  11.543  16.500  0.00  0.00    +0.000 OA
ATOM     23  O   UNL     1      -2.572   9.566  18.060  0.00  0.00    +0.000 OA
ENDBRANCH  18  20
ENDBRANCH   6  18
BRANCH   1  24
ATOM     24  O   UNL     1      -0.724  10.225  21.093  0.00  0.00    +0.000 OA
BRANCH  24  25
ATOM     25  C   UNL     1      -0.106  11.082  22.069  0.00  0.00    +0.000 C 
BRANCH  25  31
ATOM     26  C   UNL     1      -2.074  16.592  21.655  0.00  0.00    +0.000 C 
ATOM     27  C   UNL     1      -1.501  15.226  21.871  0.00  0.00    +0.000 A 
ATOM     28  C   UNL     1      -0.215  14.914  21.439  0.00  0.00    +0.000 A 
ATOM     29  C   UNL     1       0.315  13.615  21.562  0.00  0.00    +0.000 A 
ATOM     30  C   UNL     1       1.740  13.445  21.135  0.00  0.00    +0.000 C 
ATOM     31  C   UNL     1      -0.480  12.571  22.088  0.00  0.00    +0.000 A 
ATOM     32  C   UNL     1      -1.745  12.925  22.645  0.00  0.00    +0.000 A 
ATOM     33  C   UNL     1      -2.645  11.954  23.371  0.00  0.00    +0.000 C 
ATOM     34  C   UNL     1      -2.242  14.235  22.505  0.00  0.00    +0.000 A 
ENDBRANCH  25  31
ENDBRANCH  24  25
ENDBRANCH   1  24
TORSDOF 8
ENDMDL
MODEL 3
REMARK VINA RESULT:      -7.3      1.170      2.055
REMARK  Name = 
REMARK  13 active torsions:
REMARK  status: ('A' for Active; 'I' for Inactive)
REMARK    1  A    between atoms: C_1  and  C_2
REMARK    2  A    between atoms: C_4  and  C_5
REMARK    3  A    between atoms: C_6  and  C_7
REMARK    4  A    between atoms: C_7  and  O_8
REMARK    5  A    between atoms: O_8  and  C_9
REMARK    6  A    between atoms: C_11  and  N_12
REMARK    7  A    between atoms: C_13  and  C_15
REMARK    8  A    between atoms: C_15  and  C_16
REMARK    9  A    between atoms: C_24  and  N_25
REMARK   10  A    between atoms: N_25  and  C_26
REMARK   11  A    between atoms: N_25  and  S_27
REMARK   12  A    between atoms: S_27  and  C_28
REMARK   13  A    between atoms: C_31  and  C_32
REMARK                            x       y       z     vdW  Elec       q    Type
REMARK                         _______ _______ _______ _____ _____    ______ ____
ROOT
ATOM      1  C   UNL     1       9.572  12.298  20.164  0.00  0.00    +0.000 A 
ATOM      2  C   UNL     1       9.310  10.906  20.275  0.00  0.00    +0.000 A 
ATOM      3  C   UNL     1       9.051  10.114  19.141  0.00  0.00    +0.000 A 
ATOM      4  C   UNL     1       9.035  10.712  17.887  0.00  0.00    +0.000 A 
ATOM      5  C   UNL     1       9.258  12.084  17.760  0.00  0.00    +0.000 A 
ATOM      6  C   UNL     1       9.554  12.881  18.875  0.00  0.00    +0.000 A 
ENDROOT
BRANCH   3   7
ATOM      7  N   UNL     1       8.864   8.711  19.197  0.00  0.00    +0.000 N 
ATOM      8  C   UNL     1       8.111   7.977  18.292  0.00  0.00    +0.000 C 
ATOM      9  O   UNL     1       7.538   8.451  17.312  0.00  0.00    +0.000 OA
ATOM     10  H   UNL     1       9.577   8.185  19.691  0.00  0.00    +0.000 HD
BRANCH   8  11
ATOM     11  C   UNL     1       8.046   6.483  18.605  0.00  0.00    +0.000 C 
BRANCH  11  12
ATOM     12  C   UNL     1       6.992   5.714  17.848  0.00  0.00    +0.000 A 
ATOM     13  C   UNL     1       5.627   5.926  18.081  0.00  0.00    +0.000 A 
ATOM     14  C   UNL     1       4.674   5.221  17.348  0.00  0.00    +0.000 A 
ATOM     15  C   UNL     1       5.114   4.327  16.390  0.00  0.00    +0.000 A 
ATOM     16  N   UNL     1       6.419   4.115  16.113  0.00  0.00    +0.000 NA
ATOM     17  C   UNL     1       7.325   4.817  16.838  0.00  0.00    +0.000 A 
ENDBRANCH  11  12
ENDBRANCH   8  11
ENDBRANCH   3   7
BRANCH   6  18
ATOM     18  N   UNL     1       9.894  14.254  18.590  0.00  0.00    +0.000 N 
ATOM     19  C   UNL     1       8.869  15.287  18.476  0.00  0.00    +0.000 C 
BRANCH  18  20
ATOM     20  S   UNL     1      11.511  14.718  18.660  0.00  0.00    +0.000 S 
ATOM     21  C   UNL     1      11.690  15.632  17.153  0.00  0.00    +0.000 C 
ATOM     22  O   UNL     1      11.723  15.624  19.763  0.00  0.00    +0.000 OA
ATOM     23  O   UNL     1      12.332  13.512  18.524  0.00  0.00    +0.000 OA
ENDBRANCH  18  20
ENDBRANCH   6  18
BRANCH   1  24
ATOM     24  O   UNL     1       9.862  13.123  21.242  0.00  0.00    +0.000 OA
BRANCH  24  25
ATOM     25  C   UNL     1       8.744  13.820  21.819  0.00  0.00    +0.000 C 
BRANCH  25  31
ATOM     26  C   UNL     1       9.126  14.334  27.649  0.00  0.00    +0.000 C 
ATOM     27  C   UNL     1       8.893  14.219  26.175  0.00  0.00    +0.000 A 
ATOM     28  C   UNL     1       8.461  13.023  25.611  0.00  0.00    +0.000 A 
ATOM     29  C   UNL     1       8.309  12.870  24.218  0.00  0.00    +0.000 A 
ATOM     30  C   UNL     1       7.754  11.557  23.760  0.00  0.00    +0.000 C 
ATOM     31  C   UNL     1       8.650  13.930  23.348  0.00  0.00    +0.000 A 
ATOM     32  C   UNL     1       8.968  15.189  23.938  0.00  0.00    +0.000 A 
ATOM     33  C   UNL     1       9.211  16.451  23.145  0.00  0.00    +0.000 C 
ATOM     34  C   UNL     1       9.108  15.305  25.334  0.00  0.00    +0.000 A 
ENDBRANCH  25  31
ENDBRANCH  24  25
ENDBRANCH   1  24
TORSDOF 8
ENDMDL
MODEL 4
REMARK VINA RESULT:      -7.3      7.713      9.320
REMARK  Name = 
REMARK  13 active torsions:
REMARK  status: ('A' for Active; 'I' for Inactive)
REMARK    1  A    between atoms: C_1  and  C_2
REMARK    2  A    between atoms: C_4  and  C_5
REMARK    3  A    between atoms: C_6  and  C_7
REMARK    4  A    between atoms: C_7  and  O_8
REMARK    5  A    between atoms: O_8  and  C_9
REMARK    6  A    between atoms: C_11  and  N_12
REMARK    7  A    between atoms: C_13  and  C_15
REMARK    8  A    between atoms: C_15  and  C_16
REMARK    9  A    between atoms: C_24  and  N_25
REMARK   10  A    between atoms: N_25  and  C_26
REMARK   11  A    between atoms: N_25  and  S_27
REMARK   12  A    between atoms: S_27  and  C_28
REMARK   13  A    between atoms: C_31  and  C_32
REMARK                            x       y       z     vdW  Elec       q    Type
REMARK                         _______ _______ _______ _____ _____    ______ ____
ROOT
ATOM      1  C   UNL     1      -0.063   9.740  20.101  0.00  0.00    +0.000 A 
ATOM      2  C   UNL     1       0.943   8.773  20.367  0.00  0.00    +0.000 A 
ATOM      3  C   UNL     1       1.780   8.283  19.347  0.00  0.00    +0.000 A 
ATOM      4  C   UNL     1       1.605   8.744  18.048  0.00  0.00    +0.000 A 
ATOM      5  C   UNL     1       0.601   9.670  17.761  0.00  0.00    +0.000 A 
ATOM      6  C   UNL     1      -0.217  10.197  18.771  0.00  0.00    +0.000 A 
ENDROOT
BRANCH   3   7
ATOM      7  N   UNL     1       2.847   7.380  19.581  0.00  0.00    +0.000 N 
ATOM      8  C   UNL     1       2.794   6.014  19.336  0.00  0.00    +0.000 C 
ATOM      9  O   UNL     1       1.826   5.427  18.856  0.00  0.00    +0.000 OA
ATOM     10  H   UNL     1       3.777   7.782  19.590  0.00  0.00    +0.000 HD
BRANCH   8  11
ATOM     11  C   UNL     1       4.074   5.267  19.711  0.00  0.00    +0.000 C 
BRANCH  11  12
ATOM     12  C   UNL     1       5.122   5.208  18.628  0.00  0.00    +0.000 A 
ATOM     13  C   UNL     1       6.482   5.376  18.922  0.00  0.00    +0.000 A 
ATOM     14  C   UNL     1       7.433   5.290  17.906  0.00  0.00    +0.000 A 
ATOM     15  C   UNL     1       6.997   5.025  16.621  0.00  0.00    +0.000 A 
ATOM     16  N   UNL     1       5.700   4.826  16.302  0.00  0.00    +0.000 NA
ATOM     17  C   UNL     1       4.797   4.912  17.309  0.00  0.00    +0.000 A 
ENDBRANCH  11  12
ENDBRANCH   8  11
ENDBRANCH   3   7
BRANCH   6  18
ATOM     18  N   UNL     1      -1.122  11.242  18.362  0.00  0.00    +0.000 N 
ATOM     19  C   UNL     1      -0.666  12.616  18.171  0.00  0.00    +0.000 C 
BRANCH  18  20
ATOM     20  S   UNL     1      -2.664  10.818  17.837  0.00  0.00    +0.000 S 
ATOM     21  C   UNL     1      -2.556  11.141  16.099  0.00  0.00    +0.000 C 
ATOM     22  O   UNL     1      -2.881   9.402  18.018  0.00  0.00    +0.000 OA
ATOM     23  O   UNL     1      -3.612  11.789  18.391  0.00  0.00    +0.000 OA
ENDBRANCH  18  20
ENDBRANCH   6  18
BRANCH   1  24
ATOM     24  O   UNL     1      -0.896  10.281  21.070  0.00  0.00    +0.000 OA
BRANCH  24  25
ATOM     25  C   UNL     1      -0.247  11.027  22.115  0.00  0.00    +0.000 C 
BRANCH  25  31
ATOM     26  C   UNL     1      -1.005  16.732  23.245  0.00  0.00    +0.000 C 
ATOM     27  C   UNL     1      -0.902  15.290  22.855  0.00  0.00    +0.000 A 
ATOM     28  C   UNL     1      -1.857  14.368  23.271  0.00  0.00    +0.000 A 
ATOM     29  C   UNL     1      -1.739  12.994  22.981  0.00  0.00    +0.000 A 
ATOM     30  C   UNL     1      -2.883  12.132  23.417  0.00  0.00    +0.000 C 
ATOM     31  C   UNL     1      -0.602  12.509  22.295  0.00  0.00    +0.000 A 
ATOM     32  C   UNL     1       0.304  13.473  21.761  0.00  0.00    +0.000 A 
ATOM     33  C   UNL     1       1.482  13.123  20.884  0.00  0.00    +0.000 C 
ATOM     34  C   UNL     1       0.152  14.839  22.070  0.00  0.00    +0.000 A 
ENDBRANCH  25  31
ENDBRANCH  24  25
ENDBRANCH   1  24
TORSDOF 8
ENDMDL
MODEL 5
REMARK VINA RESULT:      -7.2      8.651     10.706
REMARK  Name = 
REMARK  13 active torsions:
REMARK  status: ('A' for Active; 'I' for Inactive)
REMARK    1  A    between atoms: C_1  and  C_2
REMARK    2  A    between atoms: C_4  and  C_5
REMARK    3  A    between atoms: C_6  and  C_7
REMARK    4  A    between atoms: C_7  and  O_8
REMARK    5  A    between atoms: O_8  and  C_9
REMARK    6  A    between atoms: C_11  and  N_12
REMARK    7  A    between atoms: C_13  and  C_15
REMARK    8  A    between atoms: C_15  and  C_16
REMARK    9  A    between atoms: C_24  and  N_25
REMARK   10  A    between atoms: N_25  and  C_26
REMARK   11  A    between atoms: N_25  and  S_27
REMARK   12  A    between atoms: S_27  and  C_28
REMARK   13  A    between atoms: C_31  and  C_32
REMARK                            x       y       z     vdW  Elec       q    Type
REMARK                         _______ _______ _______ _____ _____    ______ ____
ROOT
ATOM      1  C   UNL     1      -0.326  11.671  18.932  0.00  0.00    +0.000 A 
ATOM      2  C   UNL     1       0.039  10.372  18.487  0.00  0.00    +0.000 A 
ATOM      3  C   UNL     1       1.369  10.057  18.150  0.00  0.00    +0.000 A 
ATOM      4  C   UNL     1       2.342  11.045  18.239  0.00  0.00    +0.000 A 
ATOM      5  C   UNL     1       1.998  12.336  18.643  0.00  0.00    +0.000 A 
ATOM      6  C   UNL     1       0.685  12.657  19.018  0.00  0.00    +0.000 A 
ENDROOT
BRANCH   3   7
ATOM      7  N   UNL     1       1.792   8.756  17.779  0.00  0.00    +0.000 N 
ATOM      8  C   UNL     1       2.151   7.757  18.673  0.00  0.00    +0.000 C 
ATOM      9  O   UNL     1       2.116   7.869  19.897  0.00  0.00    +0.000 OA
ATOM     10  H   UNL     1       1.488   8.432  16.868  0.00  0.00    +0.000 HD
BRANCH   8  11
ATOM     11  C   UNL     1       2.603   6.459  18.004  0.00  0.00    +0.000 C 
BRANCH  11  12
ATOM     12  C   UNL     1       4.095   6.295  17.866  0.00  0.00    +0.000 A 
ATOM     13  C   UNL     1       4.840   5.579  18.812  0.00  0.00    +0.000 A 
ATOM     14  C   UNL     1       6.215   5.420  18.646  0.00  0.00    +0.000 A 
ATOM     15  C   UNL     1       6.808   5.973  17.527  0.00  0.00    +0.000 A 
ATOM     16  N   UNL     1       6.122   6.644  16.576  0.00  0.00    +0.000 NA
ATOM     17  C   UNL     1       4.786   6.781  16.761  0.00  0.00    +0.000 A 
ENDBRANCH  11  12
ENDBRANCH   8  11
ENDBRANCH   3   7
BRANCH   6  18
ATOM     18  N   UNL     1       0.492  13.987  19.542  0.00  0.00    +0.000 N 
ATOM     19  C   UNL     1      -0.143  15.035  18.749  0.00  0.00    +0.000 C 
BRANCH  18  20
ATOM     20  S   UNL     1       0.756  14.257  21.182  0.00  0.00    +0.000 S 
ATOM     21  C   UNL     1      -0.421  15.534  21.533  0.00  0.00    +0.000 C 
ATOM     22  O   UNL     1       0.390  13.087  21.946  0.00  0.00    +0.000 OA
ATOM     23  O   UNL     1       2.086  14.853  21.332  0.00  0.00    +0.000 OA
ENDBRANCH  18  20
ENDBRANCH   6  18
BRANCH   1  24
ATOM     24  O   UNL     1      -1.613  12.031  19.306  0.00  0.00    +0.000 OA
BRANCH  24  25
ATOM     25  C   UNL     1      -2.672  11.205  18.790  0.00  0.00    +0.000 C 
BRANCH  25  31
ATOM     26  C   UNL     1      -7.675  14.038  17.630  0.00  0.00    +0.000 C 
ATOM     27  C   UNL     1      -6.474  13.216  17.981  0.00  0.00    +0.000 A 
ATOM     28  C   UNL     1      -5.957  13.221  19.273  0.00  0.00    +0.000 A 
ATOM     29  C   UNL     1      -4.784  12.516  19.607  0.00  0.00    +0.000 A 
ATOM     30  C   UNL     1      -4.393  12.540  21.052  0.00  0.00    +0.000 C 
ATOM     31  C   UNL     1      -4.067  11.820  18.608  0.00  0.00    +0.000 A 
ATOM     32  C   UNL     1      -4.670  11.712  17.319  0.00  0.00    +0.000 A 
ATOM     33  C   UNL     1      -4.103  10.883  16.192  0.00  0.00    +0.000 C 
ATOM     34  C   UNL     1      -5.845  12.430  17.023  0.00  0.00    +0.000 A 
ENDBRANCH  25  31
ENDBRANCH  24  25
ENDBRANCH   1  24
TORSDOF 8
ENDMDL
MODEL 6
REMARK VINA RESULT:      -7.2      8.320     10.432
REMARK  Name = 
REMARK  13 active torsions:
REMARK  status: ('A' for Active; 'I' for Inactive)
REMARK    1  A    between atoms: C_1  and  C_2
REMARK    2  A    between atoms: C_4  and  C_5
REMARK    3  A    between atoms: C_6  and  C_7
REMARK    4  A    between atoms: C_7  and  O_8
REMARK    5  A    between atoms: O_8  and  C_9
REMARK    6  A    between atoms: C_11  and  N_12
REMARK    7  A    between atoms: C_13  and  C_15
REMARK    8  A    between atoms: C_15  and  C_16
REMARK    9  A    between atoms: C_24  and  N_25
REMARK   10  A    between atoms: N_25  and  C_26
REMARK   11  A    between atoms: N_25  and  S_27
REMARK   12  A    between atoms: S_27  and  C_28
REMARK   13  A    between atoms: C_31  and  C_32
REMARK                            x       y       z     vdW  Elec       q    Type
REMARK                         _______ _______ _______ _____ _____    ______ ____
ROOT
ATOM      1  C   UNL     1       0.146  11.567  19.187  0.00  0.00    +0.000 A 
ATOM      2  C   UNL     1       0.321  10.228  18.747  0.00  0.00    +0.000 A 
ATOM      3  C   UNL     1       1.518   9.804  18.141  0.00  0.00    +0.000 A 
ATOM      4  C   UNL     1       2.545  10.721  17.955  0.00  0.00    +0.000 A 
ATOM      5  C   UNL     1       2.380  12.049  18.352  0.00  0.00    +0.000 A 
ATOM      6  C   UNL     1       1.208  12.480  18.990  0.00  0.00    +0.000 A 
ENDROOT
BRANCH   3   7
ATOM      7  N   UNL     1       1.766   8.461  17.761  0.00  0.00    +0.000 N 
ATOM      8  C   UNL     1       2.155   7.452  18.630  0.00  0.00    +0.000 C 
ATOM      9  O   UNL     1       2.302   7.593  19.843  0.00  0.00    +0.000 OA
ATOM     10  H   UNL     1       1.310   8.147  16.911  0.00  0.00    +0.000 HD
BRANCH   8  11
ATOM     11  C   UNL     1       2.390   6.104  17.951  0.00  0.00    +0.000 C 
BRANCH  11  12
ATOM     12  C   UNL     1       2.449   4.918  18.882  0.00  0.00    +0.000 A 
ATOM     13  C   UNL     1       1.287   4.379  19.449  0.00  0.00    +0.000 A 
ATOM     14  C   UNL     1       1.367   3.267  20.285  0.00  0.00    +0.000 A 
ATOM     15  C   UNL     1       2.612   2.713  20.522  0.00  0.00    +0.000 A 
ATOM     16  N   UNL     1       3.752   3.184  19.970  0.00  0.00    +0.000 NA
ATOM     17  C   UNL     1       3.645   4.264  19.158  0.00  0.00    +0.000 A 
ENDBRANCH  11  12
ENDBRANCH   8  11
ENDBRANCH   3   7
BRANCH   6  18
ATOM     18  N   UNL     1       1.220  13.841  19.467  0.00  0.00    +0.000 N 
ATOM     19  C   UNL     1       0.603  14.923  18.704  0.00  0.00    +0.000 C 
BRANCH  18  20
ATOM     20  S   UNL     1       1.712  14.141  21.048  0.00  0.00    +0.000 S 
ATOM     21  C   UNL     1       1.873  15.904  21.050  0.00  0.00    +0.000 C 
ATOM     22  O   UNL     1       0.662  13.785  21.974  0.00  0.00    +0.000 OA
ATOM     23  O   UNL     1       3.060  13.592  21.212  0.00  0.00    +0.000 OA
ENDBRANCH  18  20
ENDBRANCH   6  18
BRANCH   1  24
ATOM     24  O   UNL     1      -1.000  12.035  19.816  0.00  0.00    +0.000 OA
BRANCH  24  25
ATOM     25  C   UNL     1      -2.165  11.199  19.702  0.00  0.00    +0.000 C 
BRANCH  25  31
ATOM     26  C   UNL     1      -7.236  12.770  17.209  0.00  0.00    +0.000 C 
ATOM     27  C   UNL     1      -5.887  12.481  17.788  0.00  0.00    +0.000 A 
ATOM     28  C   UNL     1      -4.896  11.875  17.022  0.00  0.00    +0.000 A 
ATOM     29  C   UNL     1      -3.645  11.523  17.568  0.00  0.00    +0.000 A 
ATOM     30  C   UNL     1      -2.646  10.958  16.607  0.00  0.00    +0.000 C 
ATOM     31  C   UNL     1      -3.387  11.735  18.942  0.00  0.00    +0.000 A 
ATOM     32  C   UNL     1      -4.356  12.471  19.687  0.00  0.00    +0.000 A 
ATOM     33  C   UNL     1      -4.162  12.903  21.121  0.00  0.00    +0.000 C 
ATOM     34  C   UNL     1      -5.593  12.807  19.107  0.00  0.00    +0.000 A 
ENDBRANCH  25  31
ENDBRANCH  24  25
ENDBRANCH   1  24
TORSDOF 8
ENDMDL
MODEL 7
REMARK VINA RESULT:      -7.2      6.715     10.528
REMARK  Name = 
REMARK  13 active torsions:
REMARK  status: ('A' for Active; 'I' for Inactive)
REMARK    1  A    between atoms: C_1  and  C_2
REMARK    2  A    between atoms: C_4  and  C_5
REMARK    3  A    between atoms: C_6  and  C_7
REMARK    4  A    between atoms: C_7  and  O_8
REMARK    5  A    between atoms: O_8  and  C_9
REMARK    6  A    between atoms: C_11  and  N_12
REMARK    7  A    between atoms: C_13  and  C_15
REMARK    8  A    between atoms: C_15  and  C_16
REMARK    9  A    between atoms: C_24  and  N_25
REMARK   10  A    between atoms: N_25  and  C_26
REMARK   11  A    between atoms: N_25  and  S_27
REMARK   12  A    between atoms: S_27  and  C_28
REMARK   13  A    between atoms: C_31  and  C_32
REMARK                            x       y       z     vdW  Elec       q    Type
REMARK                         _______ _______ _______ _____ _____    ______ ____
ROOT
ATOM      1  C   UNL     1       1.029  11.434  18.498  0.00  0.00    +0.000 A 
ATOM      2  C   UNL     1       2.256  12.076  18.182  0.00  0.00    +0.000 A 
ATOM      3  C   UNL     1       2.366  13.479  18.154  0.00  0.00    +0.000 A 
ATOM      4  C   UNL     1       1.243  14.252  18.424  0.00  0.00    +0.000 A 
ATOM      5  C   UNL     1       0.021  13.640  18.704  0.00  0.00    +0.000 A 
ATOM      6  C   UNL     1      -0.098  12.244  18.774  0.00  0.00    +0.000 A 
ENDROOT
BRANCH   3   7
ATOM      7  N   UNL     1       3.587  14.161  17.923  0.00  0.00    +0.000 N 
ATOM      8  C   UNL     1       4.399  14.687  18.918  0.00  0.00    +0.000 C 
ATOM      9  O   UNL     1       4.173  14.598  20.124  0.00  0.00    +0.000 OA
ATOM     10  H   UNL     1       4.056  13.951  17.049  0.00  0.00    +0.000 HD
BRANCH   8  11
ATOM     11  C   UNL     1       5.641  15.404  18.391  0.00  0.00    +0.000 C 
BRANCH  11  12
ATOM     12  C   UNL     1       6.934  14.642  18.542  0.00  0.00    +0.000 A 
ATOM     13  C   UNL     1       7.375  13.753  17.553  0.00  0.00    +0.000 A 
ATOM     14  C   UNL     1       8.587  13.081  17.705  0.00  0.00    +0.000 A 
ATOM     15  C   UNL     1       9.334  13.327  18.842  0.00  0.00    +0.000 A 
ATOM     16  N   UNL     1       8.959  14.199  19.804  0.00  0.00    +0.000 NA
ATOM     17  C   UNL     1       7.778  14.841  19.629  0.00  0.00    +0.000 A 
ENDBRANCH  11  12
ENDBRANCH   8  11
ENDBRANCH   3   7
BRANCH   6  18
ATOM     18  N   UNL     1      -1.381  11.746  19.203  0.00  0.00    +0.000 N 
ATOM     19  C   UNL     1      -1.867  11.958  20.564  0.00  0.00    +0.000 C 
BRANCH  18  20
ATOM     20  S   UNL     1      -2.446  11.148  18.045  0.00  0.00    +0.000 S 
ATOM     21  C   UNL     1      -3.998  11.778  18.621  0.00  0.00    +0.000 C 
ATOM     22  O   UNL     1      -2.170  11.741  16.759  0.00  0.00    +0.000 OA
ATOM     23  O   UNL     1      -2.500   9.691  18.192  0.00  0.00    +0.000 OA
ENDBRANCH  18  20
ENDBRANCH   6  18
BRANCH   1  24
ATOM     24  O   UNL     1       0.868  10.058  18.570  0.00  0.00    +0.000 OA
BRANCH  24  25
ATOM     25  C   UNL     1       2.076   9.279  18.503  0.00  0.00    +0.000 C 
BRANCH  25  31
ATOM     26  C   UNL     1       1.870   3.893  20.816  0.00  0.00    +0.000 C 
ATOM     27  C   UNL     1       2.025   5.294  20.312  0.00  0.00    +0.000 A 
ATOM     28  C   UNL     1       1.468   6.366  21.002  0.00  0.00    +0.000 A 
ATOM     29  C   UNL     1       1.536   7.684  20.506  0.00  0.00    +0.000 A 
ATOM     30  C   UNL     1       0.970   8.748  21.395  0.00  0.00    +0.000 C 
ATOM     31  C   UNL     1       2.135   7.940  19.252  0.00  0.00    +0.000 A 
ATOM     32  C   UNL     1       2.815   6.859  18.615  0.00  0.00    +0.000 A 
ATOM     33  C   UNL     1       3.624   7.005  17.349  0.00  0.00    +0.000 C 
ATOM     34  C   UNL     1       2.727   5.556  19.142  0.00  0.00    +0.000 A 
ENDBRANCH  25  31
ENDBRANCH  24  25
ENDBRANCH   1  24
TORSDOF 8
ENDMDL
MODEL 8
REMARK VINA RESULT:      -7.2      8.557     10.345
REMARK  Name = 
REMARK  13 active torsions:
REMARK  status: ('A' for Active; 'I' for Inactive)
REMARK    1  A    between atoms: C_1  and  C_2
REMARK    2  A    between atoms: C_4  and  C_5
REMARK    3  A    between atoms: C_6  and  C_7
REMARK    4  A    between atoms: C_7  and  O_8
REMARK    5  A    between atoms: O_8  and  C_9
REMARK    6  A    between atoms: C_11  and  N_12
REMARK    7  A    between atoms: C_13  and  C_15
REMARK    8  A    between atoms: C_15  and  C_16
REMARK    9  A    between atoms: C_24  and  N_25
REMARK   10  A    between atoms: N_25  and  C_26
REMARK   11  A    between atoms: N_25  and  S_27
REMARK   12  A    between atoms: S_27  and  C_28
REMARK   13  A    between atoms: C_31  and  C_32
REMARK                            x       y       z     vdW  Elec       q    Type
REMARK                         _______ _______ _______ _____ _____    ______ ____
ROOT
ATOM      1  C   UNL     1      -0.127  11.520  19.426  0.00  0.00    +0.000 A 
ATOM      2  C   UNL     1       0.219  10.218  18.973  0.00  0.00    +0.000 A 
ATOM      3  C   UNL     1       1.453   9.962  18.346  0.00  0.00    +0.000 A 
ATOM      4  C   UNL     1       2.344  11.010  18.151  0.00  0.00    +0.000 A 
ATOM      5  C   UNL     1       2.008  12.302  18.559  0.00  0.00    +0.000 A 
ATOM      6  C   UNL     1       0.800  12.568  19.219  0.00  0.00    +0.000 A 
ENDROOT
BRANCH   3   7
ATOM      7  N   UNL     1       1.872   8.667  17.951  0.00  0.00    +0.000 N 
ATOM      8  C   UNL     1       2.206   7.643  18.827  0.00  0.00    +0.000 C 
ATOM      9  O   UNL     1       2.147   7.725  20.053  0.00  0.00    +0.000 OA
ATOM     10  H   UNL     1       1.585   8.368  17.026  0.00  0.00    +0.000 HD
BRANCH   8  11
ATOM     11  C   UNL     1       2.660   6.359  18.136  0.00  0.00    +0.000 C 
BRANCH  11  12
ATOM     12  C   UNL     1       4.144   6.091  18.190  0.00  0.00    +0.000 A 
ATOM     13  C   UNL     1       5.029   6.715  17.302  0.00  0.00    +0.000 A 
ATOM     14  C   UNL     1       6.399   6.470  17.392  0.00  0.00    +0.000 A 
ATOM     15  C   UNL     1       6.848   5.614  18.380  0.00  0.00    +0.000 A 
ATOM     16  N   UNL     1       6.031   5.017  19.275  0.00  0.00    +0.000 NA
ATOM     17  C   UNL     1       4.705   5.275  19.167  0.00  0.00    +0.000 A 
ENDBRANCH  11  12
ENDBRANCH   8  11
ENDBRANCH   3   7
BRANCH   6  18
ATOM     18  N   UNL     1       0.636  13.916  19.706  0.00  0.00    +0.000 N 
ATOM     19  C   UNL     1      -0.074  14.928  18.929  0.00  0.00    +0.000 C 
BRANCH  18  20
ATOM     20  S   UNL     1       1.033  14.252  21.307  0.00  0.00    +0.000 S 
ATOM     21  C   UNL     1       1.331  15.997  21.247  0.00  0.00    +0.000 C 
ATOM     22  O   UNL     1      -0.106  14.020  22.163  0.00  0.00    +0.000 OA
ATOM     23  O   UNL     1       2.319  13.612  21.596  0.00  0.00    +0.000 OA
ENDBRANCH  18  20
ENDBRANCH   6  18
BRANCH   1  24
ATOM     24  O   UNL     1      -1.314  11.825  20.076  0.00  0.00    +0.000 OA
BRANCH  24  25
ATOM     25  C   UNL     1      -2.278  12.569  19.309  0.00  0.00    +0.000 C 
BRANCH  25  31
ATOM     26  C   UNL     1      -7.770  11.138  20.789  0.00  0.00    +0.000 C 
ATOM     27  C   UNL     1      -6.422  11.604  20.336  0.00  0.00    +0.000 A 
ATOM     28  C   UNL     1      -5.923  11.242  19.089  0.00  0.00    +0.000 A 
ATOM     29  C   UNL     1      -4.627  11.605  18.673  0.00  0.00    +0.000 A 
ATOM     30  C   UNL     1      -4.256  11.222  17.274  0.00  0.00    +0.000 C 
ATOM     31  C   UNL     1      -3.772  12.311  19.550  0.00  0.00    +0.000 A 
ATOM     32  C   UNL     1      -4.334  12.788  20.772  0.00  0.00    +0.000 A 
ATOM     33  C   UNL     1      -3.597  13.678  21.744  0.00  0.00    +0.000 C 
ATOM     34  C   UNL     1      -5.635  12.407  21.153  0.00  0.00    +0.000 A 
ENDBRANCH  25  31
ENDBRANCH  24  25
ENDBRANCH   1  24
TORSDOF 8
ENDMDL
MODEL 9
REMARK VINA RESULT:      -7.1      8.106     10.786
REMARK  Name = 
REMARK  13 active torsions:
REMARK  status: ('A' for Active; 'I' for Inactive)
REMARK    1  A    between atoms: C_1  and  C_2
REMARK    2  A    between atoms: C_4  and  C_5
REMARK    3  A    between atoms: C_6  and  C_7
REMARK    4  A    between atoms: C_7  and  O_8
REMARK    5  A    between atoms: O_8  and  C_9
REMARK    6  A    between atoms: C_11  and  N_12
REMARK    7  A    between atoms: C_13  and  C_15
REMARK    8  A    between atoms: C_15  and  C_16
REMARK    9  A    between atoms: C_24  and  N_25
REMARK   10  A    between atoms: N_25  and  C_26
REMARK   11  A    between atoms: N_25  and  S_27
REMARK   12  A    between atoms: S_27  and  C_28
REMARK   13  A    between atoms: C_31  and  C_32
REMARK                            x       y       z     vdW  Elec       q    Type
REMARK                         _______ _______ _______ _____ _____    ______ ____
ROOT
ATOM      1  C   UNL     1       0.718   9.630  19.151  0.00  0.00    +0.000 A 
ATOM      2  C   UNL     1       1.247   8.636  18.285  0.00  0.00    +0.000 A 
ATOM      3  C   UNL     1       2.049   7.587  18.773  0.00  0.00    +0.000 A 
ATOM      4  C   UNL     1       2.343   7.535  20.130  0.00  0.00    +0.000 A 
ATOM      5  C   UNL     1       1.861   8.522  20.992  0.00  0.00    +0.000 A 
ATOM      6  C   UNL     1       1.030   9.552  20.529  0.00  0.00    +0.000 A 
ENDROOT
BRANCH   3   7
ATOM      7  N   UNL     1       2.530   6.531  17.960  0.00  0.00    +0.000 N 
ATOM      8  C   UNL     1       2.384   5.181  18.250  0.00  0.00    +0.000 C 
ATOM      9  O   UNL     1       1.793   4.737  19.233  0.00  0.00    +0.000 OA
ATOM     10  H   UNL     1       2.667   6.749  16.980  0.00  0.00    +0.000 HD
BRANCH   8  11
ATOM     11  C   UNL     1       3.029   4.252  17.222  0.00  0.00    +0.000 C 
BRANCH  11  12
ATOM     12  C   UNL     1       4.534   4.320  17.151  0.00  0.00    +0.000 A 
ATOM     13  C   UNL     1       5.202   4.398  15.922  0.00  0.00    +0.000 A 
ATOM     14  C   UNL     1       6.593   4.487  15.887  0.00  0.00    +0.000 A 
ATOM     15  C   UNL     1       7.280   4.505  17.087  0.00  0.00    +0.000 A 
ATOM     16  N   UNL     1       6.671   4.462  18.292  0.00  0.00    +0.000 NA
ATOM     17  C   UNL     1       5.318   4.381  18.298  0.00  0.00    +0.000 A 
ENDBRANCH  11  12
ENDBRANCH   8  11
ENDBRANCH   3   7
BRANCH   6  18
ATOM     18  N   UNL     1       0.492  10.426  21.543  0.00  0.00    +0.000 N 
ATOM     19  C   UNL     1       0.462  11.875  21.364  0.00  0.00    +0.000 C 
BRANCH  18  20
ATOM     20  S   UNL     1      -0.356   9.748  22.828  0.00  0.00    +0.000 S 
ATOM     21  C   UNL     1      -1.518  11.029  23.211  0.00  0.00    +0.000 C 
ATOM     22  O   UNL     1      -1.094   8.590  22.384  0.00  0.00    +0.000 OA
ATOM     23  O   UNL     1       0.558   9.650  23.970  0.00  0.00    +0.000 OA
ENDBRANCH  18  20
ENDBRANCH   6  18
BRANCH   1  24
ATOM     24  O   UNL     1      -0.101  10.669  18.732  0.00  0.00    +0.000 OA
BRANCH  24  25
ATOM     25  C   UNL     1      -0.943  10.389  17.599  0.00  0.00    +0.000 C 
BRANCH  25  31
ATOM     26  C   UNL     1      -6.341  12.635  17.138  0.00  0.00    +0.000 C 
ATOM     27  C   UNL     1      -5.017  11.965  17.337  0.00  0.00    +0.000 A 
ATOM     28  C   UNL     1      -4.269  12.190  18.488  0.00  0.00    +0.000 A 
ATOM     29  C   UNL     1      -2.987  11.631  18.661  0.00  0.00    +0.000 A 
ATOM     30  C   UNL     1      -2.334  11.886  19.984  0.00  0.00    +0.000 C 
ATOM     31  C   UNL     1      -2.403  10.862  17.629  0.00  0.00    +0.000 A 
ATOM     32  C   UNL     1      -3.225  10.531  16.511  0.00  0.00    +0.000 A 
ATOM     33  C   UNL     1      -2.798   9.601  15.401  0.00  0.00    +0.000 C 
ATOM     34  C   UNL     1      -4.503  11.106  16.373  0.00  0.00    +0.000 A 
ENDBRANCH  25  31
ENDBRANCH  24  25
ENDBRANCH   1  24
TORSDOF 8
ENDMDL
