MODEL 1
REMARK VINA RESULT:      -6.3      0.000      0.000
REMARK  Name = 
REMARK  10 active torsions:
REMARK  status: ('A' for Active; 'I' for Inactive)
REMARK    1  A    between atoms: C_1  and  O_2
REMARK    2  A    between atoms: O_2  and  C_3
REMARK    3  A    between atoms: C_7  and  O_8
REMARK    4  A    between atoms: O_8  and  C_9
REMARK    5  A    between atoms: C_10  and  O_11
REMARK    6  A    between atoms: O_11  and  C_12
REMARK    7  A    between atoms: C_16  and  O_17
REMARK    8  A    between atoms: O_17  and  C_18
REMARK    9  A    between atoms: C_23  and  N_24
REMARK   10  A    between atoms: C_25  and  C_27
REMARK                            x       y       z     vdW  Elec       q    Type
REMARK                         _______ _______ _______ _____ _____    ______ ____
ROOT
ATOM      1  C   UNL     1      -3.990  13.001  22.863  0.00  0.00    +0.000 A 
ATOM      2  C   UNL     1      -2.845  12.216  22.695  0.00  0.00    +0.000 A 
ATOM      3  C   UNL     1      -1.755  12.667  21.956  0.00  0.00    +0.000 A 
ATOM      4  C   UNL     1      -1.796  13.935  21.346  0.00  0.00    +0.000 A 
ATOM      5  C   UNL     1      -2.974  14.733  21.472  0.00  0.00    +0.000 A 
ATOM      6  C   UNL     1      -4.082  14.262  22.233  0.00  0.00    +0.000 A 
ATOM      7  C   UNL     1      -0.630  14.307  20.455  0.00  0.00    +0.000 A 
ATOM      8  C   UNL     1       0.038  15.401  20.856  0.00  0.00    +0.000 A 
ATOM      9  C   UNL     1       1.132  16.113  20.254  0.00  0.00    +0.000 A 
ATOM     10  C   UNL     1       2.001  15.807  19.283  0.00  0.00    +0.000 A 
ATOM     11  C   UNL     1       2.011  14.506  18.545  0.00  0.00    +0.000 A 
ATOM     12  O   UNL     1       2.983  14.147  17.877  0.00  0.00    +0.000 OA
ATOM     13  C   UNL     1       0.866  13.569  18.560  0.00  0.00    +0.000 A 
ATOM     14  C   UNL     1      -0.234  13.440  19.322  0.00  0.00    +0.000 A 
ATOM     15  C   UNL     1      -1.019  12.125  19.129  0.00  0.00    +0.000 C 
ATOM     16  C   UNL     1      -0.683  11.131  20.274  0.00  0.00    +0.000 C 
ATOM     17  C   UNL     1      -0.616  11.716  21.690  0.00  0.00    +0.000 C 
ENDROOT
BRANCH  15  18
ATOM     18  N   UNL     1      -2.436  12.406  18.935  0.00  0.00    +0.000 N 
ATOM     19  C   UNL     1      -3.316  11.520  18.354  0.00  0.00    +0.000 C 
ATOM     20  O   UNL     1      -2.992  10.437  17.879  0.00  0.00    +0.000 OA
ATOM     21  H   UNL     1      -2.816  13.232  19.378  0.00  0.00    +0.000 HD
BRANCH  19  22
ATOM     22  C   UNL     1      -4.753  11.930  18.377  0.00  0.00    +0.000 A 
ATOM     23  C   UNL     1      -5.464  12.149  17.196  0.00  0.00    +0.000 A 
ATOM     24  C   UNL     1      -6.801  12.547  17.251  0.00  0.00    +0.000 A 
ATOM     25  C   UNL     1      -7.428  12.719  18.485  0.00  0.00    +0.000 A 
ATOM     26  C   UNL     1      -6.723  12.488  19.665  0.00  0.00    +0.000 A 
ATOM     27  C   UNL     1      -5.383  12.091  19.614  0.00  0.00    +0.000 A 
ENDBRANCH  19  22
ENDBRANCH  15  18
BRANCH   1  29
ATOM     28  C   UNL     1      -4.851  12.311  24.956  0.00  0.00    +0.000 C 
ATOM     29  O   UNL     1      -5.058  12.493  23.558  0.00  0.00    +0.000 OA
ENDBRANCH   1  29
BRANCH   5  30
ATOM     30  O   UNL     1      -2.958  15.878  20.699  0.00  0.00    +0.000 OA
ATOM     31  C   UNL     1      -2.871  17.149  21.335  0.00  0.00    +0.000 C 
ENDBRANCH   5  30
BRANCH   6  32
ATOM     32  O   UNL     1      -5.188  15.075  22.266  0.00  0.00    +0.000 OA
ATOM     33  C   UNL     1      -5.523  15.795  23.444  0.00  0.00    +0.000 C 
ENDBRANCH   6  32
BRANCH  10  34
ATOM     34  O   UNL     1       2.898  16.835  18.963  0.00  0.00    +0.000 OA
ATOM     35  C   UNL     1       4.061  17.002  19.764  0.00  0.00    +0.000 C 
ENDBRANCH  10  34
TORSDOF 6
ENDMDL
MODEL 2
REMARK VINA RESULT:      -6.0      1.114      1.397
REMARK  Name = 
REMARK  10 active torsions:
REMARK  status: ('A' for Active; 'I' for Inactive)
REMARK    1  A    between atoms: C_1  and  O_2
REMARK    2  A    between atoms: O_2  and  C_3
REMARK    3  A    between atoms: C_7  and  O_8
REMARK    4  A    between atoms: O_8  and  C_9
REMARK    5  A    between atoms: C_10  and  O_11
REMARK    6  A    between atoms: O_11  and  C_12
REMARK    7  A    between atoms: C_16  and  O_17
REMARK    8  A    between atoms: O_17  and  C_18
REMARK    9  A    between atoms: C_23  and  N_24
REMARK   10  A    between atoms: C_25  and  C_27
REMARK                            x       y       z     vdW  Elec       q    Type
REMARK                         _______ _______ _______ _____ _____    ______ ____
ROOT
ATOM      1  C   UNL     1      -3.428  12.645  23.825  0.00  0.00    +0.000 A 
ATOM      2  C   UNL     1      -2.451  11.709  23.470  0.00  0.00    +0.000 A 
ATOM      3  C   UNL     1      -1.391  12.045  22.633  0.00  0.00    +0.000 A 
ATOM      4  C   UNL     1      -1.294  13.349  22.112  0.00  0.00    +0.000 A 
ATOM      5  C   UNL     1      -2.306  14.306  22.429  0.00  0.00    +0.000 A 
ATOM      6  C   UNL     1      -3.384  13.951  23.290  0.00  0.00    +0.000 A 
ATOM      7  C   UNL     1      -0.189  13.607  21.109  0.00  0.00    +0.000 A 
ATOM      8  C   UNL     1       0.688  14.550  21.493  0.00  0.00    +0.000 A 
ATOM      9  C   UNL     1       1.809  15.131  20.807  0.00  0.00    +0.000 A 
ATOM     10  C   UNL     1       2.504  14.774  19.719  0.00  0.00    +0.000 A 
ATOM     11  C   UNL     1       2.221  13.550  18.908  0.00  0.00    +0.000 A 
ATOM     12  O   UNL     1       3.043  13.101  18.105  0.00  0.00    +0.000 OA
ATOM     13  C   UNL     1       0.949  12.802  19.004  0.00  0.00    +0.000 A 
ATOM     14  C   UNL     1      -0.067  12.783  19.886  0.00  0.00    +0.000 A 
ATOM     15  C   UNL     1      -1.071  11.624  19.710  0.00  0.00    +0.000 C 
ATOM     16  C   UNL     1      -0.775  10.502  20.742  0.00  0.00    +0.000 C 
ATOM     17  C   UNL     1      -0.458  10.954  22.172  0.00  0.00    +0.000 C 
ENDROOT
BRANCH  15  18
ATOM     18  N   UNL     1      -2.437  12.134  19.707  0.00  0.00    +0.000 N 
ATOM     19  C   UNL     1      -3.396  11.740  18.802  0.00  0.00    +0.000 C 
ATOM     20  O   UNL     1      -3.188  10.977  17.866  0.00  0.00    +0.000 OA
ATOM     21  H   UNL     1      -2.730  12.695  20.497  0.00  0.00    +0.000 HD
BRANCH  19  22
ATOM     22  C   UNL     1      -4.773  12.263  19.053  0.00  0.00    +0.000 A 
ATOM     23  C   UNL     1      -5.151  12.738  20.311  0.00  0.00    +0.000 A 
ATOM     24  C   UNL     1      -6.451  13.205  20.517  0.00  0.00    +0.000 A 
ATOM     25  C   UNL     1      -7.368  13.205  19.467  0.00  0.00    +0.000 A 
ATOM     26  C   UNL     1      -6.988  12.743  18.208  0.00  0.00    +0.000 A 
ATOM     27  C   UNL     1      -5.688  12.273  17.997  0.00  0.00    +0.000 A 
ENDBRANCH  19  22
ENDBRANCH  15  18
BRANCH   1  29
ATOM     28  C   UNL     1      -5.776  12.468  24.059  0.00  0.00    +0.000 C 
ATOM     29  O   UNL     1      -4.481  12.253  24.613  0.00  0.00    +0.000 OA
ENDBRANCH   1  29
BRANCH   5  30
ATOM     30  O   UNL     1      -2.190  15.493  21.733  0.00  0.00    +0.000 OA
ATOM     31  C   UNL     1      -3.089  15.768  20.664  0.00  0.00    +0.000 C 
ENDBRANCH   5  30
BRANCH   6  32
ATOM     32  O   UNL     1      -4.333  14.919  23.507  0.00  0.00    +0.000 OA
ATOM     33  C   UNL     1      -4.178  15.862  24.559  0.00  0.00    +0.000 C 
ENDBRANCH   6  32
BRANCH  10  34
ATOM     34  O   UNL     1       3.514  15.674  19.356  0.00  0.00    +0.000 OA
ATOM     35  C   UNL     1       3.236  16.651  18.361  0.00  0.00    +0.000 C 
ENDBRANCH  10  34
TORSDOF 6
ENDMDL
MODEL 3
REMARK VINA RESULT:      -6.0      2.124      7.122
REMARK  Name = 
REMARK  10 active torsions:
REMARK  status: ('A' for Active; 'I' for Inactive)
REMARK    1  A    between atoms: C_1  and  O_2
REMARK    2  A    between atoms: O_2  and  C_3
REMARK    3  A    between atoms: C_7  and  O_8
REMARK    4  A    between atoms: O_8  and  C_9
REMARK    5  A    between atoms: C_10  and  O_11
REMARK    6  A    between atoms: O_11  and  C_12
REMARK    7  A    between atoms: C_16  and  O_17
REMARK    8  A    between atoms: O_17  and  C_18
REMARK    9  A    between atoms: C_23  and  N_24
REMARK   10  A    between atoms: C_25  and  C_27
REMARK                            x       y       z     vdW  Elec       q    Type
REMARK                         _______ _______ _______ _____ _____    ______ ____
ROOT
ATOM      1  C   UNL     1       0.098  11.063  21.245  0.00  0.00    +0.000 A 
ATOM      2  C   UNL     1      -0.785  11.501  22.237  0.00  0.00    +0.000 A 
ATOM      3  C   UNL     1      -2.013  12.074  21.919  0.00  0.00    +0.000 A 
ATOM      4  C   UNL     1      -2.383  12.235  20.571  0.00  0.00    +0.000 A 
ATOM      5  C   UNL     1      -1.477  11.832  19.543  0.00  0.00    +0.000 A 
ATOM      6  C   UNL     1      -0.224  11.245  19.882  0.00  0.00    +0.000 A 
ATOM      7  C   UNL     1      -3.674  12.979  20.297  0.00  0.00    +0.000 A 
ATOM      8  C   UNL     1      -4.593  12.256  19.636  0.00  0.00    +0.000 A 
ATOM      9  C   UNL     1      -5.889  12.614  19.127  0.00  0.00    +0.000 A 
ATOM     10  C   UNL     1      -6.707  13.649  19.351  0.00  0.00    +0.000 A 
ATOM     11  C   UNL     1      -6.403  14.771  20.292  0.00  0.00    +0.000 A 
ATOM     12  O   UNL     1      -7.282  15.538  20.691  0.00  0.00    +0.000 OA
ATOM     13  C   UNL     1      -5.041  15.040  20.803  0.00  0.00    +0.000 A 
ATOM     14  C   UNL     1      -3.893  14.340  20.836  0.00  0.00    +0.000 A 
ATOM     15  C   UNL     1      -2.783  14.936  21.727  0.00  0.00    +0.000 C 
ATOM     16  C   UNL     1      -2.731  14.186  23.085  0.00  0.00    +0.000 C 
ATOM     17  C   UNL     1      -2.850  12.658  23.028  0.00  0.00    +0.000 C 
ENDROOT
BRANCH  15  18
ATOM     18  N   UNL     1      -1.525  15.001  20.993  0.00  0.00    +0.000 N 
ATOM     19  C   UNL     1      -1.227  15.982  20.076  0.00  0.00    +0.000 C 
ATOM     20  O   UNL     1      -2.008  16.861  19.728  0.00  0.00    +0.000 OA
ATOM     21  H   UNL     1      -0.782  14.376  21.280  0.00  0.00    +0.000 HD
BRANCH  19  22
ATOM     22  C   UNL     1       0.168  15.961  19.538  0.00  0.00    +0.000 A 
ATOM     23  C   UNL     1       0.741  14.783  19.055  0.00  0.00    +0.000 A 
ATOM     24  C   UNL     1       2.052  14.793  18.576  0.00  0.00    +0.000 A 
ATOM     25  C   UNL     1       2.785  15.979  18.571  0.00  0.00    +0.000 A 
ATOM     26  C   UNL     1       2.209  17.158  19.041  0.00  0.00    +0.000 A 
ATOM     27  C   UNL     1       0.897  17.152  19.524  0.00  0.00    +0.000 A 
ENDBRANCH  19  22
ENDBRANCH  15  18
BRANCH   1  29
ATOM     28  C   UNL     1       1.288   9.256  22.201  0.00  0.00    +0.000 C 
ATOM     29  O   UNL     1       1.317  10.551  21.607  0.00  0.00    +0.000 OA
ENDBRANCH   1  29
BRANCH   5  30
ATOM     30  O   UNL     1      -1.880  12.189  18.271  0.00  0.00    +0.000 OA
ATOM     31  C   UNL     1      -2.299  11.177  17.361  0.00  0.00    +0.000 C 
ENDBRANCH   5  30
BRANCH   6  32
ATOM     32  O   UNL     1       0.602  10.927  18.833  0.00  0.00    +0.000 OA
ATOM     33  C   UNL     1       0.764   9.576  18.422  0.00  0.00    +0.000 C 
ENDBRANCH   6  32
BRANCH  10  34
ATOM     34  O   UNL     1      -7.883  13.633  18.589  0.00  0.00    +0.000 OA
ATOM     35  C   UNL     1      -7.911  14.348  17.359  0.00  0.00    +0.000 C 
ENDBRANCH  10  34
TORSDOF 6
ENDMDL
MODEL 4
REMARK VINA RESULT:      -5.9      3.102      4.877
REMARK  Name = 
REMARK  10 active torsions:
REMARK  status: ('A' for Active; 'I' for Inactive)
REMARK    1  A    between atoms: C_1  and  O_2
REMARK    2  A    between atoms: O_2  and  C_3
REMARK    3  A    between atoms: C_7  and  O_8
REMARK    4  A    between atoms: O_8  and  C_9
REMARK    5  A    between atoms: C_10  and  O_11
REMARK    6  A    between atoms: O_11  and  C_12
REMARK    7  A    between atoms: C_16  and  O_17
REMARK    8  A    between atoms: O_17  and  C_18
REMARK    9  A    between atoms: C_23  and  N_24
REMARK   10  A    between atoms: C_25  and  C_27
REMARK                            x       y       z     vdW  Elec       q    Type
REMARK                         _______ _______ _______ _____ _____    ______ ____
ROOT
ATOM      1  C   UNL     1      -6.606  14.029  22.334  0.00  0.00    +0.000 A 
ATOM      2  C   UNL     1      -6.909  12.844  21.658  0.00  0.00    +0.000 A 
ATOM      3  C   UNL     1      -5.994  12.239  20.801  0.00  0.00    +0.000 A 
ATOM      4  C   UNL     1      -4.735  12.831  20.588  0.00  0.00    +0.000 A 
ATOM      5  C   UNL     1      -4.423  14.065  21.237  0.00  0.00    +0.000 A 
ATOM      6  C   UNL     1      -5.368  14.672  22.115  0.00  0.00    +0.000 A 
ATOM      7  C   UNL     1      -3.841  12.189  19.548  0.00  0.00    +0.000 A 
ATOM      8  C   UNL     1      -2.668  11.749  20.031  0.00  0.00    +0.000 A 
ATOM      9  C   UNL     1      -1.533  11.165  19.370  0.00  0.00    +0.000 A 
ATOM     10  C   UNL     1      -1.355  10.633  18.154  0.00  0.00    +0.000 A 
ATOM     11  C   UNL     1      -2.430  10.522  17.121  0.00  0.00    +0.000 A 
ATOM     12  O   UNL     1      -2.316   9.778  16.144  0.00  0.00    +0.000 OA
ATOM     13  C   UNL     1      -3.692  11.291  17.193  0.00  0.00    +0.000 A 
ATOM     14  C   UNL     1      -4.317  11.984  18.161  0.00  0.00    +0.000 A 
ATOM     15  C   UNL     1      -5.770  12.398  17.843  0.00  0.00    +0.000 C 
ATOM     16  C   UNL     1      -6.764  11.432  18.544  0.00  0.00    +0.000 C 
ATOM     17  C   UNL     1      -6.437  11.046  19.991  0.00  0.00    +0.000 C 
ENDROOT
BRANCH  15  18
ATOM     18  N   UNL     1      -5.965  13.815  18.122  0.00  0.00    +0.000 N 
ATOM     19  C   UNL     1      -6.837  14.617  17.420  0.00  0.00    +0.000 C 
ATOM     20  O   UNL     1      -7.485  14.245  16.449  0.00  0.00    +0.000 OA
ATOM     21  H   UNL     1      -5.546  14.190  18.963  0.00  0.00    +0.000 HD
BRANCH  19  22
ATOM     22  C   UNL     1      -7.005  16.004  17.950  0.00  0.00    +0.000 A 
ATOM     23  C   UNL     1      -7.064  16.255  19.322  0.00  0.00    +0.000 A 
ATOM     24  C   UNL     1      -7.239  17.560  19.785  0.00  0.00    +0.000 A 
ATOM     25  C   UNL     1      -7.346  18.614  18.878  0.00  0.00    +0.000 A 
ATOM     26  C   UNL     1      -7.274  18.367  17.508  0.00  0.00    +0.000 A 
ATOM     27  C   UNL     1      -7.101  17.060  17.040  0.00  0.00    +0.000 A 
ENDBRANCH  19  22
ENDBRANCH  15  18
BRANCH   1  29
ATOM     28  C   UNL     1      -7.822  13.948  24.362  0.00  0.00    +0.000 C 
ATOM     29  O   UNL     1      -7.559  14.613  23.129  0.00  0.00    +0.000 OA
ENDBRANCH   1  29
BRANCH   5  30
ATOM     30  O   UNL     1      -3.231  14.626  20.825  0.00  0.00    +0.000 OA
ATOM     31  C   UNL     1      -3.224  15.953  20.310  0.00  0.00    +0.000 C 
ENDBRANCH   5  30
BRANCH   6  32
ATOM     32  O   UNL     1      -5.002  15.876  22.662  0.00  0.00    +0.000 OA
ATOM     33  C   UNL     1      -4.363  15.931  23.930  0.00  0.00    +0.000 C 
ENDBRANCH   6  32
BRANCH  10  34
ATOM     34  O   UNL     1      -0.043  10.217  17.891  0.00  0.00    +0.000 OA
ATOM     35  C   UNL     1       0.874  10.120  18.974  0.00  0.00    +0.000 C 
ENDBRANCH  10  34
TORSDOF 6
ENDMDL
MODEL 5
REMARK VINA RESULT:      -5.8      2.385      7.279
REMARK  Name = 
REMARK  10 active torsions:
REMARK  status: ('A' for Active; 'I' for Inactive)
REMARK    1  A    between atoms: C_1  and  O_2
REMARK    2  A    between atoms: O_2  and  C_3
REMARK    3  A    between atoms: C_7  and  O_8
REMARK    4  A    between atoms: O_8  and  C_9
REMARK    5  A    between atoms: C_10  and  O_11
REMARK    6  A    between atoms: O_11  and  C_12
REMARK    7  A    between atoms: C_16  and  O_17
REMARK    8  A    between atoms: O_17  and  C_18
REMARK    9  A    between atoms: C_23  and  N_24
REMARK   10  A    between atoms: C_25  and  C_27
REMARK                            x       y       z     vdW  Elec       q    Type
REMARK                         _______ _______ _______ _____ _____    ______ ____
ROOT
ATOM      1  C   UNL     1       0.208  10.698  21.642  0.00  0.00    +0.000 A 
ATOM      2  C   UNL     1      -0.724  11.038  22.628  0.00  0.00    +0.000 A 
ATOM      3  C   UNL     1      -1.871  11.766  22.327  0.00  0.00    +0.000 A 
ATOM      4  C   UNL     1      -2.106  12.190  21.006  0.00  0.00    +0.000 A 
ATOM      5  C   UNL     1      -1.144  11.890  19.993  0.00  0.00    +0.000 A 
ATOM      6  C   UNL     1       0.024  11.140  20.314  0.00  0.00    +0.000 A 
ATOM      7  C   UNL     1      -3.306  13.086  20.774  0.00  0.00    +0.000 A 
ATOM      8  C   UNL     1      -4.215  12.574  19.928  0.00  0.00    +0.000 A 
ATOM      9  C   UNL     1      -5.428  13.130  19.396  0.00  0.00    +0.000 A 
ATOM     10  C   UNL     1      -6.182  14.182  19.740  0.00  0.00    +0.000 A 
ATOM     11  C   UNL     1      -5.878  15.093  20.887  0.00  0.00    +0.000 A 
ATOM     12  O   UNL     1      -6.727  15.857  21.350  0.00  0.00    +0.000 OA
ATOM     13  C   UNL     1      -4.550  15.145  21.537  0.00  0.00    +0.000 A 
ATOM     14  C   UNL     1      -3.467  14.348  21.530  0.00  0.00    +0.000 A 
ATOM     15  C   UNL     1      -2.398  14.678  22.594  0.00  0.00    +0.000 C 
ATOM     16  C   UNL     1      -2.526  13.703  23.796  0.00  0.00    +0.000 C 
ATOM     17  C   UNL     1      -2.757  12.225  23.457  0.00  0.00    +0.000 C 
ENDROOT
BRANCH  15  18
ATOM     18  N   UNL     1      -1.079  14.752  21.979  0.00  0.00    +0.000 N 
ATOM     19  C   UNL     1       0.021  15.302  22.599  0.00  0.00    +0.000 C 
ATOM     20  O   UNL     1      -0.007  15.847  23.696  0.00  0.00    +0.000 OA
ATOM     21  H   UNL     1      -0.934  14.245  21.116  0.00  0.00    +0.000 HD
BRANCH  19  22
ATOM     22  C   UNL     1       1.315  15.153  21.867  0.00  0.00    +0.000 A 
ATOM     23  C   UNL     1       1.655  13.957  21.231  0.00  0.00    +0.000 A 
ATOM     24  C   UNL     1       2.879  13.844  20.570  0.00  0.00    +0.000 A 
ATOM     25  C   UNL     1       3.758  14.926  20.539  0.00  0.00    +0.000 A 
ATOM     26  C   UNL     1       3.415  16.124  21.162  0.00  0.00    +0.000 A 
ATOM     27  C   UNL     1       2.190  16.241  21.827  0.00  0.00    +0.000 A 
ENDBRANCH  19  22
ENDBRANCH  15  18
BRANCH   1  29
ATOM     28  C   UNL     1       1.286   8.604  21.869  0.00  0.00    +0.000 C 
ATOM     29  O   UNL     1       1.347  10.022  21.997  0.00  0.00    +0.000 OA
ENDBRANCH   1  29
BRANCH   5  30
ATOM     30  O   UNL     1      -1.404  12.495  18.779  0.00  0.00    +0.000 OA
ATOM     31  C   UNL     1      -0.562  13.551  18.330  0.00  0.00    +0.000 C 
ENDBRANCH   5  30
BRANCH   6  32
ATOM     32  O   UNL     1       0.914  10.934  19.289  0.00  0.00    +0.000 OA
ATOM     33  C   UNL     1       0.765   9.825  18.413  0.00  0.00    +0.000 C 
ENDBRANCH   6  32
BRANCH  10  34
ATOM     34  O   UNL     1      -7.282  14.405  18.902  0.00  0.00    +0.000 OA
ATOM     35  C   UNL     1      -7.556  13.468  17.868  0.00  0.00    +0.000 C 
ENDBRANCH  10  34
TORSDOF 6
ENDMDL
MODEL 6
REMARK VINA RESULT:      -5.8      2.176      7.065
REMARK  Name = 
REMARK  10 active torsions:
REMARK  status: ('A' for Active; 'I' for Inactive)
REMARK    1  A    between atoms: C_1  and  O_2
REMARK    2  A    between atoms: O_2  and  C_3
REMARK    3  A    between atoms: C_7  and  O_8
REMARK    4  A    between atoms: O_8  and  C_9
REMARK    5  A    between atoms: C_10  and  O_11
REMARK    6  A    between atoms: O_11  and  C_12
REMARK    7  A    between atoms: C_16  and  O_17
REMARK    8  A    between atoms: O_17  and  C_18
REMARK    9  A    between atoms: C_23  and  N_24
REMARK   10  A    between atoms: C_25  and  C_27
REMARK                            x       y       z     vdW  Elec       q    Type
REMARK                         _______ _______ _______ _____ _____    ______ ____
ROOT
ATOM      1  C   UNL     1       0.231  10.243  20.828  0.00  0.00    +0.000 A 
ATOM      2  C   UNL     1      -0.373  10.814  21.953  0.00  0.00    +0.000 A 
ATOM      3  C   UNL     1      -1.470  11.662  21.840  0.00  0.00    +0.000 A 
ATOM      4  C   UNL     1      -1.988  11.974  20.569  0.00  0.00    +0.000 A 
ATOM      5  C   UNL     1      -1.358  11.435  19.406  0.00  0.00    +0.000 A 
ATOM      6  C   UNL     1      -0.237  10.565  19.535  0.00  0.00    +0.000 A 
ATOM      7  C   UNL     1      -3.099  13.002  20.513  0.00  0.00    +0.000 A 
ATOM      8  C   UNL     1      -4.246  12.538  19.990  0.00  0.00    +0.000 A 
ATOM      9  C   UNL     1      -5.486  13.203  19.695  0.00  0.00    +0.000 A 
ATOM     10  C   UNL     1      -6.004  14.381  20.062  0.00  0.00    +0.000 A 
ATOM     11  C   UNL     1      -5.317  15.355  20.966  0.00  0.00    +0.000 A 
ATOM     12  O   UNL     1      -5.928  16.277  21.510  0.00  0.00    +0.000 OA
ATOM     13  C   UNL     1      -3.869  15.286  21.263  0.00  0.00    +0.000 A 
ATOM     14  C   UNL     1      -2.920  14.346  21.105  0.00  0.00    +0.000 A 
ATOM     15  C   UNL     1      -1.584  14.631  21.824  0.00  0.00    +0.000 C 
ATOM     16  C   UNL     1      -1.506  13.816  23.144  0.00  0.00    +0.000 C 
ATOM     17  C   UNL     1      -1.979  12.358  23.077  0.00  0.00    +0.000 C 
ENDROOT
BRANCH  15  18
ATOM     18  N   UNL     1      -0.466  14.452  20.906  0.00  0.00    +0.000 N 
ATOM     19  C   UNL     1      -0.103  15.381  19.957  0.00  0.00    +0.000 C 
ATOM     20  O   UNL     1      -0.716  16.419  19.739  0.00  0.00    +0.000 OA
ATOM     21  H   UNL     1       0.157  13.672  21.072  0.00  0.00    +0.000 HD
BRANCH  19  22
ATOM     22  C   UNL     1       1.157  15.081  19.211  0.00  0.00    +0.000 A 
ATOM     23  C   UNL     1       1.669  13.784  19.142  0.00  0.00    +0.000 A 
ATOM     24  C   UNL     1       2.857  13.540  18.451  0.00  0.00    +0.000 A 
ATOM     25  C   UNL     1       3.528  14.589  17.825  0.00  0.00    +0.000 A 
ATOM     26  C   UNL     1       3.012  15.882  17.882  0.00  0.00    +0.000 A 
ATOM     27  C   UNL     1       1.823  16.132  18.575  0.00  0.00    +0.000 A 
ENDBRANCH  19  22
ENDBRANCH  15  18
BRANCH   1  29
ATOM     28  C   UNL     1       1.083   8.068  21.200  0.00  0.00    +0.000 C 
ATOM     29  O   UNL     1       1.340   9.453  20.987  0.00  0.00    +0.000 OA
ENDBRANCH   1  29
BRANCH   5  30
ATOM     30  O   UNL     1      -1.852  11.940  18.219  0.00  0.00    +0.000 OA
ATOM     31  C   UNL     1      -2.522  11.070  17.314  0.00  0.00    +0.000 C 
ENDBRANCH   5  30
BRANCH   6  32
ATOM     32  O   UNL     1       0.331  10.127  18.365  0.00  0.00    +0.000 OA
ATOM     33  C   UNL     1       1.739  10.181  18.179  0.00  0.00    +0.000 C 
ENDBRANCH   6  32
BRANCH  10  34
ATOM     34  O   UNL     1      -7.250  14.670  19.491  0.00  0.00    +0.000 OA
ATOM     35  C   UNL     1      -7.291  15.284  18.209  0.00  0.00    +0.000 C 
ENDBRANCH  10  34
TORSDOF 6
ENDMDL
MODEL 7
REMARK VINA RESULT:      -5.8      1.197      1.284
REMARK  Name = 
REMARK  10 active torsions:
REMARK  status: ('A' for Active; 'I' for Inactive)
REMARK    1  A    between atoms: C_1  and  O_2
REMARK    2  A    between atoms: O_2  and  C_3
REMARK    3  A    between atoms: C_7  and  O_8
REMARK    4  A    between atoms: O_8  and  C_9
REMARK    5  A    between atoms: C_10  and  O_11
REMARK    6  A    between atoms: O_11  and  C_12
REMARK    7  A    between atoms: C_16  and  O_17
REMARK    8  A    between atoms: O_17  and  C_18
REMARK    9  A    between atoms: C_23  and  N_24
REMARK   10  A    between atoms: C_25  and  C_27
REMARK                            x       y       z     vdW  Elec       q    Type
REMARK                         _______ _______ _______ _____ _____    ______ ____
ROOT
ATOM      1  C   UNL     1      -4.585  13.120  23.870  0.00  0.00    +0.000 A 
ATOM      2  C   UNL     1      -3.464  12.289  23.794  0.00  0.00    +0.000 A 
ATOM      3  C   UNL     1      -2.302  12.690  23.140  0.00  0.00    +0.000 A 
ATOM      4  C   UNL     1      -2.245  13.954  22.523  0.00  0.00    +0.000 A 
ATOM      5  C   UNL     1      -3.396  14.800  22.553  0.00  0.00    +0.000 A 
ATOM      6  C   UNL     1      -4.578  14.379  23.229  0.00  0.00    +0.000 A 
ATOM      7  C   UNL     1      -0.999  14.272  21.723  0.00  0.00    +0.000 A 
ATOM      8  C   UNL     1      -0.320  15.341  22.170  0.00  0.00    +0.000 A 
ATOM      9  C   UNL     1       0.845  16.004  21.652  0.00  0.00    +0.000 A 
ATOM     10  C   UNL     1       1.773  15.656  20.752  0.00  0.00    +0.000 A 
ATOM     11  C   UNL     1       1.788  14.350  20.024  0.00  0.00    +0.000 A 
ATOM     12  O   UNL     1       2.794  13.947  19.435  0.00  0.00    +0.000 OA
ATOM     13  C   UNL     1       0.608  13.460  19.954  0.00  0.00    +0.000 A 
ATOM     14  C   UNL     1      -0.552  13.381  20.629  0.00  0.00    +0.000 A 
ATOM     15  C   UNL     1      -1.373  12.097  20.382  0.00  0.00    +0.000 C 
ATOM     16  C   UNL     1      -1.166  11.099  21.554  0.00  0.00    +0.000 C 
ATOM     17  C   UNL     1      -1.185  11.692  22.968  0.00  0.00    +0.000 C 
ENDROOT
BRANCH  15  18
ATOM     18  N   UNL     1      -2.758  12.432  20.076  0.00  0.00    +0.000 N 
ATOM     19  C   UNL     1      -3.446  11.922  18.999  0.00  0.00    +0.000 C 
ATOM     20  O   UNL     1      -2.951  11.191  18.148  0.00  0.00    +0.000 OA
ATOM     21  H   UNL     1      -3.279  12.952  20.771  0.00  0.00    +0.000 HD
BRANCH  19  22
ATOM     22  C   UNL     1      -4.899  12.270  18.938  0.00  0.00    +0.000 A 
ATOM     23  C   UNL     1      -5.640  12.087  17.769  0.00  0.00    +0.000 A 
ATOM     24  C   UNL     1      -6.991  12.437  17.740  0.00  0.00    +0.000 A 
ATOM     25  C   UNL     1      -7.601  12.961  18.879  0.00  0.00    +0.000 A 
ATOM     26  C   UNL     1      -6.866  13.130  20.051  0.00  0.00    +0.000 A 
ATOM     27  C   UNL     1      -5.511  12.783  20.084  0.00  0.00    +0.000 A 
ENDBRANCH  19  22
ENDBRANCH  15  18
BRANCH   1  29
ATOM     28  C   UNL     1      -6.805  12.343  23.610  0.00  0.00    +0.000 C 
ATOM     29  O   UNL     1      -5.724  12.661  24.482  0.00  0.00    +0.000 OA
ENDBRANCH   1  29
BRANCH   5  30
ATOM     30  O   UNL     1      -3.273  15.937  21.779  0.00  0.00    +0.000 OA
ATOM     31  C   UNL     1      -3.978  16.022  20.545  0.00  0.00    +0.000 C 
ENDBRANCH   5  30
BRANCH   6  32
ATOM     32  O   UNL     1      -5.649  15.235  23.171  0.00  0.00    +0.000 OA
ATOM     33  C   UNL     1      -5.822  16.245  24.156  0.00  0.00    +0.000 C 
ENDBRANCH   6  32
BRANCH  10  34
ATOM     34  O   UNL     1       2.733  16.645  20.498  0.00  0.00    +0.000 OA
ATOM     35  C   UNL     1       2.296  17.973  20.239  0.00  0.00    +0.000 C 
ENDBRANCH  10  34
TORSDOF 6
ENDMDL
MODEL 8
REMARK VINA RESULT:      -5.7      1.803      2.243
REMARK  Name = 
REMARK  10 active torsions:
REMARK  status: ('A' for Active; 'I' for Inactive)
REMARK    1  A    between atoms: C_1  and  O_2
REMARK    2  A    between atoms: O_2  and  C_3
REMARK    3  A    between atoms: C_7  and  O_8
REMARK    4  A    between atoms: O_8  and  C_9
REMARK    5  A    between atoms: C_10  and  O_11
REMARK    6  A    between atoms: O_11  and  C_12
REMARK    7  A    between atoms: C_16  and  O_17
REMARK    8  A    between atoms: O_17  and  C_18
REMARK    9  A    between atoms: C_23  and  N_24
REMARK   10  A    between atoms: C_25  and  C_27
REMARK                            x       y       z     vdW  Elec       q    Type
REMARK                         _______ _______ _______ _____ _____    ______ ____
ROOT
ATOM      1  C   UNL     1      -4.468  12.973  22.118  0.00  0.00    +0.000 A 
ATOM      2  C   UNL     1      -3.405  12.302  22.729  0.00  0.00    +0.000 A 
ATOM      3  C   UNL     1      -2.091  12.741  22.594  0.00  0.00    +0.000 A 
ATOM      4  C   UNL     1      -1.809  13.878  21.814  0.00  0.00    +0.000 A 
ATOM      5  C   UNL     1      -2.876  14.552  21.147  0.00  0.00    +0.000 A 
ATOM      6  C   UNL     1      -4.217  14.095  21.296  0.00  0.00    +0.000 A 
ATOM      7  C   UNL     1      -0.348  14.222  21.607  0.00  0.00    +0.000 A 
ATOM      8  C   UNL     1      -0.001  15.434  22.071  0.00  0.00    +0.000 A 
ATOM      9  C   UNL     1       1.242  16.152  21.999  0.00  0.00    +0.000 A 
ATOM     10  C   UNL     1       2.496  15.787  21.705  0.00  0.00    +0.000 A 
ATOM     11  C   UNL     1       2.903  14.391  21.356  0.00  0.00    +0.000 A 
ATOM     12  O   UNL     1       4.083  14.035  21.379  0.00  0.00    +0.000 OA
ATOM     13  C   UNL     1       1.930  13.349  20.958  0.00  0.00    +0.000 A 
ATOM     14  C   UNL     1       0.593  13.229  21.045  0.00  0.00    +0.000 A 
ATOM     15  C   UNL     1       0.037  11.822  20.737  0.00  0.00    +0.000 C 
ATOM     16  C   UNL     1      -0.281  11.074  22.060  0.00  0.00    +0.000 C 
ATOM     17  C   UNL     1      -0.981  11.889  23.155  0.00  0.00    +0.000 C 
ENDROOT
BRANCH  15  18
ATOM     18  N   UNL     1      -1.061  11.909  19.782  0.00  0.00    +0.000 N 
ATOM     19  C   UNL     1      -1.254  11.010  18.758  0.00  0.00    +0.000 C 
ATOM     20  O   UNL     1      -0.491  10.086  18.499  0.00  0.00    +0.000 OA
ATOM     21  H   UNL     1      -1.794  12.580  19.971  0.00  0.00    +0.000 HD
BRANCH  19  22
ATOM     22  C   UNL     1      -2.516  11.183  17.977  0.00  0.00    +0.000 A 
ATOM     23  C   UNL     1      -3.674  11.688  18.571  0.00  0.00    +0.000 A 
ATOM     24  C   UNL     1      -4.842  11.823  17.818  0.00  0.00    +0.000 A 
ATOM     25  C   UNL     1      -4.849  11.461  16.472  0.00  0.00    +0.000 A 
ATOM     26  C   UNL     1      -3.691  10.970  15.873  0.00  0.00    +0.000 A 
ATOM     27  C   UNL     1      -2.519  10.831  16.625  0.00  0.00    +0.000 A 
ENDBRANCH  19  22
ENDBRANCH  15  18
BRANCH   1  29
ATOM     28  C   UNL     1      -6.424  12.822  23.440  0.00  0.00    +0.000 C 
ATOM     29  O   UNL     1      -5.740  12.474  22.240  0.00  0.00    +0.000 OA
ENDBRANCH   1  29
BRANCH   5  30
ATOM     30  O   UNL     1      -2.457  15.548  20.287  0.00  0.00    +0.000 OA
ATOM     31  C   UNL     1      -2.684  16.910  20.631  0.00  0.00    +0.000 C 
ENDBRANCH   5  30
BRANCH   6  32
ATOM     32  O   UNL     1      -5.175  14.775  20.586  0.00  0.00    +0.000 OA
ATOM     33  C   UNL     1      -5.991  15.750  21.222  0.00  0.00    +0.000 C 
ENDBRANCH   6  32
BRANCH  10  34
ATOM     34  O   UNL     1       3.420  16.840  21.702  0.00  0.00    +0.000 OA
ATOM     35  C   UNL     1       3.222  17.922  20.801  0.00  0.00    +0.000 C 
ENDBRANCH  10  34
TORSDOF 6
ENDMDL
MODEL 9
REMARK VINA RESULT:      -5.7      2.250      7.124
REMARK  Name = 
REMARK  10 active torsions:
REMARK  status: ('A' for Active; 'I' for Inactive)
REMARK    1  A    between atoms: C_1  and  O_2
REMARK    2  A    between atoms: O_2  and  C_3
REMARK    3  A    between atoms: C_7  and  O_8
REMARK    4  A    between atoms: O_8  and  C_9
REMARK    5  A    between atoms: C_10  and  O_11
REMARK    6  A    between atoms: O_11  and  C_12
REMARK    7  A    between atoms: C_16  and  O_17
REMARK    8  A    between atoms: O_17  and  C_18
REMARK    9  A    between atoms: C_23  and  N_24
REMARK   10  A    between atoms: C_25  and  C_27
REMARK                            x       y       z     vdW  Elec       q    Type
REMARK                         _______ _______ _______ _____ _____    ______ ____
ROOT
ATOM      1  C   UNL     1       0.305  10.647  21.639  0.00  0.00    +0.000 A 
ATOM      2  C   UNL     1      -0.660  11.023  22.577  0.00  0.00    +0.000 A 
ATOM      3  C   UNL     1      -1.808  11.717  22.204  0.00  0.00    +0.000 A 
ATOM      4  C   UNL     1      -2.008  12.068  20.856  0.00  0.00    +0.000 A 
ATOM      5  C   UNL     1      -1.013  11.729  19.889  0.00  0.00    +0.000 A 
ATOM      6  C   UNL     1       0.156  11.016  20.283  0.00  0.00    +0.000 A 
ATOM      7  C   UNL     1      -3.213  12.931  20.542  0.00  0.00    +0.000 A 
ATOM      8  C   UNL     1      -4.089  12.361  19.698  0.00  0.00    +0.000 A 
ATOM      9  C   UNL     1      -5.293  12.871  19.102  0.00  0.00    +0.000 A 
ATOM     10  C   UNL     1      -6.071  13.927  19.367  0.00  0.00    +0.000 A 
ATOM     11  C   UNL     1      -5.815  14.901  20.473  0.00  0.00    +0.000 A 
ATOM     12  O   UNL     1      -6.689  15.676  20.869  0.00  0.00    +0.000 OA
ATOM     13  C   UNL     1      -4.509  15.008  21.158  0.00  0.00    +0.000 A 
ATOM     14  C   UNL     1      -3.415  14.228  21.225  0.00  0.00    +0.000 A 
ATOM     15  C   UNL     1      -2.384  14.630  22.301  0.00  0.00    +0.000 C 
ATOM     16  C   UNL     1      -2.534  13.718  23.549  0.00  0.00    +0.000 C 
ATOM     17  C   UNL     1      -2.734  12.221  23.282  0.00  0.00    +0.000 C 
ENDROOT
BRANCH  15  18
ATOM     18  N   UNL     1      -1.047  14.692  21.723  0.00  0.00    +0.000 N 
ATOM     19  C   UNL     1      -0.539  15.808  21.095  0.00  0.00    +0.000 C 
ATOM     20  O   UNL     1      -1.175  16.836  20.896  0.00  0.00    +0.000 OA
ATOM     21  H   UNL     1      -0.414  13.928  21.921  0.00  0.00    +0.000 HD
BRANCH  19  22
ATOM     22  C   UNL     1       0.900  15.725  20.699  0.00  0.00    +0.000 A 
ATOM     23  C   UNL     1       1.521  16.764  20.004  0.00  0.00    +0.000 A 
ATOM     24  C   UNL     1       2.863  16.650  19.634  0.00  0.00    +0.000 A 
ATOM     25  C   UNL     1       3.583  15.503  19.965  0.00  0.00    +0.000 A 
ATOM     26  C   UNL     1       2.967  14.471  20.672  0.00  0.00    +0.000 A 
ATOM     27  C   UNL     1       1.623  14.580  21.043  0.00  0.00    +0.000 A 
ENDBRANCH  19  22
ENDBRANCH  15  18
BRANCH   1  29
ATOM     28  C   UNL     1       1.428   8.588  21.949  0.00  0.00    +0.000 C 
ATOM     29  O   UNL     1       1.443  10.008  22.062  0.00  0.00    +0.000 OA
ENDBRANCH   1  29
BRANCH   5  30
ATOM     30  O   UNL     1      -1.244  12.266  18.637  0.00  0.00    +0.000 OA
ATOM     31  C   UNL     1      -0.472  13.379  18.200  0.00  0.00    +0.000 C 
ENDBRANCH   5  30
BRANCH   6  32
ATOM     32  O   UNL     1       1.079  10.770  19.298  0.00  0.00    +0.000 OA
ATOM     33  C   UNL     1       0.956   9.630  18.459  0.00  0.00    +0.000 C 
ENDBRANCH   6  32
BRANCH  10  34
ATOM     34  O   UNL     1      -7.149  14.089  18.486  0.00  0.00    +0.000 OA
ATOM     35  C   UNL     1      -6.919  13.943  17.090  0.00  0.00    +0.000 C 
ENDBRANCH  10  34
TORSDOF 6
ENDMDL
