MODEL 1
REMARK VINA RESULT:      -5.6      0.000      0.000
REMARK  Name = 
REMARK  6 active torsions:
REMARK  status: ('A' for Active; 'I' for Inactive)
REMARK    1  A    between atoms: C_1  and  C_2
REMARK    2  A    between atoms: C_2  and  C_3
REMARK    3  A    between atoms: C_3  and  C_4
REMARK    4  A    between atoms: C_4  and  N_5
REMARK    5  A    between atoms: N_5  and  C_6
REMARK    6  A    between atoms: C_6  and  C_7
REMARK                            x       y       z     vdW  Elec       q    Type
REMARK                         _______ _______ _______ _____ _____    ______ ____
ROOT
ATOM      1  C   UNL     1       5.424   5.147  19.006  0.00  0.00    +0.000 C 
ENDROOT
BRANCH   1   2
ATOM      2  C   UNL     1       4.029   4.624  18.785  0.00  0.00    +0.000 A 
ATOM      3  C   UNL     1       3.704   3.923  17.611  0.00  0.00    +0.000 A 
ATOM      4  C   UNL     1       2.405   3.446  17.412  0.00  0.00    +0.000 A 
ATOM      5  C   UNL     1       1.423   3.662  18.383  0.00  0.00    +0.000 A 
ATOM      6  C   UNL     1       1.737   4.355  19.554  0.00  0.00    +0.000 A 
ATOM      7  F   UNL     1       0.784   4.563  20.496  0.00  0.00    +0.000 F 
ATOM      8  C   UNL     1       3.036   4.835  19.757  0.00  0.00    +0.000 A 
ENDBRANCH   1   2
BRANCH   1   9
ATOM      9  N   UNL     1       6.402   4.162  18.533  0.00  0.00    +0.000 NA
ATOM     10  H   UNL     1       6.755   3.619  19.355  0.00  0.00    +0.000 HD
BRANCH   9  11
ATOM     11  C   UNL     1       7.539   4.824  17.881  0.00  0.00    +0.000 C 
BRANCH  11  12
ATOM     12  C   UNL     1       7.084   5.544  16.605  0.00  0.00    +0.000 C 
BRANCH  12  14
ATOM     13  C   UNL     1       5.620   4.843  14.672  0.00  0.00    +0.000 C 
ATOM     14  C   UNL     1       6.913   4.567  15.433  0.00  0.00    +0.000 C 
ENDBRANCH  12  14
ENDBRANCH  11  12
ENDBRANCH   9  11
ENDBRANCH   1   9
TORSDOF 5
ENDMDL
MODEL 2
REMARK VINA RESULT:      -5.5      3.019      5.602
REMARK  Name = 
REMARK  6 active torsions:
REMARK  status: ('A' for Active; 'I' for Inactive)
REMARK    1  A    between atoms: C_1  and  C_2
REMARK    2  A    between atoms: C_2  and  C_3
REMARK    3  A    between atoms: C_3  and  C_4
REMARK    4  A    between atoms: C_4  and  N_5
REMARK    5  A    between atoms: N_5  and  C_6
REMARK    6  A    between atoms: C_6  and  C_7
REMARK                            x       y       z     vdW  Elec       q    Type
REMARK                         _______ _______ _______ _____ _____    ______ ____
ROOT
ATOM      1  C   UNL     1       2.908   3.018  17.441  0.00  0.00    +0.000 C 
ENDROOT
BRANCH   1   2
ATOM      2  C   UNL     1       3.700   4.263  17.140  0.00  0.00    +0.000 A 
ATOM      3  C   UNL     1       3.360   5.490  17.734  0.00  0.00    +0.000 A 
ATOM      4  C   UNL     1       4.097   6.642  17.444  0.00  0.00    +0.000 A 
ATOM      5  C   UNL     1       5.179   6.577  16.562  0.00  0.00    +0.000 A 
ATOM      6  C   UNL     1       5.526   5.361  15.967  0.00  0.00    +0.000 A 
ATOM      7  F   UNL     1       6.577   5.300  15.112  0.00  0.00    +0.000 F 
ATOM      8  C   UNL     1       4.790   4.206  16.254  0.00  0.00    +0.000 A 
ENDBRANCH   1   2
BRANCH   1   9
ATOM      9  N   UNL     1       1.529   3.379  17.782  0.00  0.00    +0.000 NA
ATOM     10  H   UNL     1       1.537   4.302  18.278  0.00  0.00    +0.000 HD
BRANCH   9  11
ATOM     11  C   UNL     1       0.927   2.375  18.667  0.00  0.00    +0.000 C 
BRANCH  11  12
ATOM     12  C   UNL     1       1.212   2.710  20.136  0.00  0.00    +0.000 C 
BRANCH  12  14
ATOM     13  C   UNL     1       2.230   4.806  21.105  0.00  0.00    +0.000 C 
ATOM     14  C   UNL     1       1.004   4.202  20.429  0.00  0.00    +0.000 C 
ENDBRANCH  12  14
ENDBRANCH  11  12
ENDBRANCH   9  11
ENDBRANCH   1   9
TORSDOF 5
ENDMDL
MODEL 3
REMARK VINA RESULT:      -5.5      2.765      5.395
REMARK  Name = 
REMARK  6 active torsions:
REMARK  status: ('A' for Active; 'I' for Inactive)
REMARK    1  A    between atoms: C_1  and  C_2
REMARK    2  A    between atoms: C_2  and  C_3
REMARK    3  A    between atoms: C_3  and  C_4
REMARK    4  A    between atoms: C_4  and  N_5
REMARK    5  A    between atoms: N_5  and  C_6
REMARK    6  A    between atoms: C_6  and  C_7
REMARK                            x       y       z     vdW  Elec       q    Type
REMARK                         _______ _______ _______ _____ _____    ______ ____
ROOT
ATOM      1  C   UNL     1       3.532   2.221  17.945  0.00  0.00    +0.000 C 
ENDROOT
BRANCH   1   2
ATOM      2  C   UNL     1       4.272   3.533  17.916  0.00  0.00    +0.000 A 
ATOM      3  C   UNL     1       4.943   4.002  19.057  0.00  0.00    +0.000 A 
ATOM      4  C   UNL     1       5.623   5.223  19.023  0.00  0.00    +0.000 A 
ATOM      5  C   UNL     1       5.641   5.982  17.849  0.00  0.00    +0.000 A 
ATOM      6  C   UNL     1       4.979   5.522  16.708  0.00  0.00    +0.000 A 
ATOM      7  F   UNL     1       4.998   6.258  15.569  0.00  0.00    +0.000 F 
ATOM      8  C   UNL     1       4.296   4.301  16.739  0.00  0.00    +0.000 A 
ENDBRANCH   1   2
BRANCH   1   9
ATOM      9  N   UNL     1       2.123   2.441  17.603  0.00  0.00    +0.000 NA
ATOM     10  H   UNL     1       2.012   3.423  17.257  0.00  0.00    +0.000 HD
BRANCH   9  11
ATOM     11  C   UNL     1       1.263   2.253  18.777  0.00  0.00    +0.000 C 
BRANCH  11  12
ATOM     12  C   UNL     1       1.125   3.565  19.560  0.00  0.00    +0.000 C 
BRANCH  12  14
ATOM     13  C   UNL     1       2.506   2.691  21.483  0.00  0.00    +0.000 C 
ATOM     14  C   UNL     1       1.182   3.330  21.076  0.00  0.00    +0.000 C 
ENDBRANCH  12  14
ENDBRANCH  11  12
ENDBRANCH   9  11
ENDBRANCH   1   9
TORSDOF 5
ENDMDL
MODEL 4
REMARK VINA RESULT:      -5.4      2.901      5.315
REMARK  Name = 
REMARK  6 active torsions:
REMARK  status: ('A' for Active; 'I' for Inactive)
REMARK    1  A    between atoms: C_1  and  C_2
REMARK    2  A    between atoms: C_2  and  C_3
REMARK    3  A    between atoms: C_3  and  C_4
REMARK    4  A    between atoms: C_4  and  N_5
REMARK    5  A    between atoms: N_5  and  C_6
REMARK    6  A    between atoms: C_6  and  C_7
REMARK                            x       y       z     vdW  Elec       q    Type
REMARK                         _______ _______ _______ _____ _____    ______ ____
ROOT
ATOM      1  C   UNL     1       3.337   2.876  17.622  0.00  0.00    +0.000 C 
ENDROOT
BRANCH   1   2
ATOM      2  C   UNL     1       3.959   4.160  17.141  0.00  0.00    +0.000 A 
ATOM      3  C   UNL     1       3.597   5.391  17.715  0.00  0.00    +0.000 A 
ATOM      4  C   UNL     1       4.175   6.578  17.258  0.00  0.00    +0.000 A 
ATOM      5  C   UNL     1       5.121   6.547  16.230  0.00  0.00    +0.000 A 
ATOM      6  C   UNL     1       5.490   5.328  15.655  0.00  0.00    +0.000 A 
ATOM      7  F   UNL     1       6.408   5.298  14.657  0.00  0.00    +0.000 F 
ATOM      8  C   UNL     1       4.912   4.137  16.109  0.00  0.00    +0.000 A 
ENDBRANCH   1   2
BRANCH   1   9
ATOM      9  N   UNL     1       4.165   2.291  18.682  0.00  0.00    +0.000 NA
ATOM     10  H   UNL     1       4.234   1.258  18.521  0.00  0.00    +0.000 HD
BRANCH   9  11
ATOM     11  C   UNL     1       3.569   2.525  20.002  0.00  0.00    +0.000 C 
BRANCH  11  12
ATOM     12  C   UNL     1       2.045   2.354  19.945  0.00  0.00    +0.000 C 
BRANCH  12  14
ATOM     13  C   UNL     1       1.364   4.703  20.568  0.00  0.00    +0.000 C 
ATOM     14  C   UNL     1       1.335   3.235  20.982  0.00  0.00    +0.000 C 
ENDBRANCH  12  14
ENDBRANCH  11  12
ENDBRANCH   9  11
ENDBRANCH   1   9
TORSDOF 5
ENDMDL
MODEL 5
REMARK VINA RESULT:      -5.4      1.360      1.496
REMARK  Name = 
REMARK  6 active torsions:
REMARK  status: ('A' for Active; 'I' for Inactive)
REMARK    1  A    between atoms: C_1  and  C_2
REMARK    2  A    between atoms: C_2  and  C_3
REMARK    3  A    between atoms: C_3  and  C_4
REMARK    4  A    between atoms: C_4  and  N_5
REMARK    5  A    between atoms: N_5  and  C_6
REMARK    6  A    between atoms: C_6  and  C_7
REMARK                            x       y       z     vdW  Elec       q    Type
REMARK                         _______ _______ _______ _____ _____    ______ ____
ROOT
ATOM      1  C   UNL     1       4.811   4.611  19.313  0.00  0.00    +0.000 C 
ENDROOT
BRANCH   1   2
ATOM      2  C   UNL     1       3.439   3.995  19.399  0.00  0.00    +0.000 A 
ATOM      3  C   UNL     1       2.669   3.797  18.241  0.00  0.00    +0.000 A 
ATOM      4  C   UNL     1       1.395   3.230  18.331  0.00  0.00    +0.000 A 
ATOM      5  C   UNL     1       0.882   2.853  19.575  0.00  0.00    +0.000 A 
ATOM      6  C   UNL     1       1.641   3.043  20.732  0.00  0.00    +0.000 A 
ATOM      7  F   UNL     1       1.143   2.676  21.939  0.00  0.00    +0.000 F 
ATOM      8  C   UNL     1       2.917   3.612  20.646  0.00  0.00    +0.000 A 
ENDBRANCH   1   2
BRANCH   1   9
ATOM      9  N   UNL     1       5.700   3.734  18.546  0.00  0.00    +0.000 NA
ATOM     10  H   UNL     1       6.475   3.411  19.173  0.00  0.00    +0.000 HD
BRANCH   9  11
ATOM     11  C   UNL     1       6.284   4.447  17.404  0.00  0.00    +0.000 C 
BRANCH  11  12
ATOM     12  C   UNL     1       5.779   3.853  16.083  0.00  0.00    +0.000 C 
BRANCH  12  14
ATOM     13  C   UNL     1       6.030   3.844  13.571  0.00  0.00    +0.000 C 
ATOM     14  C   UNL     1       6.633   4.312  14.892  0.00  0.00    +0.000 C 
ENDBRANCH  12  14
ENDBRANCH  11  12
ENDBRANCH   9  11
ENDBRANCH   1   9
TORSDOF 5
ENDMDL
MODEL 6
REMARK VINA RESULT:      -5.4      1.687      2.584
REMARK  Name = 
REMARK  6 active torsions:
REMARK  status: ('A' for Active; 'I' for Inactive)
REMARK    1  A    between atoms: C_1  and  C_2
REMARK    2  A    between atoms: C_2  and  C_3
REMARK    3  A    between atoms: C_3  and  C_4
REMARK    4  A    between atoms: C_4  and  N_5
REMARK    5  A    between atoms: N_5  and  C_6
REMARK    6  A    between atoms: C_6  and  C_7
REMARK                            x       y       z     vdW  Elec       q    Type
REMARK                         _______ _______ _______ _____ _____    ______ ____
ROOT
ATOM      1  C   UNL     1       4.530   4.083  16.539  0.00  0.00    +0.000 C 
ENDROOT
BRANCH   1   2
ATOM      2  C   UNL     1       3.767   3.513  17.705  0.00  0.00    +0.000 A 
ATOM      3  C   UNL     1       4.401   3.296  18.940  0.00  0.00    +0.000 A 
ATOM      4  C   UNL     1       3.686   2.761  20.015  0.00  0.00    +0.000 A 
ATOM      5  C   UNL     1       2.333   2.443  19.868  0.00  0.00    +0.000 A 
ATOM      6  C   UNL     1       1.693   2.657  18.645  0.00  0.00    +0.000 A 
ATOM      7  F   UNL     1       0.380   2.348  18.503  0.00  0.00    +0.000 F 
ATOM      8  C   UNL     1       2.406   3.191  17.565  0.00  0.00    +0.000 A 
ENDBRANCH   1   2
BRANCH   1   9
ATOM      9  N   UNL     1       5.892   3.539  16.526  0.00  0.00    +0.000 NA
ATOM     10  H   UNL     1       6.116   3.175  17.482  0.00  0.00    +0.000 HD
BRANCH   9  11
ATOM     11  C   UNL     1       6.868   4.578  16.176  0.00  0.00    +0.000 C 
BRANCH  11  12
ATOM     12  C   UNL     1       6.355   5.962  16.595  0.00  0.00    +0.000 C 
BRANCH  12  14
ATOM     13  C   UNL     1       7.625   5.829  18.771  0.00  0.00    +0.000 C 
ATOM     14  C   UNL     1       7.340   6.673  17.534  0.00  0.00    +0.000 C 
ENDBRANCH  12  14
ENDBRANCH  11  12
ENDBRANCH   9  11
ENDBRANCH   1   9
TORSDOF 5
ENDMDL
MODEL 7
REMARK VINA RESULT:      -5.3      2.824      5.600
REMARK  Name = 
REMARK  6 active torsions:
REMARK  status: ('A' for Active; 'I' for Inactive)
REMARK    1  A    between atoms: C_1  and  C_2
REMARK    2  A    between atoms: C_2  and  C_3
REMARK    3  A    between atoms: C_3  and  C_4
REMARK    4  A    between atoms: C_4  and  N_5
REMARK    5  A    between atoms: N_5  and  C_6
REMARK    6  A    between atoms: C_6  and  C_7
REMARK                            x       y       z     vdW  Elec       q    Type
REMARK                         _______ _______ _______ _____ _____    ______ ____
ROOT
ATOM      1  C   UNL     1       3.149   3.451  17.310  0.00  0.00    +0.000 C 
ENDROOT
BRANCH   1   2
ATOM      2  C   UNL     1       4.563   3.968  17.356  0.00  0.00    +0.000 A 
ATOM      3  C   UNL     1       5.110   4.455  18.555  0.00  0.00    +0.000 A 
ATOM      4  C   UNL     1       6.422   4.937  18.586  0.00  0.00    +0.000 A 
ATOM      5  C   UNL     1       7.197   4.935  17.423  0.00  0.00    +0.000 A 
ATOM      6  C   UNL     1       6.663   4.451  16.226  0.00  0.00    +0.000 A 
ATOM      7  F   UNL     1       7.416   4.448  15.099  0.00  0.00    +0.000 F 
ATOM      8  C   UNL     1       5.350   3.968  16.191  0.00  0.00    +0.000 A 
ENDBRANCH   1   2
BRANCH   1   9
ATOM      9  N   UNL     1       3.101   2.094  17.862  0.00  0.00    +0.000 NA
ATOM     10  H   UNL     1       2.759   1.442  17.117  0.00  0.00    +0.000 HD
BRANCH   9  11
ATOM     11  C   UNL     1       2.185   2.025  19.007  0.00  0.00    +0.000 C 
BRANCH  11  12
ATOM     12  C   UNL     1       1.201   3.202  18.981  0.00  0.00    +0.000 C 
BRANCH  12  14
ATOM     13  C   UNL     1       1.937   4.989  20.605  0.00  0.00    +0.000 C 
ATOM     14  C   UNL     1       1.002   3.805  20.379  0.00  0.00    +0.000 C 
ENDBRANCH  12  14
ENDBRANCH  11  12
ENDBRANCH   9  11
ENDBRANCH   1   9
TORSDOF 5
ENDMDL
MODEL 8
REMARK VINA RESULT:      -5.3      2.539      5.168
REMARK  Name = 
REMARK  6 active torsions:
REMARK  status: ('A' for Active; 'I' for Inactive)
REMARK    1  A    between atoms: C_1  and  C_2
REMARK    2  A    between atoms: C_2  and  C_3
REMARK    3  A    between atoms: C_3  and  C_4
REMARK    4  A    between atoms: C_4  and  N_5
REMARK    5  A    between atoms: N_5  and  C_6
REMARK    6  A    between atoms: C_6  and  C_7
REMARK                            x       y       z     vdW  Elec       q    Type
REMARK                         _______ _______ _______ _____ _____    ______ ____
ROOT
ATOM      1  C   UNL     1       3.528   2.843  17.795  0.00  0.00    +0.000 C 
ENDROOT
BRANCH   1   2
ATOM      2  C   UNL     1       4.477   4.013  17.769  0.00  0.00    +0.000 A 
ATOM      3  C   UNL     1       4.557   4.844  16.640  0.00  0.00    +0.000 A 
ATOM      4  C   UNL     1       5.445   5.924  16.621  0.00  0.00    +0.000 A 
ATOM      5  C   UNL     1       6.256   6.183  17.730  0.00  0.00    +0.000 A 
ATOM      6  C   UNL     1       6.181   5.363  18.859  0.00  0.00    +0.000 A 
ATOM      7  F   UNL     1       6.968   5.615  19.934  0.00  0.00    +0.000 F 
ATOM      8  C   UNL     1       5.294   4.280  18.880  0.00  0.00    +0.000 A 
ENDBRANCH   1   2
BRANCH   1   9
ATOM      9  N   UNL     1       2.249   3.230  17.192  0.00  0.00    +0.000 NA
ATOM     10  H   UNL     1       2.429   3.964  16.466  0.00  0.00    +0.000 HD
BRANCH   9  11
ATOM     11  C   UNL     1       1.337   3.779  18.202  0.00  0.00    +0.000 C 
BRANCH  11  12
ATOM     12  C   UNL     1       1.274   2.860  19.428  0.00  0.00    +0.000 C 
BRANCH  12  14
ATOM     13  C   UNL     1       1.834   5.034  20.581  0.00  0.00    +0.000 C 
ATOM     14  C   UNL     1       1.189   3.661  20.735  0.00  0.00    +0.000 C 
ENDBRANCH  12  14
ENDBRANCH  11  12
ENDBRANCH   9  11
ENDBRANCH   1   9
TORSDOF 5
ENDMDL
MODEL 9
REMARK VINA RESULT:      -5.3      2.532      5.223
REMARK  Name = 
REMARK  6 active torsions:
REMARK  status: ('A' for Active; 'I' for Inactive)
REMARK    1  A    between atoms: C_1  and  C_2
REMARK    2  A    between atoms: C_2  and  C_3
REMARK    3  A    between atoms: C_3  and  C_4
REMARK    4  A    between atoms: C_4  and  N_5
REMARK    5  A    between atoms: N_5  and  C_6
REMARK    6  A    between atoms: C_6  and  C_7
REMARK                            x       y       z     vdW  Elec       q    Type
REMARK                         _______ _______ _______ _____ _____    ______ ____
ROOT
ATOM      1  C   UNL     1       2.531   5.033  17.891  0.00  0.00    +0.000 C 
ENDROOT
BRANCH   1   2
ATOM      2  C   UNL     1       4.030   4.923  17.801  0.00  0.00    +0.000 A 
ATOM      3  C   UNL     1       4.644   4.445  16.631  0.00  0.00    +0.000 A 
ATOM      4  C   UNL     1       6.036   4.340  16.558  0.00  0.00    +0.000 A 
ATOM      5  C   UNL     1       6.825   4.716  17.649  0.00  0.00    +0.000 A 
ATOM      6  C   UNL     1       6.224   5.196  18.816  0.00  0.00    +0.000 A 
ATOM      7  F   UNL     1       6.990   5.561  19.874  0.00  0.00    +0.000 F 
ATOM      8  C   UNL     1       4.830   5.300  18.893  0.00  0.00    +0.000 A 
ENDBRANCH   1   2
BRANCH   1   9
ATOM      9  N   UNL     1       1.914   3.790  17.418  0.00  0.00    +0.000 NA
ATOM     10  H   UNL     1       0.902   3.972  17.221  0.00  0.00    +0.000 HD
BRANCH   9  11
ATOM     11  C   UNL     1       2.015   2.735  18.434  0.00  0.00    +0.000 C 
BRANCH  11  12
ATOM     12  C   UNL     1       0.780   2.744  19.344  0.00  0.00    +0.000 C 
BRANCH  12  14
ATOM     13  C   UNL     1       2.577   2.784  21.115  0.00  0.00    +0.000 C 
ATOM     14  C   UNL     1       1.135   3.151  20.781  0.00  0.00    +0.000 C 
ENDBRANCH  12  14
ENDBRANCH  11  12
ENDBRANCH   9  11
ENDBRANCH   1   9
TORSDOF 5
ENDMDL
