MODEL 1
REMARK VINA RESULT:      -7.6      0.000      0.000
REMARK  Name = 
REMARK  12 active torsions:
REMARK  status: ('A' for Active; 'I' for Inactive)
REMARK    1  A    between atoms: C_1  and  C_2
REMARK    2  A    between atoms: C_2  and  C_3
REMARK    3  A    between atoms: C_2  and  C_4
REMARK    4  A    between atoms: C_2  and  C_5
REMARK    5  A    between atoms: N_8  and  C_9
REMARK    6  A    between atoms: C_9  and  C_10
REMARK    7  A    between atoms: C_10  and  C_11
REMARK    8  A    between atoms: C_11  and  C_12
REMARK    9  A    between atoms: C_11  and  C_13
REMARK   10  A    between atoms: C_11  and  S_17
REMARK   11  A    between atoms: N_15  and  O_16
REMARK   12  A    between atoms: S_17  and  C_18
REMARK                            x       y       z     vdW  Elec       q    Type
REMARK                         _______ _______ _______ _____ _____    ______ ____
ROOT
ATOM      1  C   UNL     1       4.514   6.363  17.337  0.00  0.00    +0.000 C 
ENDROOT
BRANCH   1   2
ATOM      2  C   UNL     1       5.382   5.074  17.305  0.00  0.00    +0.000 C 
ATOM      3  C   UNL     1       4.843   4.062  16.281  0.00  0.00    +0.000 C 
BRANCH   2   4
ATOM      4  C   UNL     1       5.356   4.446  18.702  0.00  0.00    +0.000 C 
ATOM      5  O   UNL     1       5.516   5.100  19.735  0.00  0.00    +0.000 OA
ATOM      6  N   UNL     1       5.192   3.081  18.767  0.00  0.00    +0.000 N 
ATOM      7  H   UNL     1       4.790   2.518  18.015  0.00  0.00    +0.000 HD
BRANCH   6   8
ATOM      8  O   UNL     1       5.150   2.517  20.062  0.00  0.00    +0.000 OA
ATOM      9  H   UNL     1       4.939   3.288  20.632  0.00  0.00    +0.000 HD
ENDBRANCH   6   8
ENDBRANCH   2   4
BRANCH   2  10
ATOM     10  S   UNL     1       7.104   5.488  16.923  0.00  0.00    +0.000 S 
ATOM     11  C   UNL     1       7.467   7.054  17.685  0.00  0.00    +0.000 C 
ATOM     12  O   UNL     1       7.970   4.525  17.579  0.00  0.00    +0.000 OA
ATOM     13  O   UNL     1       7.193   5.666  15.482  0.00  0.00    +0.000 OA
ENDBRANCH   2  10
ENDBRANCH   1   2
BRANCH   1  14
ATOM     14  C   UNL     1       3.112   6.179  17.925  0.00  0.00    +0.000 C 
BRANCH  14  18
ATOM     15  C   UNL     1       1.064   9.531  19.575  0.00  0.00    +0.000 A 
ATOM     16  C   UNL     1       1.648   9.559  18.239  0.00  0.00    +0.000 A 
ATOM     17  C   UNL     1       2.333   8.511  17.766  0.00  0.00    +0.000 A 
ATOM     18  N   UNL     1       2.554   7.380  18.535  0.00  0.00    +0.000 N 
ATOM     19  C   UNL     1       2.056   7.275  19.830  0.00  0.00    +0.000 A 
ATOM     20  O   UNL     1       2.186   6.296  20.560  0.00  0.00    +0.000 OA
ATOM     21  C   UNL     1       1.281   8.438  20.325  0.00  0.00    +0.000 A 
BRANCH  15  23
ATOM     22  C   UNL     1      -1.128  10.778  19.277  0.00  0.00    +0.000 C 
ATOM     23  C   UNL     1       0.220  10.737  20.032  0.00  0.00    +0.000 C 
ATOM     24  C   UNL     1       0.965  12.062  19.772  0.00  0.00    +0.000 C 
ATOM     25  C   UNL     1      -0.091  10.672  21.548  0.00  0.00    +0.000 C 
ENDBRANCH  15  23
ENDBRANCH  14  18
ENDBRANCH   1  14
TORSDOF 7
ENDMDL
MODEL 2
REMARK VINA RESULT:      -7.6      1.010      1.319
REMARK  Name = 
REMARK  12 active torsions:
REMARK  status: ('A' for Active; 'I' for Inactive)
REMARK    1  A    between atoms: C_1  and  C_2
REMARK    2  A    between atoms: C_2  and  C_3
REMARK    3  A    between atoms: C_2  and  C_4
REMARK    4  A    between atoms: C_2  and  C_5
REMARK    5  A    between atoms: N_8  and  C_9
REMARK    6  A    between atoms: C_9  and  C_10
REMARK    7  A    between atoms: C_10  and  C_11
REMARK    8  A    between atoms: C_11  and  C_12
REMARK    9  A    between atoms: C_11  and  C_13
REMARK   10  A    between atoms: C_11  and  S_17
REMARK   11  A    between atoms: N_15  and  O_16
REMARK   12  A    between atoms: S_17  and  C_18
REMARK                            x       y       z     vdW  Elec       q    Type
REMARK                         _______ _______ _______ _____ _____    ______ ____
ROOT
ATOM      1  C   UNL     1       4.292   6.017  18.951  0.00  0.00    +0.000 C 
ENDROOT
BRANCH   1   2
ATOM      2  C   UNL     1       5.164   5.089  18.059  0.00  0.00    +0.000 C 
ATOM      3  C   UNL     1       4.927   5.367  16.565  0.00  0.00    +0.000 C 
BRANCH   2   4
ATOM      4  C   UNL     1       4.788   3.637  18.371  0.00  0.00    +0.000 C 
ATOM      5  O   UNL     1       4.046   2.967  17.650  0.00  0.00    +0.000 OA
ATOM      6  N   UNL     1       5.281   3.105  19.540  0.00  0.00    +0.000 N 
ATOM      7  H   UNL     1       6.093   3.474  20.038  0.00  0.00    +0.000 HD
BRANCH   6   8
ATOM      8  O   UNL     1       4.943   1.759  19.806  0.00  0.00    +0.000 OA
ATOM      9  H   UNL     1       4.620   1.792  20.733  0.00  0.00    +0.000 HD
ENDBRANCH   6   8
ENDBRANCH   2   4
BRANCH   2  10
ATOM     10  S   UNL     1       6.918   5.301  18.462  0.00  0.00    +0.000 S 
ATOM     11  C   UNL     1       7.427   6.890  17.847  0.00  0.00    +0.000 C 
ATOM     12  O   UNL     1       7.056   5.378  19.905  0.00  0.00    +0.000 OA
ATOM     13  O   UNL     1       7.653   4.285  17.725  0.00  0.00    +0.000 OA
ENDBRANCH   2  10
ENDBRANCH   1   2
BRANCH   1  14
ATOM     14  C   UNL     1       2.887   6.296  18.409  0.00  0.00    +0.000 C 
BRANCH  14  18
ATOM     15  C   UNL     1       0.876   9.923  19.385  0.00  0.00    +0.000 A 
ATOM     16  C   UNL     1       1.592   9.746  18.127  0.00  0.00    +0.000 A 
ATOM     17  C   UNL     1       2.262   8.616  17.870  0.00  0.00    +0.000 A 
ATOM     18  N   UNL     1       2.340   7.590  18.797  0.00  0.00    +0.000 N 
ATOM     19  C   UNL     1       1.708   7.680  20.033  0.00  0.00    +0.000 A 
ATOM     20  O   UNL     1       1.707   6.803  20.892  0.00  0.00    +0.000 OA
ATOM     21  C   UNL     1       0.953   8.931  20.288  0.00  0.00    +0.000 A 
BRANCH  15  23
ATOM     22  C   UNL     1      -0.979  11.388  18.459  0.00  0.00    +0.000 C 
ATOM     23  C   UNL     1       0.059  11.213  19.590  0.00  0.00    +0.000 C 
ATOM     24  C   UNL     1       0.979  12.452  19.603  0.00  0.00    +0.000 C 
ATOM     25  C   UNL     1      -0.708  11.194  20.934  0.00  0.00    +0.000 C 
ENDBRANCH  15  23
ENDBRANCH  14  18
ENDBRANCH   1  14
TORSDOF 7
ENDMDL
MODEL 3
REMARK VINA RESULT:      -7.6      0.808      1.434
REMARK  Name = 
REMARK  12 active torsions:
REMARK  status: ('A' for Active; 'I' for Inactive)
REMARK    1  A    between atoms: C_1  and  C_2
REMARK    2  A    between atoms: C_2  and  C_3
REMARK    3  A    between atoms: C_2  and  C_4
REMARK    4  A    between atoms: C_2  and  C_5
REMARK    5  A    between atoms: N_8  and  C_9
REMARK    6  A    between atoms: C_9  and  C_10
REMARK    7  A    between atoms: C_10  and  C_11
REMARK    8  A    between atoms: C_11  and  C_12
REMARK    9  A    between atoms: C_11  and  C_13
REMARK   10  A    between atoms: C_11  and  S_17
REMARK   11  A    between atoms: N_15  and  O_16
REMARK   12  A    between atoms: S_17  and  C_18
REMARK                            x       y       z     vdW  Elec       q    Type
REMARK                         _______ _______ _______ _____ _____    ______ ____
ROOT
ATOM      1  C   UNL     1       4.491   6.163  17.237  0.00  0.00    +0.000 C 
ENDROOT
BRANCH   1   2
ATOM      2  C   UNL     1       5.352   4.872  17.136  0.00  0.00    +0.000 C 
ATOM      3  C   UNL     1       4.682   3.824  16.232  0.00  0.00    +0.000 C 
BRANCH   2   4
ATOM      4  C   UNL     1       5.517   4.296  18.545  0.00  0.00    +0.000 C 
ATOM      5  O   UNL     1       6.071   4.910  19.460  0.00  0.00    +0.000 OA
ATOM      6  N   UNL     1       5.057   3.016  18.751  0.00  0.00    +0.000 N 
ATOM      7  H   UNL     1       4.365   2.555  18.157  0.00  0.00    +0.000 HD
BRANCH   6   8
ATOM      8  O   UNL     1       5.198   2.503  20.061  0.00  0.00    +0.000 OA
ATOM      9  H   UNL     1       6.036   2.913  20.369  0.00  0.00    +0.000 HD
ENDBRANCH   6   8
ENDBRANCH   2   4
BRANCH   2  10
ATOM     10  S   UNL     1       7.004   5.270  16.508  0.00  0.00    +0.000 S 
ATOM     11  C   UNL     1       7.008   4.962  14.756  0.00  0.00    +0.000 C 
ATOM     12  O   UNL     1       7.225   6.697  16.654  0.00  0.00    +0.000 OA
ATOM     13  O   UNL     1       7.933   4.335  17.124  0.00  0.00    +0.000 OA
ENDBRANCH   2  10
ENDBRANCH   1   2
BRANCH   1  14
ATOM     14  C   UNL     1       3.103   5.964  17.851  0.00  0.00    +0.000 C 
BRANCH  14  18
ATOM     15  C   UNL     1       1.145   9.231  19.761  0.00  0.00    +0.000 A 
ATOM     16  C   UNL     1       1.653   9.320  18.397  0.00  0.00    +0.000 A 
ATOM     17  C   UNL     1       2.313   8.297  17.841  0.00  0.00    +0.000 A 
ATOM     18  N   UNL     1       2.578   7.134  18.544  0.00  0.00    +0.000 N 
ATOM     19  C   UNL     1       2.154   6.969  19.859  0.00  0.00    +0.000 A 
ATOM     20  O   UNL     1       2.326   5.959  20.537  0.00  0.00    +0.000 OA
ATOM     21  C   UNL     1       1.406   8.106  20.449  0.00  0.00    +0.000 A 
BRANCH  15  23
ATOM     22  C   UNL     1       1.165  11.709  20.310  0.00  0.00    +0.000 C 
ATOM     23  C   UNL     1       0.326  10.411  20.318  0.00  0.00    +0.000 C 
ATOM     24  C   UNL     1      -0.129  10.134  21.766  0.00  0.00    +0.000 C 
ATOM     25  C   UNL     1      -0.947  10.668  19.475  0.00  0.00    +0.000 C 
ENDBRANCH  15  23
ENDBRANCH  14  18
ENDBRANCH   1  14
TORSDOF 7
ENDMDL
MODEL 4
REMARK VINA RESULT:      -7.5      2.338      3.386
REMARK  Name = 
REMARK  12 active torsions:
REMARK  status: ('A' for Active; 'I' for Inactive)
REMARK    1  A    between atoms: C_1  and  C_2
REMARK    2  A    between atoms: C_2  and  C_3
REMARK    3  A    between atoms: C_2  and  C_4
REMARK    4  A    between atoms: C_2  and  C_5
REMARK    5  A    between atoms: N_8  and  C_9
REMARK    6  A    between atoms: C_9  and  C_10
REMARK    7  A    between atoms: C_10  and  C_11
REMARK    8  A    between atoms: C_11  and  C_12
REMARK    9  A    between atoms: C_11  and  C_13
REMARK   10  A    between atoms: C_11  and  S_17
REMARK   11  A    between atoms: N_15  and  O_16
REMARK   12  A    between atoms: S_17  and  C_18
REMARK                            x       y       z     vdW  Elec       q    Type
REMARK                         _______ _______ _______ _____ _____    ______ ____
ROOT
ATOM      1  C   UNL     1       3.345   5.626  19.526  0.00  0.00    +0.000 C 
ENDROOT
BRANCH   1   2
ATOM      2  C   UNL     1       2.679   4.306  19.044  0.00  0.00    +0.000 C 
ATOM      3  C   UNL     1       1.756   4.555  17.839  0.00  0.00    +0.000 C 
BRANCH   2   4
ATOM      4  C   UNL     1       1.858   3.734  20.203  0.00  0.00    +0.000 C 
ATOM      5  O   UNL     1       0.663   3.988  20.368  0.00  0.00    +0.000 OA
ATOM      6  N   UNL     1       2.528   2.943  21.108  0.00  0.00    +0.000 N 
ATOM      7  H   UNL     1       3.413   2.471  20.910  0.00  0.00    +0.000 HD
BRANCH   6   8
ATOM      8  O   UNL     1       1.756   2.406  22.162  0.00  0.00    +0.000 OA
ATOM      9  H   UNL     1       1.642   1.467  21.895  0.00  0.00    +0.000 HD
ENDBRANCH   6   8
ENDBRANCH   2   4
BRANCH   2  10
ATOM     10  S   UNL     1       3.947   3.086  18.614  0.00  0.00    +0.000 S 
ATOM     11  C   UNL     1       4.647   3.559  17.049  0.00  0.00    +0.000 C 
ATOM     12  O   UNL     1       5.032   3.187  19.573  0.00  0.00    +0.000 OA
ATOM     13  O   UNL     1       3.271   1.811  18.429  0.00  0.00    +0.000 OA
ENDBRANCH   2  10
ENDBRANCH   1   2
BRANCH   1  14
ATOM     14  C   UNL     1       3.127   6.830  18.607  0.00  0.00    +0.000 C 
BRANCH  14  18
ATOM     15  C   UNL     1       0.680   9.923  20.220  0.00  0.00    +0.000 A 
ATOM     16  C   UNL     1       1.008   8.719  20.975  0.00  0.00    +0.000 A 
ATOM     17  C   UNL     1       1.734   7.738  20.424  0.00  0.00    +0.000 A 
ATOM     18  N   UNL     1       2.164   7.803  19.109  0.00  0.00    +0.000 N 
ATOM     19  C   UNL     1       1.877   8.902  18.306  0.00  0.00    +0.000 A 
ATOM     20  O   UNL     1       2.247   9.044  17.143  0.00  0.00    +0.000 OA
ATOM     21  C   UNL     1       1.091   9.987  18.943  0.00  0.00    +0.000 A 
BRANCH  15  23
ATOM     22  C   UNL     1       0.781  12.320  21.051  0.00  0.00    +0.000 C 
ATOM     23  C   UNL     1      -0.091  11.049  20.935  0.00  0.00    +0.000 C 
ATOM     24  C   UNL     1      -0.512  10.616  22.354  0.00  0.00    +0.000 C 
ATOM     25  C   UNL     1      -1.380  11.432  20.167  0.00  0.00    +0.000 C 
ENDBRANCH  15  23
ENDBRANCH  14  18
ENDBRANCH   1  14
TORSDOF 7
ENDMDL
MODEL 5
REMARK VINA RESULT:      -7.4      2.348      3.462
REMARK  Name = 
REMARK  12 active torsions:
REMARK  status: ('A' for Active; 'I' for Inactive)
REMARK    1  A    between atoms: C_1  and  C_2
REMARK    2  A    between atoms: C_2  and  C_3
REMARK    3  A    between atoms: C_2  and  C_4
REMARK    4  A    between atoms: C_2  and  C_5
REMARK    5  A    between atoms: N_8  and  C_9
REMARK    6  A    between atoms: C_9  and  C_10
REMARK    7  A    between atoms: C_10  and  C_11
REMARK    8  A    between atoms: C_11  and  C_12
REMARK    9  A    between atoms: C_11  and  C_13
REMARK   10  A    between atoms: C_11  and  S_17
REMARK   11  A    between atoms: N_15  and  O_16
REMARK   12  A    between atoms: S_17  and  C_18
REMARK                            x       y       z     vdW  Elec       q    Type
REMARK                         _______ _______ _______ _____ _____    ______ ____
ROOT
ATOM      1  C   UNL     1       2.602   5.391  18.222  0.00  0.00    +0.000 C 
ENDROOT
BRANCH   1   2
ATOM      2  C   UNL     1       3.192   4.100  18.857  0.00  0.00    +0.000 C 
ATOM      3  C   UNL     1       2.953   4.064  20.375  0.00  0.00    +0.000 C 
BRANCH   2   4
ATOM      4  C   UNL     1       4.698   4.077  18.579  0.00  0.00    +0.000 C 
ATOM      5  O   UNL     1       5.544   4.271  19.455  0.00  0.00    +0.000 OA
ATOM      6  N   UNL     1       5.087   3.876  17.275  0.00  0.00    +0.000 N 
ATOM      7  H   UNL     1       4.494   3.447  16.561  0.00  0.00    +0.000 HD
BRANCH   6   8
ATOM      8  O   UNL     1       6.479   3.837  17.035  0.00  0.00    +0.000 OA
ATOM      9  H   UNL     1       6.689   2.881  17.108  0.00  0.00    +0.000 HD
ENDBRANCH   6   8
ENDBRANCH   2   4
BRANCH   2  10
ATOM     10  S   UNL     1       2.468   2.632  18.078  0.00  0.00    +0.000 S 
ATOM     11  C   UNL     1       0.892   2.333  18.845  0.00  0.00    +0.000 C 
ATOM     12  O   UNL     1       2.175   2.941  16.691  0.00  0.00    +0.000 OA
ATOM     13  O   UNL     1       3.335   1.507  18.394  0.00  0.00    +0.000 OA
ENDBRANCH   2  10
ENDBRANCH   1   2
BRANCH   1  14
ATOM     14  C   UNL     1       3.211   6.697  18.738  0.00  0.00    +0.000 C 
BRANCH  14  18
ATOM     15  C   UNL     1       0.713   9.838  20.168  0.00  0.00    +0.000 A 
ATOM     16  C   UNL     1       1.027   8.667  20.977  0.00  0.00    +0.000 A 
ATOM     17  C   UNL     1       1.770   7.669  20.483  0.00  0.00    +0.000 A 
ATOM     18  N   UNL     1       2.232   7.684  19.178  0.00  0.00    +0.000 N 
ATOM     19  C   UNL     1       1.960   8.749  18.325  0.00  0.00    +0.000 A 
ATOM     20  O   UNL     1       2.358   8.846  17.167  0.00  0.00    +0.000 OA
ATOM     21  C   UNL     1       1.155   9.854  18.899  0.00  0.00    +0.000 A 
BRANCH  15  23
ATOM     22  C   UNL     1      -1.330  11.334  19.978  0.00  0.00    +0.000 C 
ATOM     23  C   UNL     1      -0.080  10.988  20.818  0.00  0.00    +0.000 C 
ATOM     24  C   UNL     1       0.789  12.257  20.943  0.00  0.00    +0.000 C 
ATOM     25  C   UNL     1      -0.559  10.615  22.243  0.00  0.00    +0.000 C 
ENDBRANCH  15  23
ENDBRANCH  14  18
ENDBRANCH   1  14
TORSDOF 7
ENDMDL
MODEL 6
REMARK VINA RESULT:      -7.4      0.954      1.585
REMARK  Name = 
REMARK  12 active torsions:
REMARK  status: ('A' for Active; 'I' for Inactive)
REMARK    1  A    between atoms: C_1  and  C_2
REMARK    2  A    between atoms: C_2  and  C_3
REMARK    3  A    between atoms: C_2  and  C_4
REMARK    4  A    between atoms: C_2  and  C_5
REMARK    5  A    between atoms: N_8  and  C_9
REMARK    6  A    between atoms: C_9  and  C_10
REMARK    7  A    between atoms: C_10  and  C_11
REMARK    8  A    between atoms: C_11  and  C_12
REMARK    9  A    between atoms: C_11  and  C_13
REMARK   10  A    between atoms: C_11  and  S_17
REMARK   11  A    between atoms: N_15  and  O_16
REMARK   12  A    between atoms: S_17  and  C_18
REMARK                            x       y       z     vdW  Elec       q    Type
REMARK                         _______ _______ _______ _____ _____    ______ ____
ROOT
ATOM      1  C   UNL     1       4.242   5.931  17.329  0.00  0.00    +0.000 C 
ENDROOT
BRANCH   1   2
ATOM      2  C   UNL     1       5.330   4.820  17.318  0.00  0.00    +0.000 C 
ATOM      3  C   UNL     1       5.741   4.456  15.881  0.00  0.00    +0.000 C 
BRANCH   2   4
ATOM      4  C   UNL     1       4.756   3.581  18.011  0.00  0.00    +0.000 C 
ATOM      5  O   UNL     1       3.730   3.014  17.629  0.00  0.00    +0.000 OA
ATOM      6  N   UNL     1       5.413   3.138  19.136  0.00  0.00    +0.000 N 
ATOM      7  H   UNL     1       6.385   3.364  19.356  0.00  0.00    +0.000 HD
BRANCH   6   8
ATOM      8  O   UNL     1       4.884   1.983  19.755  0.00  0.00    +0.000 OA
ATOM      9  H   UNL     1       4.100   1.775  19.202  0.00  0.00    +0.000 HD
ENDBRANCH   6   8
ENDBRANCH   2   4
BRANCH   2  10
ATOM     10  S   UNL     1       6.781   5.355  18.263  0.00  0.00    +0.000 S 
ATOM     11  C   UNL     1       7.305   6.924  17.610  0.00  0.00    +0.000 C 
ATOM     12  O   UNL     1       6.371   5.619  19.630  0.00  0.00    +0.000 OA
ATOM     13  O   UNL     1       7.840   4.392  18.006  0.00  0.00    +0.000 OA
ENDBRANCH   2  10
ENDBRANCH   1   2
BRANCH   1  14
ATOM     14  C   UNL     1       3.367   5.960  18.585  0.00  0.00    +0.000 C 
BRANCH  14  18
ATOM     15  C   UNL     1       1.097   9.523  19.138  0.00  0.00    +0.000 A 
ATOM     16  C   UNL     1       1.946   9.317  17.970  0.00  0.00    +0.000 A 
ATOM     17  C   UNL     1       2.691   8.212  17.849  0.00  0.00    +0.000 A 
ATOM     18  N   UNL     1       2.722   7.243  18.838  0.00  0.00    +0.000 N 
ATOM     19  C   UNL     1       1.964   7.367  19.998  0.00  0.00    +0.000 A 
ATOM     20  O   UNL     1       1.918   6.540  20.905  0.00  0.00    +0.000 OA
ATOM     21  C   UNL     1       1.129   8.589  20.102  0.00  0.00    +0.000 A 
BRANCH  15  23
ATOM     22  C   UNL     1      -0.354  11.001  20.607  0.00  0.00    +0.000 C 
ATOM     23  C   UNL     1       0.204  10.778  19.183  0.00  0.00    +0.000 C 
ATOM     24  C   UNL     1      -0.984  10.646  18.208  0.00  0.00    +0.000 C 
ATOM     25  C   UNL     1       0.990  12.051  18.782  0.00  0.00    +0.000 C 
ENDBRANCH  15  23
ENDBRANCH  14  18
ENDBRANCH   1  14
TORSDOF 7
ENDMDL
MODEL 7
REMARK VINA RESULT:      -7.4      2.497      3.402
REMARK  Name = 
REMARK  12 active torsions:
REMARK  status: ('A' for Active; 'I' for Inactive)
REMARK    1  A    between atoms: C_1  and  C_2
REMARK    2  A    between atoms: C_2  and  C_3
REMARK    3  A    between atoms: C_2  and  C_4
REMARK    4  A    between atoms: C_2  and  C_5
REMARK    5  A    between atoms: N_8  and  C_9
REMARK    6  A    between atoms: C_9  and  C_10
REMARK    7  A    between atoms: C_10  and  C_11
REMARK    8  A    between atoms: C_11  and  C_12
REMARK    9  A    between atoms: C_11  and  C_13
REMARK   10  A    between atoms: C_11  and  S_17
REMARK   11  A    between atoms: N_15  and  O_16
REMARK   12  A    between atoms: S_17  and  C_18
REMARK                            x       y       z     vdW  Elec       q    Type
REMARK                         _______ _______ _______ _____ _____    ______ ____
ROOT
ATOM      1  C   UNL     1       3.010   5.538  19.746  0.00  0.00    +0.000 C 
ENDROOT
BRANCH   1   2
ATOM      2  C   UNL     1       2.574   4.223  19.040  0.00  0.00    +0.000 C 
ATOM      3  C   UNL     1       1.697   4.514  17.811  0.00  0.00    +0.000 C 
BRANCH   2   4
ATOM      4  C   UNL     1       1.778   3.383  20.044  0.00  0.00    +0.000 C 
ATOM      5  O   UNL     1       0.686   2.877  19.779  0.00  0.00    +0.000 OA
ATOM      6  N   UNL     1       2.314   3.248  21.304  0.00  0.00    +0.000 N 
ATOM      7  H   UNL     1       3.302   3.391  21.523  0.00  0.00    +0.000 HD
BRANCH   6   8
ATOM      8  O   UNL     1       1.580   2.455  22.215  0.00  0.00    +0.000 OA
ATOM      9  H   UNL     1       2.282   2.050  22.770  0.00  0.00    +0.000 HD
ENDBRANCH   6   8
ENDBRANCH   2   4
BRANCH   2  10
ATOM     10  S   UNL     1       4.030   3.261  18.552  0.00  0.00    +0.000 S 
ATOM     11  C   UNL     1       3.482   1.621  18.137  0.00  0.00    +0.000 C 
ATOM     12  O   UNL     1       4.562   3.818  17.322  0.00  0.00    +0.000 OA
ATOM     13  O   UNL     1       4.888   3.159  19.722  0.00  0.00    +0.000 OA
ENDBRANCH   2  10
ENDBRANCH   1   2
BRANCH   1  14
ATOM     14  C   UNL     1       2.997   6.782  18.854  0.00  0.00    +0.000 C 
BRANCH  14  18
ATOM     15  C   UNL     1       0.640  10.050  20.238  0.00  0.00    +0.000 A 
ATOM     16  C   UNL     1       0.905   8.879  21.065  0.00  0.00    +0.000 A 
ATOM     17  C   UNL     1       1.603   7.842  20.586  0.00  0.00    +0.000 A 
ATOM     18  N   UNL     1       2.063   7.817  19.280  0.00  0.00    +0.000 N 
ATOM     19  C   UNL     1       1.835   8.879  18.411  0.00  0.00    +0.000 A 
ATOM     20  O   UNL     1       2.235   8.942  17.251  0.00  0.00    +0.000 OA
ATOM     21  C   UNL     1       1.080  10.027  18.969  0.00  0.00    +0.000 A 
BRANCH  15  23
ATOM     22  C   UNL     1      -1.367  11.595  20.058  0.00  0.00    +0.000 C 
ATOM     23  C   UNL     1      -0.101  11.243  20.872  0.00  0.00    +0.000 C 
ATOM     24  C   UNL     1       0.805  12.490  20.928  0.00  0.00    +0.000 C 
ATOM     25  C   UNL     1      -0.546  10.931  22.322  0.00  0.00    +0.000 C 
ENDBRANCH  15  23
ENDBRANCH  14  18
ENDBRANCH   1  14
TORSDOF 7
ENDMDL
MODEL 8
REMARK VINA RESULT:      -7.3      1.331      2.023
REMARK  Name = 
REMARK  12 active torsions:
REMARK  status: ('A' for Active; 'I' for Inactive)
REMARK    1  A    between atoms: C_1  and  C_2
REMARK    2  A    between atoms: C_2  and  C_3
REMARK    3  A    between atoms: C_2  and  C_4
REMARK    4  A    between atoms: C_2  and  C_5
REMARK    5  A    between atoms: N_8  and  C_9
REMARK    6  A    between atoms: C_9  and  C_10
REMARK    7  A    between atoms: C_10  and  C_11
REMARK    8  A    between atoms: C_11  and  C_12
REMARK    9  A    between atoms: C_11  and  C_13
REMARK   10  A    between atoms: C_11  and  S_17
REMARK   11  A    between atoms: N_15  and  O_16
REMARK   12  A    between atoms: S_17  and  C_18
REMARK                            x       y       z     vdW  Elec       q    Type
REMARK                         _______ _______ _______ _____ _____    ______ ____
ROOT
ATOM      1  C   UNL     1       4.573   6.335  18.717  0.00  0.00    +0.000 C 
ENDROOT
BRANCH   1   2
ATOM      2  C   UNL     1       5.466   5.354  17.905  0.00  0.00    +0.000 C 
ATOM      3  C   UNL     1       5.361   5.623  16.395  0.00  0.00    +0.000 C 
BRANCH   2   4
ATOM      4  C   UNL     1       4.997   3.926  18.201  0.00  0.00    +0.000 C 
ATOM      5  O   UNL     1       4.231   3.305  17.460  0.00  0.00    +0.000 OA
ATOM      6  N   UNL     1       5.431   3.360  19.377  0.00  0.00    +0.000 N 
ATOM      7  H   UNL     1       6.254   3.678  19.895  0.00  0.00    +0.000 HD
BRANCH   6   8
ATOM      8  O   UNL     1       5.008   2.036  19.629  0.00  0.00    +0.000 OA
ATOM      9  H   UNL     1       5.845   1.524  19.583  0.00  0.00    +0.000 HD
ENDBRANCH   6   8
ENDBRANCH   2   4
BRANCH   2  10
ATOM     10  S   UNL     1       7.191   5.488  18.443  0.00  0.00    +0.000 S 
ATOM     11  C   UNL     1       7.781   7.099  17.976  0.00  0.00    +0.000 C 
ATOM     12  O   UNL     1       7.228   5.463  19.894  0.00  0.00    +0.000 OA
ATOM     13  O   UNL     1       7.952   4.503  17.690  0.00  0.00    +0.000 OA
ENDBRANCH   2  10
ENDBRANCH   1   2
BRANCH   1  14
ATOM     14  C   UNL     1       3.074   6.024  18.676  0.00  0.00    +0.000 C 
BRANCH  14  18
ATOM     15  C   UNL     1       0.969   9.445  20.095  0.00  0.00    +0.000 A 
ATOM     16  C   UNL     1       1.132   8.244  20.904  0.00  0.00    +0.000 A 
ATOM     17  C   UNL     1       1.751   7.163  20.414  0.00  0.00    +0.000 A 
ATOM     18  N   UNL     1       2.221   7.122  19.111  0.00  0.00    +0.000 N 
ATOM     19  C   UNL     1       2.086   8.213  18.258  0.00  0.00    +0.000 A 
ATOM     20  O   UNL     1       2.502   8.263  17.103  0.00  0.00    +0.000 OA
ATOM     21  C   UNL     1       1.418   9.408  18.829  0.00  0.00    +0.000 A 
BRANCH  15  23
ATOM     22  C   UNL     1      -0.052  10.399  22.215  0.00  0.00    +0.000 C 
ATOM     23  C   UNL     1       0.318  10.683  20.742  0.00  0.00    +0.000 C 
ATOM     24  C   UNL     1      -0.965  11.091  19.987  0.00  0.00    +0.000 C 
ATOM     25  C   UNL     1       1.271  11.903  20.723  0.00  0.00    +0.000 C 
ENDBRANCH  15  23
ENDBRANCH  14  18
ENDBRANCH   1  14
TORSDOF 7
ENDMDL
MODEL 9
REMARK VINA RESULT:      -7.3      0.905      1.447
REMARK  Name = 
REMARK  12 active torsions:
REMARK  status: ('A' for Active; 'I' for Inactive)
REMARK    1  A    between atoms: C_1  and  C_2
REMARK    2  A    between atoms: C_2  and  C_3
REMARK    3  A    between atoms: C_2  and  C_4
REMARK    4  A    between atoms: C_2  and  C_5
REMARK    5  A    between atoms: N_8  and  C_9
REMARK    6  A    between atoms: C_9  and  C_10
REMARK    7  A    between atoms: C_10  and  C_11
REMARK    8  A    between atoms: C_11  and  C_12
REMARK    9  A    between atoms: C_11  and  C_13
REMARK   10  A    between atoms: C_11  and  S_17
REMARK   11  A    between atoms: N_15  and  O_16
REMARK   12  A    between atoms: S_17  and  C_18
REMARK                            x       y       z     vdW  Elec       q    Type
REMARK                         _______ _______ _______ _____ _____    ______ ____
ROOT
ATOM      1  C   UNL     1       4.429   6.187  17.421  0.00  0.00    +0.000 C 
ENDROOT
BRANCH   1   2
ATOM      2  C   UNL     1       5.301   4.909  17.261  0.00  0.00    +0.000 C 
ATOM      3  C   UNL     1       4.626   3.885  16.333  0.00  0.00    +0.000 C 
BRANCH   2   4
ATOM      4  C   UNL     1       5.495   4.288  18.648  0.00  0.00    +0.000 C 
ATOM      5  O   UNL     1       6.083   4.865  19.565  0.00  0.00    +0.000 OA
ATOM      6  N   UNL     1       5.022   3.009  18.827  0.00  0.00    +0.000 N 
ATOM      7  H   UNL     1       4.307   2.576  18.239  0.00  0.00    +0.000 HD
BRANCH   6   8
ATOM      8  O   UNL     1       5.190   2.454  20.116  0.00  0.00    +0.000 OA
ATOM      9  H   UNL     1       5.738   3.127  20.576  0.00  0.00    +0.000 HD
ENDBRANCH   6   8
ENDBRANCH   2   4
BRANCH   2  10
ATOM     10  S   UNL     1       6.939   5.345  16.621  0.00  0.00    +0.000 S 
ATOM     11  C   UNL     1       6.944   5.012  14.874  0.00  0.00    +0.000 C 
ATOM     12  O   UNL     1       7.119   6.780  16.746  0.00  0.00    +0.000 OA
ATOM     13  O   UNL     1       7.897   4.446  17.246  0.00  0.00    +0.000 OA
ENDBRANCH   2  10
ENDBRANCH   1   2
BRANCH   1  14
ATOM     14  C   UNL     1       3.372   6.110  18.525  0.00  0.00    +0.000 C 
BRANCH  14  18
ATOM     15  C   UNL     1       1.008   9.605  19.119  0.00  0.00    +0.000 A 
ATOM     16  C   UNL     1       1.876   9.443  17.959  0.00  0.00    +0.000 A 
ATOM     17  C   UNL     1       2.650   8.359  17.825  0.00  0.00    +0.000 A 
ATOM     18  N   UNL     1       2.692   7.371  18.795  0.00  0.00    +0.000 N 
ATOM     19  C   UNL     1       1.917   7.454  19.947  0.00  0.00    +0.000 A 
ATOM     20  O   UNL     1       1.879   6.607  20.836  0.00  0.00    +0.000 OA
ATOM     21  C   UNL     1       1.051   8.652  20.065  0.00  0.00    +0.000 A 
BRANCH  15  23
ATOM     22  C   UNL     1      -0.514  11.005  20.592  0.00  0.00    +0.000 C 
ATOM     23  C   UNL     1       0.084  10.837  19.177  0.00  0.00    +0.000 C 
ATOM     24  C   UNL     1      -1.076  10.706  18.170  0.00  0.00    +0.000 C 
ATOM     25  C   UNL     1       0.849  12.139  18.832  0.00  0.00    +0.000 C 
ENDBRANCH  15  23
ENDBRANCH  14  18
ENDBRANCH   1  14
TORSDOF 7
ENDMDL
