MODEL 1
REMARK VINA RESULT:      -8.0      0.000      0.000
REMARK  Name = 
REMARK  7 active torsions:
REMARK  status: ('A' for Active; 'I' for Inactive)
REMARK    1  A    between atoms: C_1  and  C_2
REMARK    2  A    between atoms: N_4  and  C_5
REMARK    3  A    between atoms: C_14  and  C_15
REMARK    4  A    between atoms: C_15  and  C_17
REMARK    5  A    between atoms: C_18  and  N_19
REMARK    6  A    between atoms: N_20  and  C_21
REMARK    7  A    between atoms: N_24  and  C_25
REMARK                            x       y       z     vdW  Elec       q    Type
REMARK                         _______ _______ _______ _____ _____    ______ ____
ROOT
ATOM      1  C   UNL     1       1.710   4.845  21.176  0.00  0.00    +0.000 C 
ATOM      2  C   UNL     1       2.349   5.447  19.983  0.00  0.00    +0.000 A 
ATOM      3  N   UNL     1       3.134   4.701  19.166  0.00  0.00    +0.000 NA
ATOM      4  N   UNL     1       3.644   5.596  18.253  0.00  0.00    +0.000 N 
ATOM      5  C   UNL     1       3.096   6.825  18.451  0.00  0.00    +0.000 A 
ATOM      6  S   UNL     1       3.068   8.286  17.668  0.00  0.00    +0.000 S 
ATOM      7  C   UNL     1       1.929   8.902  18.832  0.00  0.00    +0.000 A 
ATOM      8  C   UNL     1       1.580   7.929  19.781  0.00  0.00    +0.000 A 
ATOM      9  C   UNL     1       2.273   6.749  19.494  0.00  0.00    +0.000 A 
ENDROOT
BRANCH   4  10
ATOM     10  C   UNL     1       4.503   5.229  17.189  0.00  0.00    +0.000 A 
ATOM     11  C   UNL     1       4.780   3.882  16.942  0.00  0.00    +0.000 A 
ATOM     12  C   UNL     1       5.407   3.525  15.742  0.00  0.00    +0.000 A 
ATOM     13  C   UNL     1       5.789   4.509  14.825  0.00  0.00    +0.000 A 
ATOM     14 CL   UNL     1       6.487   4.062  13.319  0.00  0.00    +0.000 Cl
ATOM     15  C   UNL     1       5.592   5.856  15.111  0.00  0.00    +0.000 A 
ATOM     16  C   UNL     1       4.958   6.216  16.297  0.00  0.00    +0.000 A 
ENDBRANCH   4  10
BRANCH   7  17
ATOM     17  C   UNL     1       1.523  10.286  18.622  0.00  0.00    +0.000 C 
ATOM     18  O   UNL     1       2.208  11.053  17.933  0.00  0.00    +0.000 OA
BRANCH  17  19
ATOM     19  C   UNL     1       0.280  10.836  19.256  0.00  0.00    +0.000 A 
ATOM     20  C   UNL     1      -0.878  10.897  18.551  0.00  0.00    +0.000 A 
ATOM     21  N   UNL     1      -2.001  11.462  19.151  0.00  0.00    +0.000 N 
ATOM     22  C   UNL     1      -3.268  11.603  18.441  0.00  0.00    +0.000 C 
ATOM     23  C   UNL     1      -2.042  11.874  20.484  0.00  0.00    +0.000 A 
ATOM     24  O   UNL     1      -3.061  12.340  20.990  0.00  0.00    +0.000 OA
ATOM     25  N   UNL     1      -0.866  11.746  21.195  0.00  0.00    +0.000 N 
ATOM     26  C   UNL     1      -0.822  12.192  22.575  0.00  0.00    +0.000 C 
ATOM     27  C   UNL     1       0.334  11.454  20.596  0.00  0.00    +0.000 A 
ATOM     28  O   UNL     1       1.410  11.711  21.131  0.00  0.00    +0.000 OA
BRANCH  20  29
ATOM     29  N   UNL     1      -0.977  10.406  17.251  0.00  0.00    +0.000 N 
ATOM     30  H   UNL     1      -0.532   9.481  17.148  0.00  0.00    +0.000 HD
ATOM     31  H   UNL     1      -0.558  11.026  16.564  0.00  0.00    +0.000 HD
ENDBRANCH  20  29
ENDBRANCH  17  19
ENDBRANCH   7  17
TORSDOF 4
ENDMDL
MODEL 2
REMARK VINA RESULT:      -7.8      1.792      2.270
REMARK  Name = 
REMARK  7 active torsions:
REMARK  status: ('A' for Active; 'I' for Inactive)
REMARK    1  A    between atoms: C_1  and  C_2
REMARK    2  A    between atoms: N_4  and  C_5
REMARK    3  A    between atoms: C_14  and  C_15
REMARK    4  A    between atoms: C_15  and  C_17
REMARK    5  A    between atoms: C_18  and  N_19
REMARK    6  A    between atoms: N_20  and  C_21
REMARK    7  A    between atoms: N_24  and  C_25
REMARK                            x       y       z     vdW  Elec       q    Type
REMARK                         _______ _______ _______ _____ _____    ______ ____
ROOT
ATOM      1  C   UNL     1       2.261   4.543  21.472  0.00  0.00    +0.000 C 
ATOM      2  C   UNL     1       2.763   5.169  20.227  0.00  0.00    +0.000 A 
ATOM      3  N   UNL     1       3.709   4.555  19.474  0.00  0.00    +0.000 NA
ATOM      4  N   UNL     1       4.014   5.461  18.483  0.00  0.00    +0.000 N 
ATOM      5  C   UNL     1       3.195   6.544  18.575  0.00  0.00    +0.000 A 
ATOM      6  S   UNL     1       2.844   7.885  17.666  0.00  0.00    +0.000 S 
ATOM      7  C   UNL     1       1.578   8.322  18.779  0.00  0.00    +0.000 A 
ATOM      8  C   UNL     1       1.448   7.381  19.812  0.00  0.00    +0.000 A 
ATOM      9  C   UNL     1       2.397   6.371  19.626  0.00  0.00    +0.000 A 
ENDROOT
BRANCH   4  10
ATOM     10  C   UNL     1       4.948   5.210  17.449  0.00  0.00    +0.000 A 
ATOM     11  C   UNL     1       4.640   4.310  16.426  0.00  0.00    +0.000 A 
ATOM     12  C   UNL     1       5.451   4.271  15.286  0.00  0.00    +0.000 A 
ATOM     13  C   UNL     1       6.579   5.092  15.194  0.00  0.00    +0.000 A 
ATOM     14 CL   UNL     1       7.528   5.100  13.760  0.00  0.00    +0.000 Cl
ATOM     15  C   UNL     1       6.935   5.924  16.251  0.00  0.00    +0.000 A 
ATOM     16  C   UNL     1       6.126   5.975  17.382  0.00  0.00    +0.000 A 
ENDBRANCH   4  10
BRANCH   7  17
ATOM     17  C   UNL     1       0.869   9.552  18.451  0.00  0.00    +0.000 C 
ATOM     18  O   UNL     1       0.175   9.634  17.429  0.00  0.00    +0.000 OA
BRANCH  17  19
ATOM     19  C   UNL     1       0.978  10.768  19.321  0.00  0.00    +0.000 A 
ATOM     20  C   UNL     1       1.838  11.767  18.997  0.00  0.00    +0.000 A 
ATOM     21  N   UNL     1       1.955  12.858  19.854  0.00  0.00    +0.000 N 
ATOM     22  C   UNL     1       2.890  13.948  19.595  0.00  0.00    +0.000 C 
ATOM     23  C   UNL     1       1.155  13.046  20.982  0.00  0.00    +0.000 A 
ATOM     24  O   UNL     1       1.264  14.039  21.700  0.00  0.00    +0.000 OA
ATOM     25  N   UNL     1       0.247  12.042  21.257  0.00  0.00    +0.000 N 
ATOM     26  C   UNL     1      -0.589  12.149  22.437  0.00  0.00    +0.000 C 
ATOM     27  C   UNL     1       0.269  10.829  20.616  0.00  0.00    +0.000 A 
ATOM     28  O   UNL     1      -0.255   9.827  21.097  0.00  0.00    +0.000 OA
BRANCH  20  29
ATOM     29  N   UNL     1       2.599  11.734  17.830  0.00  0.00    +0.000 N 
ATOM     30  H   UNL     1       3.083  12.628  17.655  0.00  0.00    +0.000 HD
ATOM     31  H   UNL     1       2.047  11.518  17.006  0.00  0.00    +0.000 HD
ENDBRANCH  20  29
ENDBRANCH  17  19
ENDBRANCH   7  17
TORSDOF 4
ENDMDL
MODEL 3
REMARK VINA RESULT:      -7.7      0.886      2.019
REMARK  Name = 
REMARK  7 active torsions:
REMARK  status: ('A' for Active; 'I' for Inactive)
REMARK    1  A    between atoms: C_1  and  C_2
REMARK    2  A    between atoms: N_4  and  C_5
REMARK    3  A    between atoms: C_14  and  C_15
REMARK    4  A    between atoms: C_15  and  C_17
REMARK    5  A    between atoms: C_18  and  N_19
REMARK    6  A    between atoms: N_20  and  C_21
REMARK    7  A    between atoms: N_24  and  C_25
REMARK                            x       y       z     vdW  Elec       q    Type
REMARK                         _______ _______ _______ _____ _____    ______ ____
ROOT
ATOM      1  C   UNL     1       1.684   5.040  21.144  0.00  0.00    +0.000 C 
ATOM      2  C   UNL     1       2.332   5.601  19.935  0.00  0.00    +0.000 A 
ATOM      3  N   UNL     1       3.111   4.824  19.141  0.00  0.00    +0.000 NA
ATOM      4  N   UNL     1       3.632   5.687  18.205  0.00  0.00    +0.000 N 
ATOM      5  C   UNL     1       3.096   6.927  18.366  0.00  0.00    +0.000 A 
ATOM      6  S   UNL     1       3.084   8.365  17.541  0.00  0.00    +0.000 S 
ATOM      7  C   UNL     1       1.950   9.025  18.685  0.00  0.00    +0.000 A 
ATOM      8  C   UNL     1       1.589   8.084  19.660  0.00  0.00    +0.000 A 
ATOM      9  C   UNL     1       2.270   6.889  19.409  0.00  0.00    +0.000 A 
ENDROOT
BRANCH   4  10
ATOM     10  C   UNL     1       4.489   5.281  17.153  0.00  0.00    +0.000 A 
ATOM     11  C   UNL     1       4.725   3.923  16.924  0.00  0.00    +0.000 A 
ATOM     12  C   UNL     1       5.352   3.533  15.734  0.00  0.00    +0.000 A 
ATOM     13  C   UNL     1       5.775   4.494  14.811  0.00  0.00    +0.000 A 
ATOM     14 CL   UNL     1       6.473   4.008  13.316  0.00  0.00    +0.000 Cl
ATOM     15  C   UNL     1       5.618   5.850  15.080  0.00  0.00    +0.000 A 
ATOM     16  C   UNL     1       4.985   6.243  16.255  0.00  0.00    +0.000 A 
ENDBRANCH   4  10
BRANCH   7  17
ATOM     17  C   UNL     1       1.558  10.407  18.434  0.00  0.00    +0.000 C 
ATOM     18  O   UNL     1       2.319  11.189  17.849  0.00  0.00    +0.000 OA
BRANCH  17  19
ATOM     19  C   UNL     1       0.235  10.936  18.900  0.00  0.00    +0.000 A 
ATOM     20  C   UNL     1       0.144  11.617  20.070  0.00  0.00    +0.000 A 
ATOM     21  N   UNL     1      -1.108  12.049  20.501  0.00  0.00    +0.000 N 
ATOM     22  C   UNL     1      -1.290  12.748  21.770  0.00  0.00    +0.000 C 
ATOM     23  C   UNL     1      -2.274  11.922  19.745  0.00  0.00    +0.000 A 
ATOM     24  O   UNL     1      -3.358  12.344  20.144  0.00  0.00    +0.000 OA
ATOM     25  N   UNL     1      -2.142  11.278  18.531  0.00  0.00    +0.000 N 
ATOM     26  C   UNL     1      -3.320  11.072  17.708  0.00  0.00    +0.000 C 
ATOM     27  C   UNL     1      -1.006  10.596  18.174  0.00  0.00    +0.000 A 
ATOM     28  O   UNL     1      -1.012   9.726  17.306  0.00  0.00    +0.000 OA
BRANCH  20  29
ATOM     29  N   UNL     1       1.265  11.901  20.848  0.00  0.00    +0.000 N 
ATOM     30  H   UNL     1       1.014  12.199  21.802  0.00  0.00    +0.000 HD
ATOM     31  H   UNL     1       1.850  12.626  20.443  0.00  0.00    +0.000 HD
ENDBRANCH  20  29
ENDBRANCH  17  19
ENDBRANCH   7  17
TORSDOF 4
ENDMDL
MODEL 4
REMARK VINA RESULT:      -7.5      2.600      3.859
REMARK  Name = 
REMARK  7 active torsions:
REMARK  status: ('A' for Active; 'I' for Inactive)
REMARK    1  A    between atoms: C_1  and  C_2
REMARK    2  A    between atoms: N_4  and  C_5
REMARK    3  A    between atoms: C_14  and  C_15
REMARK    4  A    between atoms: C_15  and  C_17
REMARK    5  A    between atoms: C_18  and  N_19
REMARK    6  A    between atoms: N_20  and  C_21
REMARK    7  A    between atoms: N_24  and  C_25
REMARK                            x       y       z     vdW  Elec       q    Type
REMARK                         _______ _______ _______ _____ _____    ______ ____
ROOT
ATOM      1  C   UNL     1       1.006   9.227  23.277  0.00  0.00    +0.000 C 
ATOM      2  C   UNL     1       1.051   9.021  21.811  0.00  0.00    +0.000 A 
ATOM      3  N   UNL     1       1.809   8.034  21.272  0.00  0.00    +0.000 NA
ATOM      4  N   UNL     1       1.706   8.213  19.911  0.00  0.00    +0.000 N 
ATOM      5  C   UNL     1       0.824   9.212  19.639  0.00  0.00    +0.000 A 
ATOM      6  S   UNL     1       0.068   9.839  18.303  0.00  0.00    +0.000 S 
ATOM      7  C   UNL     1      -0.870  10.899  19.317  0.00  0.00    +0.000 A 
ATOM      8  C   UNL     1      -0.585  10.703  20.677  0.00  0.00    +0.000 A 
ATOM      9  C   UNL     1       0.386   9.704  20.796  0.00  0.00    +0.000 A 
ENDROOT
BRANCH   4  10
ATOM     10  C   UNL     1       2.330   7.371  18.959  0.00  0.00    +0.000 A 
ATOM     11  C   UNL     1       3.168   7.915  17.982  0.00  0.00    +0.000 A 
ATOM     12  C   UNL     1       3.975   7.059  17.224  0.00  0.00    +0.000 A 
ATOM     13  C   UNL     1       3.909   5.675  17.414  0.00  0.00    +0.000 A 
ATOM     14 CL   UNL     1       4.958   4.632  16.537  0.00  0.00    +0.000 Cl
ATOM     15  C   UNL     1       3.011   5.128  18.324  0.00  0.00    +0.000 A 
ATOM     16  C   UNL     1       2.214   5.976  19.089  0.00  0.00    +0.000 A 
ENDBRANCH   4  10
BRANCH   7  17
ATOM     17  C   UNL     1      -1.787  11.778  18.604  0.00  0.00    +0.000 C 
ATOM     18  O   UNL     1      -1.428  12.382  17.584  0.00  0.00    +0.000 OA
BRANCH  17  19
ATOM     19  C   UNL     1      -3.186  12.006  19.095  0.00  0.00    +0.000 A 
ATOM     20  C   UNL     1      -4.244  11.515  18.401  0.00  0.00    +0.000 A 
ATOM     21  N   UNL     1      -5.531  11.789  18.854  0.00  0.00    +0.000 N 
ATOM     22  C   UNL     1      -6.717  11.333  18.136  0.00  0.00    +0.000 C 
ATOM     23  C   UNL     1      -5.806  12.450  20.053  0.00  0.00    +0.000 A 
ATOM     24  O   UNL     1      -6.957  12.648  20.438  0.00  0.00    +0.000 OA
ATOM     25  N   UNL     1      -4.710  12.888  20.769  0.00  0.00    +0.000 N 
ATOM     26  C   UNL     1      -4.919  13.619  22.004  0.00  0.00    +0.000 C 
ATOM     27  C   UNL     1      -3.439  12.890  20.251  0.00  0.00    +0.000 A 
ATOM     28  O   UNL     1      -2.550  13.607  20.705  0.00  0.00    +0.000 OA
BRANCH  20  29
ATOM     29  N   UNL     1      -4.078  10.741  17.253  0.00  0.00    +0.000 N 
ATOM     30  H   UNL     1      -4.857  10.082  17.111  0.00  0.00    +0.000 HD
ATOM     31  H   UNL     1      -3.218  10.202  17.264  0.00  0.00    +0.000 HD
ENDBRANCH  20  29
ENDBRANCH  17  19
ENDBRANCH   7  17
TORSDOF 4
ENDMDL
MODEL 5
REMARK VINA RESULT:      -7.5      3.689      4.933
REMARK  Name = 
REMARK  7 active torsions:
REMARK  status: ('A' for Active; 'I' for Inactive)
REMARK    1  A    between atoms: C_1  and  C_2
REMARK    2  A    between atoms: N_4  and  C_5
REMARK    3  A    between atoms: C_14  and  C_15
REMARK    4  A    between atoms: C_15  and  C_17
REMARK    5  A    between atoms: C_18  and  N_19
REMARK    6  A    between atoms: N_20  and  C_21
REMARK    7  A    between atoms: N_24  and  C_25
REMARK                            x       y       z     vdW  Elec       q    Type
REMARK                         _______ _______ _______ _____ _____    ______ ____
ROOT
ATOM      1  C   UNL     1      -0.022   9.451  23.441  0.00  0.00    +0.000 C 
ATOM      2  C   UNL     1       0.476   9.326  22.051  0.00  0.00    +0.000 A 
ATOM      3  N   UNL     1       1.026   8.166  21.612  0.00  0.00    +0.000 NA
ATOM      4  N   UNL     1       1.477   8.448  20.343  0.00  0.00    +0.000 N 
ATOM      5  C   UNL     1       1.112   9.710  19.989  0.00  0.00    +0.000 A 
ATOM      6  S   UNL     1       1.121  10.641  18.617  0.00  0.00    +0.000 S 
ATOM      7  C   UNL     1       0.267  11.906  19.455  0.00  0.00    +0.000 A 
ATOM      8  C   UNL     1      -0.030  11.544  20.777  0.00  0.00    +0.000 A 
ATOM      9  C   UNL     1       0.468  10.259  21.017  0.00  0.00    +0.000 A 
ENDROOT
BRANCH   4  10
ATOM     10  C   UNL     1       2.101   7.496  19.501  0.00  0.00    +0.000 A 
ATOM     11  C   UNL     1       2.677   7.896  18.293  0.00  0.00    +0.000 A 
ATOM     12  C   UNL     1       3.511   7.004  17.608  0.00  0.00    +0.000 A 
ATOM     13  C   UNL     1       3.726   5.715  18.106  0.00  0.00    +0.000 A 
ATOM     14 CL   UNL     1       4.812   4.649  17.305  0.00  0.00    +0.000 Cl
ATOM     15  C   UNL     1       3.082   5.288  19.262  0.00  0.00    +0.000 A 
ATOM     16  C   UNL     1       2.262   6.174  19.954  0.00  0.00    +0.000 A 
ENDBRANCH   4  10
BRANCH   7  17
ATOM     17  C   UNL     1      -0.009  13.094  18.657  0.00  0.00    +0.000 C 
ATOM     18  O   UNL     1      -0.841  13.067  17.740  0.00  0.00    +0.000 OA
BRANCH  17  19
ATOM     19  C   UNL     1       0.726  14.379  18.898  0.00  0.00    +0.000 A 
ATOM     20  C   UNL     1       0.052  15.490  19.290  0.00  0.00    +0.000 A 
ATOM     21  N   UNL     1       0.756  16.680  19.453  0.00  0.00    +0.000 N 
ATOM     22  C   UNL     1       0.092  17.925  19.829  0.00  0.00    +0.000 C 
ATOM     23  C   UNL     1       2.144  16.781  19.346  0.00  0.00    +0.000 A 
ATOM     24  O   UNL     1       2.735  17.843  19.528  0.00  0.00    +0.000 OA
ATOM     25  N   UNL     1       2.811  15.621  19.004  0.00  0.00    +0.000 N 
ATOM     26  C   UNL     1       4.251  15.659  18.834  0.00  0.00    +0.000 C 
ATOM     27  C   UNL     1       2.161  14.493  18.568  0.00  0.00    +0.000 A 
ATOM     28  O   UNL     1       2.732  13.623  17.915  0.00  0.00    +0.000 OA
BRANCH  20  29
ATOM     29  N   UNL     1      -1.319  15.471  19.538  0.00  0.00    +0.000 N 
ATOM     30  H   UNL     1      -1.631  16.298  20.069  0.00  0.00    +0.000 HD
ATOM     31  H   UNL     1      -1.614  14.647  20.053  0.00  0.00    +0.000 HD
ENDBRANCH  20  29
ENDBRANCH  17  19
ENDBRANCH   7  17
TORSDOF 4
ENDMDL
MODEL 6
REMARK VINA RESULT:      -7.5      1.763      2.322
REMARK  Name = 
REMARK  7 active torsions:
REMARK  status: ('A' for Active; 'I' for Inactive)
REMARK    1  A    between atoms: C_1  and  C_2
REMARK    2  A    between atoms: N_4  and  C_5
REMARK    3  A    between atoms: C_14  and  C_15
REMARK    4  A    between atoms: C_15  and  C_17
REMARK    5  A    between atoms: C_18  and  N_19
REMARK    6  A    between atoms: N_20  and  C_21
REMARK    7  A    between atoms: N_24  and  C_25
REMARK                            x       y       z     vdW  Elec       q    Type
REMARK                         _______ _______ _______ _____ _____    ______ ____
ROOT
ATOM      1  C   UNL     1       2.372   4.475  21.496  0.00  0.00    +0.000 C 
ATOM      2  C   UNL     1       2.860   5.114  20.252  0.00  0.00    +0.000 A 
ATOM      3  N   UNL     1       3.793   4.504  19.479  0.00  0.00    +0.000 NA
ATOM      4  N   UNL     1       4.089   5.420  18.495  0.00  0.00    +0.000 N 
ATOM      5  C   UNL     1       3.278   6.506  18.611  0.00  0.00    +0.000 A 
ATOM      6  S   UNL     1       2.921   7.860  17.723  0.00  0.00    +0.000 S 
ATOM      7  C   UNL     1       1.673   8.290  18.858  0.00  0.00    +0.000 A 
ATOM      8  C   UNL     1       1.551   7.337  19.881  0.00  0.00    +0.000 A 
ATOM      9  C   UNL     1       2.492   6.325  19.670  0.00  0.00    +0.000 A 
ENDROOT
BRANCH   4  10
ATOM     10  C   UNL     1       5.009   5.177  17.446  0.00  0.00    +0.000 A 
ATOM     11  C   UNL     1       4.672   4.311  16.403  0.00  0.00    +0.000 A 
ATOM     12  C   UNL     1       5.472   4.286  15.254  0.00  0.00    +0.000 A 
ATOM     13  C   UNL     1       6.616   5.085  15.173  0.00  0.00    +0.000 A 
ATOM     14 CL   UNL     1       7.552   5.111  13.730  0.00  0.00    +0.000 Cl
ATOM     15  C   UNL     1       6.999   5.881  16.247  0.00  0.00    +0.000 A 
ATOM     16  C   UNL     1       6.201   5.919  17.386  0.00  0.00    +0.000 A 
ENDBRANCH   4  10
BRANCH   7  17
ATOM     17  C   UNL     1       0.965   9.527  18.553  0.00  0.00    +0.000 C 
ATOM     18  O   UNL     1       0.318   9.650  17.505  0.00  0.00    +0.000 OA
BRANCH  17  19
ATOM     19  C   UNL     1       1.021  10.703  19.483  0.00  0.00    +0.000 A 
ATOM     20  C   UNL     1       0.161  10.792  20.528  0.00  0.00    +0.000 A 
ATOM     21  N   UNL     1       0.204  11.922  21.341  0.00  0.00    +0.000 N 
ATOM     22  C   UNL     1      -0.720  12.108  22.455  0.00  0.00    +0.000 C 
ATOM     23  C   UNL     1       1.160  12.931  21.214  0.00  0.00    +0.000 A 
ATOM     24  O   UNL     1       1.187  13.900  21.970  0.00  0.00    +0.000 OA
ATOM     25  N   UNL     1       2.061  12.786  20.178  0.00  0.00    +0.000 N 
ATOM     26  C   UNL     1       3.058  13.817  19.960  0.00  0.00    +0.000 C 
ATOM     27  C   UNL     1       1.907  11.848  19.188  0.00  0.00    +0.000 A 
ATOM     28  O   UNL     1       2.458  11.956  18.095  0.00  0.00    +0.000 OA
BRANCH  20  29
ATOM     29  N   UNL     1      -0.758   9.783  20.814  0.00  0.00    +0.000 N 
ATOM     30  H   UNL     1      -0.779   9.056  20.084  0.00  0.00    +0.000 HD
ATOM     31  H   UNL     1      -1.704  10.134  20.925  0.00  0.00    +0.000 HD
ENDBRANCH  20  29
ENDBRANCH  17  19
ENDBRANCH   7  17
TORSDOF 4
ENDMDL
MODEL 7
REMARK VINA RESULT:      -7.4      3.705      4.897
REMARK  Name = 
REMARK  7 active torsions:
REMARK  status: ('A' for Active; 'I' for Inactive)
REMARK    1  A    between atoms: C_1  and  C_2
REMARK    2  A    between atoms: N_4  and  C_5
REMARK    3  A    between atoms: C_14  and  C_15
REMARK    4  A    between atoms: C_15  and  C_17
REMARK    5  A    between atoms: C_18  and  N_19
REMARK    6  A    between atoms: N_20  and  C_21
REMARK    7  A    between atoms: N_24  and  C_25
REMARK                            x       y       z     vdW  Elec       q    Type
REMARK                         _______ _______ _______ _____ _____    ______ ____
ROOT
ATOM      1  C   UNL     1      -0.012   9.399  23.467  0.00  0.00    +0.000 C 
ATOM      2  C   UNL     1       0.482   9.241  22.079  0.00  0.00    +0.000 A 
ATOM      3  N   UNL     1       1.011   8.064  21.661  0.00  0.00    +0.000 NA
ATOM      4  N   UNL     1       1.465   8.315  20.386  0.00  0.00    +0.000 N 
ATOM      5  C   UNL     1       1.120   9.576  20.009  0.00  0.00    +0.000 A 
ATOM      6  S   UNL     1       1.142  10.481  18.620  0.00  0.00    +0.000 S 
ATOM      7  C   UNL     1       0.310  11.775  19.436  0.00  0.00    +0.000 A 
ATOM      8  C   UNL     1       0.010  11.442  20.766  0.00  0.00    +0.000 A 
ATOM      9  C   UNL     1       0.487  10.154  21.028  0.00  0.00    +0.000 A 
ENDROOT
BRANCH   4  10
ATOM     10  C   UNL     1       2.072   7.337  19.562  0.00  0.00    +0.000 A 
ATOM     11  C   UNL     1       2.709   7.714  18.377  0.00  0.00    +0.000 A 
ATOM     12  C   UNL     1       3.522   6.786  17.716  0.00  0.00    +0.000 A 
ATOM     13  C   UNL     1       3.658   5.486  18.214  0.00  0.00    +0.000 A 
ATOM     14 CL   UNL     1       4.719   4.373  17.445  0.00  0.00    +0.000 Cl
ATOM     15  C   UNL     1       2.954   5.085  19.345  0.00  0.00    +0.000 A 
ATOM     16  C   UNL     1       2.154   6.008  20.012  0.00  0.00    +0.000 A 
ENDBRANCH   4  10
BRANCH   7  17
ATOM     17  C   UNL     1       0.053  12.952  18.617  0.00  0.00    +0.000 C 
ATOM     18  O   UNL     1      -0.847  12.953  17.767  0.00  0.00    +0.000 OA
BRANCH  17  19
ATOM     19  C   UNL     1       0.887  14.191  18.753  0.00  0.00    +0.000 A 
ATOM     20  C   UNL     1       2.126  14.247  18.202  0.00  0.00    +0.000 A 
ATOM     21  N   UNL     1       2.896  15.391  18.392  0.00  0.00    +0.000 N 
ATOM     22  C   UNL     1       4.253  15.506  17.868  0.00  0.00    +0.000 C 
ATOM     23  C   UNL     1       2.428  16.543  19.027  0.00  0.00    +0.000 A 
ATOM     24  O   UNL     1       3.126  17.548  19.150  0.00  0.00    +0.000 OA
ATOM     25  N   UNL     1       1.142  16.480  19.528  0.00  0.00    +0.000 N 
ATOM     26  C   UNL     1       0.603  17.625  20.237  0.00  0.00    +0.000 C 
ATOM     27  C   UNL     1       0.437  15.306  19.613  0.00  0.00    +0.000 A 
ATOM     28  O   UNL     1      -0.513  15.169  20.380  0.00  0.00    +0.000 OA
BRANCH  20  29
ATOM     29  N   UNL     1       2.645  13.196  17.448  0.00  0.00    +0.000 N 
ATOM     30  H   UNL     1       2.066  12.346  17.513  0.00  0.00    +0.000 HD
ATOM     31  H   UNL     1       3.590  12.946  17.721  0.00  0.00    +0.000 HD
ENDBRANCH  20  29
ENDBRANCH  17  19
ENDBRANCH   7  17
TORSDOF 4
ENDMDL
MODEL 8
REMARK VINA RESULT:      -7.4      3.612      4.890
REMARK  Name = 
REMARK  7 active torsions:
REMARK  status: ('A' for Active; 'I' for Inactive)
REMARK    1  A    between atoms: C_1  and  C_2
REMARK    2  A    between atoms: N_4  and  C_5
REMARK    3  A    between atoms: C_14  and  C_15
REMARK    4  A    between atoms: C_15  and  C_17
REMARK    5  A    between atoms: C_18  and  N_19
REMARK    6  A    between atoms: N_20  and  C_21
REMARK    7  A    between atoms: N_24  and  C_25
REMARK                            x       y       z     vdW  Elec       q    Type
REMARK                         _______ _______ _______ _____ _____    ______ ____
ROOT
ATOM      1  C   UNL     1      -0.063   9.545  23.656  0.00  0.00    +0.000 C 
ATOM      2  C   UNL     1       0.424   9.275  22.283  0.00  0.00    +0.000 A 
ATOM      3  N   UNL     1       0.943   8.065  21.956  0.00  0.00    +0.000 NA
ATOM      4  N   UNL     1       1.394   8.212  20.664  0.00  0.00    +0.000 N 
ATOM      5  C   UNL     1       1.057   9.443  20.191  0.00  0.00    +0.000 A 
ATOM      6  S   UNL     1       1.082  10.236  18.736  0.00  0.00    +0.000 S 
ATOM      7  C   UNL     1       0.264  11.597  19.451  0.00  0.00    +0.000 A 
ATOM      8  C   UNL     1      -0.034  11.371  20.803  0.00  0.00    +0.000 A 
ATOM      9  C   UNL     1       0.433  10.103  21.163  0.00  0.00    +0.000 A 
ENDROOT
BRANCH   4  10
ATOM     10  C   UNL     1       1.990   7.167  19.916  0.00  0.00    +0.000 A 
ATOM     11  C   UNL     1       1.836   5.839  20.320  0.00  0.00    +0.000 A 
ATOM     12  C   UNL     1       2.200   4.814  19.438  0.00  0.00    +0.000 A 
ATOM     13  C   UNL     1       2.751   5.118  18.190  0.00  0.00    +0.000 A 
ATOM     14 CL   UNL     1       3.124   3.860  17.079  0.00  0.00    +0.000 Cl
ATOM     15  C   UNL     1       2.985   6.440  17.825  0.00  0.00    +0.000 A 
ATOM     16  C   UNL     1       2.614   7.463  18.692  0.00  0.00    +0.000 A 
ENDBRANCH   4  10
BRANCH   7  17
ATOM     17  C   UNL     1       0.013  12.709  18.543  0.00  0.00    +0.000 C 
ATOM     18  O   UNL     1      -0.856  12.631  17.664  0.00  0.00    +0.000 OA
BRANCH  17  19
ATOM     19  C   UNL     1       0.817  13.972  18.621  0.00  0.00    +0.000 A 
ATOM     20  C   UNL     1       0.226  15.140  18.980  0.00  0.00    +0.000 A 
ATOM     21  N   UNL     1       0.989  16.304  18.991  0.00  0.00    +0.000 N 
ATOM     22  C   UNL     1       0.412  17.603  19.322  0.00  0.00    +0.000 C 
ATOM     23  C   UNL     1       2.366  16.331  18.762  0.00  0.00    +0.000 A 
ATOM     24  O   UNL     1       3.014  17.375  18.812  0.00  0.00    +0.000 OA
ATOM     25  N   UNL     1       2.953  15.119  18.458  0.00  0.00    +0.000 N 
ATOM     26  C   UNL     1       4.374  15.076  18.167  0.00  0.00    +0.000 C 
ATOM     27  C   UNL     1       2.223  13.994  18.166  0.00  0.00    +0.000 A 
ATOM     28  O   UNL     1       2.699  13.051  17.538  0.00  0.00    +0.000 OA
BRANCH  20  29
ATOM     29  N   UNL     1      -1.119  15.204  19.341  0.00  0.00    +0.000 N 
ATOM     30  H   UNL     1      -1.424  16.169  19.537  0.00  0.00    +0.000 HD
ATOM     31  H   UNL     1      -1.333  14.642  20.159  0.00  0.00    +0.000 HD
ENDBRANCH  20  29
ENDBRANCH  17  19
ENDBRANCH   7  17
TORSDOF 4
ENDMDL
MODEL 9
REMARK VINA RESULT:      -7.3      3.665      4.847
REMARK  Name = 
REMARK  7 active torsions:
REMARK  status: ('A' for Active; 'I' for Inactive)
REMARK    1  A    between atoms: C_1  and  C_2
REMARK    2  A    between atoms: N_4  and  C_5
REMARK    3  A    between atoms: C_14  and  C_15
REMARK    4  A    between atoms: C_15  and  C_17
REMARK    5  A    between atoms: C_18  and  N_19
REMARK    6  A    between atoms: N_20  and  C_21
REMARK    7  A    between atoms: N_24  and  C_25
REMARK                            x       y       z     vdW  Elec       q    Type
REMARK                         _______ _______ _______ _____ _____    ______ ____
ROOT
ATOM      1  C   UNL     1      -0.054   9.569  23.644  0.00  0.00    +0.000 C 
ATOM      2  C   UNL     1       0.433   9.302  22.271  0.00  0.00    +0.000 A 
ATOM      3  N   UNL     1       0.972   8.100  21.947  0.00  0.00    +0.000 NA
ATOM      4  N   UNL     1       1.416   8.249  20.653  0.00  0.00    +0.000 N 
ATOM      5  C   UNL     1       1.056   9.472  20.176  0.00  0.00    +0.000 A 
ATOM      6  S   UNL     1       1.062  10.260  18.718  0.00  0.00    +0.000 S 
ATOM      7  C   UNL     1       0.222  11.608  19.430  0.00  0.00    +0.000 A 
ATOM      8  C   UNL     1      -0.067  11.383  20.784  0.00  0.00    +0.000 A 
ATOM      9  C   UNL     1       0.424  10.125  21.148  0.00  0.00    +0.000 A 
ENDROOT
BRANCH   4  10
ATOM     10  C   UNL     1       2.028   7.212  19.908  0.00  0.00    +0.000 A 
ATOM     11  C   UNL     1       1.907   5.884  20.322  0.00  0.00    +0.000 A 
ATOM     12  C   UNL     1       2.286   4.860  19.445  0.00  0.00    +0.000 A 
ATOM     13  C   UNL     1       2.819   5.168  18.189  0.00  0.00    +0.000 A 
ATOM     14 CL   UNL     1       3.209   3.909  17.084  0.00  0.00    +0.000 Cl
ATOM     15  C   UNL     1       3.021   6.491  17.812  0.00  0.00    +0.000 A 
ATOM     16  C   UNL     1       2.635   7.513  18.676  0.00  0.00    +0.000 A 
ENDBRANCH   4  10
BRANCH   7  17
ATOM     17  C   UNL     1      -0.051  12.712  18.518  0.00  0.00    +0.000 C 
ATOM     18  O   UNL     1      -0.918  12.614  17.639  0.00  0.00    +0.000 OA
BRANCH  17  19
ATOM     19  C   UNL     1       0.726  13.993  18.593  0.00  0.00    +0.000 A 
ATOM     20  C   UNL     1       1.981  14.063  18.080  0.00  0.00    +0.000 A 
ATOM     21  N   UNL     1       2.696  15.250  18.213  0.00  0.00    +0.000 N 
ATOM     22  C   UNL     1       4.065  15.386  17.727  0.00  0.00    +0.000 C 
ATOM     23  C   UNL     1       2.159  16.422  18.748  0.00  0.00    +0.000 A 
ATOM     24  O   UNL     1       2.811  17.462  18.821  0.00  0.00    +0.000 OA
ATOM     25  N   UNL     1       0.860  16.339  19.210  0.00  0.00    +0.000 N 
ATOM     26  C   UNL     1       0.250  17.506  19.817  0.00  0.00    +0.000 C 
ATOM     27  C   UNL     1       0.201  15.144  19.355  0.00  0.00    +0.000 A 
ATOM     28  O   UNL     1      -0.769  15.020  20.099  0.00  0.00    +0.000 OA
BRANCH  20  29
ATOM     29  N   UNL     1       2.569  12.985  17.420  0.00  0.00    +0.000 N 
ATOM     30  H   UNL     1       2.357  12.086  17.877  0.00  0.00    +0.000 HD
ATOM     31  H   UNL     1       3.578  13.067  17.356  0.00  0.00    +0.000 HD
ENDBRANCH  20  29
ENDBRANCH  17  19
ENDBRANCH   7  17
TORSDOF 4
ENDMDL
