MODEL 1
REMARK VINA RESULT:      -6.2      0.000      0.000
REMARK  Name = 
REMARK  3 active torsions:
REMARK  status: ('A' for Active; 'I' for Inactive)
REMARK    1  A    between atoms: C_2  and  C_3
REMARK    2  A    between atoms: C_2  and  C_11
REMARK    3  A    between atoms: C_3  and  N_4
REMARK                            x       y       z     vdW  Elec       q    Type
REMARK                         _______ _______ _______ _____ _____    ______ ____
ROOT
ATOM      1  O   UNL     1       5.619   3.563  19.324  0.00  0.00    +0.000 OA
ATOM      2  C   UNL     1       5.310   4.342  18.421  0.00  0.00    +0.000 C 
ENDROOT
BRANCH   2   3
ATOM      3  C   UNL     1       6.178   5.538  18.197  0.00  0.00    +0.000 A 
ATOM      4  C   UNL     1       5.900   6.534  17.257  0.00  0.00    +0.000 A 
ATOM      5  C   UNL     1       6.767   7.624  17.115  0.00  0.00    +0.000 A 
ATOM      6  C   UNL     1       7.910   7.725  17.907  0.00  0.00    +0.000 A 
ATOM      7  C   UNL     1       8.195   6.737  18.843  0.00  0.00    +0.000 A 
ATOM      8  C   UNL     1       7.334   5.648  18.987  0.00  0.00    +0.000 A 
ENDBRANCH   2   3
BRANCH   2   9
ATOM      9  C   UNL     1       4.017   4.150  17.638  0.00  0.00    +0.000 C 
BRANCH   9  10
ATOM     10  N   UNL     1       2.920   3.874  18.567  0.00  0.00    +0.000 N 
ATOM     11  C   UNL     1       2.506   2.564  18.709  0.00  0.00    +0.000 C 
ATOM     12  O   UNL     1       3.009   1.608  18.126  0.00  0.00    +0.000 OA
ATOM     13  C   UNL     1       1.356   2.415  19.664  0.00  0.00    +0.000 C 
ATOM     14  S   UNL     1       1.064   4.050  20.349  0.00  0.00    +0.000 S 
ATOM     15  C   UNL     1       2.276   4.818  19.335  0.00  0.00    +0.000 C 
ATOM     16  S   UNL     1       2.543   6.462  19.410  0.00  0.00    +0.000 S 
ENDBRANCH   9  10
ENDBRANCH   2   9
TORSDOF 3
ENDMDL
MODEL 2
REMARK VINA RESULT:      -6.1      0.259      1.233
REMARK  Name = 
REMARK  3 active torsions:
REMARK  status: ('A' for Active; 'I' for Inactive)
REMARK    1  A    between atoms: C_2  and  C_3
REMARK    2  A    between atoms: C_2  and  C_11
REMARK    3  A    between atoms: C_3  and  N_4
REMARK                            x       y       z     vdW  Elec       q    Type
REMARK                         _______ _______ _______ _____ _____    ______ ____
ROOT
ATOM      1  O   UNL     1       5.431   3.374  19.097  0.00  0.00    +0.000 OA
ATOM      2  C   UNL     1       5.186   4.293  18.314  0.00  0.00    +0.000 C 
ENDROOT
BRANCH   2   3
ATOM      3  C   UNL     1       6.159   5.424  18.229  0.00  0.00    +0.000 A 
ATOM      4  C   UNL     1       7.281   5.546  19.053  0.00  0.00    +0.000 A 
ATOM      5  C   UNL     1       8.144   6.638  18.904  0.00  0.00    +0.000 A 
ATOM      6  C   UNL     1       7.892   7.610  17.935  0.00  0.00    +0.000 A 
ATOM      7  C   UNL     1       6.776   7.496  17.113  0.00  0.00    +0.000 A 
ATOM      8  C   UNL     1       5.913   6.410  17.260  0.00  0.00    +0.000 A 
ENDBRANCH   2   3
BRANCH   2   9
ATOM      9  C   UNL     1       3.870   4.329  17.546  0.00  0.00    +0.000 C 
BRANCH   9  10
ATOM     10  N   UNL     1       2.770   3.974  18.444  0.00  0.00    +0.000 N 
ATOM     11  C   UNL     1       2.291   2.678  18.400  0.00  0.00    +0.000 C 
ATOM     12  O   UNL     1       2.738   1.795  17.675  0.00  0.00    +0.000 OA
ATOM     13  C   UNL     1       1.145   2.448  19.345  0.00  0.00    +0.000 C 
ATOM     14  S   UNL     1       0.945   3.977  20.266  0.00  0.00    +0.000 S 
ATOM     15  C   UNL     1       2.183   4.826  19.353  0.00  0.00    +0.000 C 
ATOM     16  S   UNL     1       2.536   6.425  19.662  0.00  0.00    +0.000 S 
ENDBRANCH   9  10
ENDBRANCH   2   9
TORSDOF 3
ENDMDL
MODEL 3
REMARK VINA RESULT:      -6.0      2.689      5.877
REMARK  Name = 
REMARK  3 active torsions:
REMARK  status: ('A' for Active; 'I' for Inactive)
REMARK    1  A    between atoms: C_2  and  C_3
REMARK    2  A    between atoms: C_2  and  C_11
REMARK    3  A    between atoms: C_3  and  N_4
REMARK                            x       y       z     vdW  Elec       q    Type
REMARK                         _______ _______ _______ _____ _____    ______ ____
ROOT
ATOM      1  O   UNL     1       4.115   5.951  19.742  0.00  0.00    +0.000 OA
ATOM      2  C   UNL     1       4.234   4.858  19.187  0.00  0.00    +0.000 C 
ENDROOT
BRANCH   2   3
ATOM      3  C   UNL     1       3.035   3.967  19.120  0.00  0.00    +0.000 A 
ATOM      4  C   UNL     1       1.944   4.067  19.988  0.00  0.00    +0.000 A 
ATOM      5  C   UNL     1       0.860   3.193  19.852  0.00  0.00    +0.000 A 
ATOM      6  C   UNL     1       0.859   2.218  18.854  0.00  0.00    +0.000 A 
ATOM      7  C   UNL     1       1.942   2.111  17.989  0.00  0.00    +0.000 A 
ATOM      8  C   UNL     1       3.026   2.980  18.122  0.00  0.00    +0.000 A 
ENDBRANCH   2   3
BRANCH   2   9
ATOM      9  C   UNL     1       5.594   4.383  18.692  0.00  0.00    +0.000 C 
BRANCH   9  10
ATOM     10  N   UNL     1       6.426   5.542  18.362  0.00  0.00    +0.000 N 
ATOM     11  C   UNL     1       7.449   5.872  19.230  0.00  0.00    +0.000 C 
ATOM     12  O   UNL     1       7.725   5.248  20.251  0.00  0.00    +0.000 OA
ATOM     13  C   UNL     1       8.209   7.095  18.799  0.00  0.00    +0.000 C 
ATOM     14  S   UNL     1       7.526   7.567  17.205  0.00  0.00    +0.000 S 
ATOM     15  C   UNL     1       6.286   6.322  17.236  0.00  0.00    +0.000 C 
ATOM     16  S   UNL     1       5.177   6.182  16.000  0.00  0.00    +0.000 S 
ENDBRANCH   9  10
ENDBRANCH   2   9
TORSDOF 3
ENDMDL
MODEL 4
REMARK VINA RESULT:      -6.0      2.853      5.598
REMARK  Name = 
REMARK  3 active torsions:
REMARK  status: ('A' for Active; 'I' for Inactive)
REMARK    1  A    between atoms: C_2  and  C_3
REMARK    2  A    between atoms: C_2  and  C_11
REMARK    3  A    between atoms: C_3  and  N_4
REMARK                            x       y       z     vdW  Elec       q    Type
REMARK                         _______ _______ _______ _____ _____    ______ ____
ROOT
ATOM      1  O   UNL     1       2.632   2.846  16.720  0.00  0.00    +0.000 OA
ATOM      2  C   UNL     1       2.932   3.664  17.590  0.00  0.00    +0.000 C 
ENDROOT
BRANCH   2   3
ATOM      3  C   UNL     1       2.560   3.354  19.005  0.00  0.00    +0.000 A 
ATOM      4  C   UNL     1       3.354   2.594  19.868  0.00  0.00    +0.000 A 
ATOM      5  C   UNL     1       2.930   2.354  21.179  0.00  0.00    +0.000 A 
ATOM      6  C   UNL     1       1.717   2.869  21.635  0.00  0.00    +0.000 A 
ATOM      7  C   UNL     1       0.920   3.624  20.782  0.00  0.00    +0.000 A 
ATOM      8  C   UNL     1       1.338   3.864  19.472  0.00  0.00    +0.000 A 
ENDBRANCH   2   3
BRANCH   2   9
ATOM      9  C   UNL     1       3.554   5.003  17.217  0.00  0.00    +0.000 C 
BRANCH   9  10
ATOM     10  N   UNL     1       4.969   5.007  17.595  0.00  0.00    +0.000 N 
ATOM     11  C   UNL     1       5.302   5.474  18.852  0.00  0.00    +0.000 C 
ATOM     12  O   UNL     1       4.491   5.866  19.686  0.00  0.00    +0.000 OA
ATOM     13  C   UNL     1       6.782   5.456  19.108  0.00  0.00    +0.000 C 
ATOM     14  S   UNL     1       7.527   4.689  17.665  0.00  0.00    +0.000 S 
ATOM     15  C   UNL     1       6.002   4.559  16.802  0.00  0.00    +0.000 C 
ATOM     16  S   UNL     1       5.936   3.928  15.261  0.00  0.00    +0.000 S 
ENDBRANCH   9  10
ENDBRANCH   2   9
TORSDOF 3
ENDMDL
MODEL 5
REMARK VINA RESULT:      -6.0      2.196      5.245
REMARK  Name = 
REMARK  3 active torsions:
REMARK  status: ('A' for Active; 'I' for Inactive)
REMARK    1  A    between atoms: C_2  and  C_3
REMARK    2  A    between atoms: C_2  and  C_11
REMARK    3  A    between atoms: C_3  and  N_4
REMARK                            x       y       z     vdW  Elec       q    Type
REMARK                         _______ _______ _______ _____ _____    ______ ____
ROOT
ATOM      1  O   UNL     1       4.085   1.558  17.671  0.00  0.00    +0.000 OA
ATOM      2  C   UNL     1       3.477   2.618  17.827  0.00  0.00    +0.000 C 
ENDROOT
BRANCH   2   3
ATOM      3  C   UNL     1       2.681   2.794  19.080  0.00  0.00    +0.000 A 
ATOM      4  C   UNL     1       1.329   3.147  19.098  0.00  0.00    +0.000 A 
ATOM      5  C   UNL     1       0.658   3.288  20.318  0.00  0.00    +0.000 A 
ATOM      6  C   UNL     1       1.331   3.079  21.522  0.00  0.00    +0.000 A 
ATOM      7  C   UNL     1       2.677   2.731  21.513  0.00  0.00    +0.000 A 
ATOM      8  C   UNL     1       3.350   2.591  20.298  0.00  0.00    +0.000 A 
ENDBRANCH   2   3
BRANCH   2   9
ATOM      9  C   UNL     1       3.443   3.665  16.721  0.00  0.00    +0.000 C 
BRANCH   9  10
ATOM     10  N   UNL     1       4.564   4.591  16.890  0.00  0.00    +0.000 N 
ATOM     11  C   UNL     1       5.748   4.301  16.239  0.00  0.00    +0.000 C 
ATOM     12  O   UNL     1       5.920   3.329  15.508  0.00  0.00    +0.000 OA
ATOM     13  C   UNL     1       6.829   5.307  16.516  0.00  0.00    +0.000 C 
ATOM     14  S   UNL     1       6.068   6.590  17.518  0.00  0.00    +0.000 S 
ATOM     15  C   UNL     1       4.529   5.750  17.633  0.00  0.00    +0.000 C 
ATOM     16  S   UNL     1       3.266   6.386  18.514  0.00  0.00    +0.000 S 
ENDBRANCH   9  10
ENDBRANCH   2   9
TORSDOF 3
ENDMDL
MODEL 6
REMARK VINA RESULT:      -5.9      2.374      3.116
REMARK  Name = 
REMARK  3 active torsions:
REMARK  status: ('A' for Active; 'I' for Inactive)
REMARK    1  A    between atoms: C_2  and  C_3
REMARK    2  A    between atoms: C_2  and  C_11
REMARK    3  A    between atoms: C_3  and  N_4
REMARK                            x       y       z     vdW  Elec       q    Type
REMARK                         _______ _______ _______ _____ _____    ______ ____
ROOT
ATOM      1  O   UNL     1       6.689   5.073  19.517  0.00  0.00    +0.000 OA
ATOM      2  C   UNL     1       5.625   5.120  18.897  0.00  0.00    +0.000 C 
ENDROOT
BRANCH   2   3
ATOM      3  C   UNL     1       5.678   5.059  17.405  0.00  0.00    +0.000 A 
ATOM      4  C   UNL     1       6.017   3.910  16.686  0.00  0.00    +0.000 A 
ATOM      5  C   UNL     1       6.039   3.940  15.287  0.00  0.00    +0.000 A 
ATOM      6  C   UNL     1       5.725   5.113  14.601  0.00  0.00    +0.000 A 
ATOM      7  C   UNL     1       5.389   6.261  15.309  0.00  0.00    +0.000 A 
ATOM      8  C   UNL     1       5.368   6.236  16.704  0.00  0.00    +0.000 A 
ENDBRANCH   2   3
BRANCH   2   9
ATOM      9  C   UNL     1       4.309   5.355  19.628  0.00  0.00    +0.000 C 
BRANCH   9  10
ATOM     10  N   UNL     1       3.294   4.434  19.114  0.00  0.00    +0.000 N 
ATOM     11  C   UNL     1       2.276   4.958  18.340  0.00  0.00    +0.000 C 
ATOM     12  O   UNL     1       2.175   6.143  18.033  0.00  0.00    +0.000 OA
ATOM     13  C   UNL     1       1.283   3.920  17.901  0.00  0.00    +0.000 C 
ATOM     14  S   UNL     1       1.922   2.344  18.481  0.00  0.00    +0.000 S 
ATOM     15  C   UNL     1       3.282   3.073  19.322  0.00  0.00    +0.000 C 
ATOM     16  S   UNL     1       4.360   2.139  20.184  0.00  0.00    +0.000 S 
ENDBRANCH   9  10
ENDBRANCH   2   9
TORSDOF 3
ENDMDL
MODEL 7
REMARK VINA RESULT:      -5.9      2.581      3.188
REMARK  Name = 
REMARK  3 active torsions:
REMARK  status: ('A' for Active; 'I' for Inactive)
REMARK    1  A    between atoms: C_2  and  C_3
REMARK    2  A    between atoms: C_2  and  C_11
REMARK    3  A    between atoms: C_3  and  N_4
REMARK                            x       y       z     vdW  Elec       q    Type
REMARK                         _______ _______ _______ _____ _____    ______ ____
ROOT
ATOM      1  O   UNL     1       3.384   7.368  17.961  0.00  0.00    +0.000 OA
ATOM      2  C   UNL     1       3.512   6.145  17.898  0.00  0.00    +0.000 C 
ENDROOT
BRANCH   2   3
ATOM      3  C   UNL     1       4.864   5.594  17.576  0.00  0.00    +0.000 A 
ATOM      4  C   UNL     1       5.929   5.570  18.480  0.00  0.00    +0.000 A 
ATOM      5  C   UNL     1       7.162   5.033  18.096  0.00  0.00    +0.000 A 
ATOM      6  C   UNL     1       7.339   4.519  16.812  0.00  0.00    +0.000 A 
ATOM      7  C   UNL     1       6.286   4.542  15.905  0.00  0.00    +0.000 A 
ATOM      8  C   UNL     1       5.054   5.078  16.283  0.00  0.00    +0.000 A 
ENDBRANCH   2   3
BRANCH   2   9
ATOM      9  C   UNL     1       2.301   5.230  18.026  0.00  0.00    +0.000 C 
BRANCH   9  10
ATOM     10  N   UNL     1       2.428   4.417  19.237  0.00  0.00    +0.000 N 
ATOM     11  C   UNL     1       2.078   4.993  20.443  0.00  0.00    +0.000 C 
ATOM     12  O   UNL     1       1.645   6.135  20.569  0.00  0.00    +0.000 OA
ATOM     13  C   UNL     1       2.282   4.071  21.612  0.00  0.00    +0.000 C 
ATOM     14  S   UNL     1       2.798   2.497  20.918  0.00  0.00    +0.000 S 
ATOM     15  C   UNL     1       2.850   3.107  19.271  0.00  0.00    +0.000 C 
ATOM     16  S   UNL     1       3.323   2.130  18.006  0.00  0.00    +0.000 S 
ENDBRANCH   9  10
ENDBRANCH   2   9
TORSDOF 3
ENDMDL
MODEL 8
REMARK VINA RESULT:      -5.9      2.986      5.351
REMARK  Name = 
REMARK  3 active torsions:
REMARK  status: ('A' for Active; 'I' for Inactive)
REMARK    1  A    between atoms: C_2  and  C_3
REMARK    2  A    between atoms: C_2  and  C_11
REMARK    3  A    between atoms: C_3  and  N_4
REMARK                            x       y       z     vdW  Elec       q    Type
REMARK                         _______ _______ _______ _____ _____    ______ ____
ROOT
ATOM      1  O   UNL     1       5.636   3.914  19.535  0.00  0.00    +0.000 OA
ATOM      2  C   UNL     1       4.586   4.499  19.268  0.00  0.00    +0.000 C 
ENDROOT
BRANCH   2   3
ATOM      3  C   UNL     1       3.324   4.004  19.900  0.00  0.00    +0.000 A 
ATOM      4  C   UNL     1       2.059   4.530  19.625  0.00  0.00    +0.000 A 
ATOM      5  C   UNL     1       0.929   4.003  20.261  0.00  0.00    +0.000 A 
ATOM      6  C   UNL     1       1.055   2.955  21.171  0.00  0.00    +0.000 A 
ATOM      7  C   UNL     1       2.311   2.429  21.453  0.00  0.00    +0.000 A 
ATOM      8  C   UNL     1       3.441   2.952  20.822  0.00  0.00    +0.000 A 
ENDBRANCH   2   3
BRANCH   2   9
ATOM      9  C   UNL     1       4.560   5.616  18.232  0.00  0.00    +0.000 C 
BRANCH   9  10
ATOM     10  N   UNL     1       5.352   5.219  17.066  0.00  0.00    +0.000 N 
ATOM     11  C   UNL     1       4.840   4.237  16.239  0.00  0.00    +0.000 C 
ATOM     12  O   UNL     1       3.754   3.687  16.401  0.00  0.00    +0.000 OA
ATOM     13  C   UNL     1       5.758   3.897  15.099  0.00  0.00    +0.000 C 
ATOM     14  S   UNL     1       7.139   5.041  15.215  0.00  0.00    +0.000 S 
ATOM     15  C   UNL     1       6.565   5.764  16.710  0.00  0.00    +0.000 C 
ATOM     16  S   UNL     1       7.435   6.962  17.476  0.00  0.00    +0.000 S 
ENDBRANCH   9  10
ENDBRANCH   2   9
TORSDOF 3
ENDMDL
MODEL 9
REMARK VINA RESULT:      -5.9      2.204      5.348
REMARK  Name = 
REMARK  3 active torsions:
REMARK  status: ('A' for Active; 'I' for Inactive)
REMARK    1  A    between atoms: C_2  and  C_3
REMARK    2  A    between atoms: C_2  and  C_11
REMARK    3  A    between atoms: C_3  and  N_4
REMARK                            x       y       z     vdW  Elec       q    Type
REMARK                         _______ _______ _______ _____ _____    ______ ____
ROOT
ATOM      1  O   UNL     1       5.329   2.712  19.654  0.00  0.00    +0.000 OA
ATOM      2  C   UNL     1       4.673   3.755  19.654  0.00  0.00    +0.000 C 
ENDROOT
BRANCH   2   3
ATOM      3  C   UNL     1       3.182   3.647  19.642  0.00  0.00    +0.000 A 
ATOM      4  C   UNL     1       2.351   4.261  20.583  0.00  0.00    +0.000 A 
ATOM      5  C   UNL     1       0.963   4.110  20.495  0.00  0.00    +0.000 A 
ATOM      6  C   UNL     1       0.398   3.349  19.472  0.00  0.00    +0.000 A 
ATOM      7  C   UNL     1       1.218   2.733  18.533  0.00  0.00    +0.000 A 
ATOM      8  C   UNL     1       2.603   2.879  18.618  0.00  0.00    +0.000 A 
ENDBRANCH   2   3
BRANCH   2   9
ATOM      9  C   UNL     1       5.365   5.108  19.548  0.00  0.00    +0.000 C 
BRANCH   9  10
ATOM     10  N   UNL     1       5.561   5.447  18.137  0.00  0.00    +0.000 N 
ATOM     11  C   UNL     1       6.727   5.026  17.526  0.00  0.00    +0.000 C 
ATOM     12  O   UNL     1       7.603   4.366  18.078  0.00  0.00    +0.000 OA
ATOM     13  C   UNL     1       6.824   5.462  16.091  0.00  0.00    +0.000 C 
ATOM     14  S   UNL     1       5.267   6.275  15.713  0.00  0.00    +0.000 S 
ATOM     15  C   UNL     1       4.661   6.138  17.356  0.00  0.00    +0.000 C 
ATOM     16  S   UNL     1       3.175   6.761  17.780  0.00  0.00    +0.000 S 
ENDBRANCH   9  10
ENDBRANCH   2   9
TORSDOF 3
ENDMDL
