MODEL 1
REMARK VINA RESULT:      -7.6      0.000      0.000
REMARK  Name = 
REMARK  9 active torsions:
REMARK  status: ('A' for Active; 'I' for Inactive)
REMARK    1  A    between atoms: C_1  and  O_2
REMARK    2  A    between atoms: O_2  and  C_3
REMARK    3  A    between atoms: C_6  and  N_7
REMARK    4  A    between atoms: C_17  and  C_18
REMARK    5  A    between atoms: C_21  and  O_22
REMARK    6  A    between atoms: O_22  and  C_23
REMARK    7  A    between atoms: C_24  and  C_25
REMARK    8  A    between atoms: C_25  and  N_26
REMARK    9  A    between atoms: C_28  and  N_29
REMARK                            x       y       z     vdW  Elec       q    Type
REMARK                         _______ _______ _______ _____ _____    ______ ____
ROOT
ATOM      1  N   UNL     1      -0.735  13.544  20.988  0.00  0.00    +0.000 N 
ATOM      2  C   UNL     1       0.356  14.297  21.501  0.00  0.00    +0.000 C 
ATOM      3  O   UNL     1       0.701  14.397  22.673  0.00  0.00    +0.000 OA
ATOM      4  C   UNL     1       1.128  15.092  20.498  0.00  0.00    +0.000 A 
ATOM      5  C   UNL     1       2.325  15.723  20.838  0.00  0.00    +0.000 A 
ATOM      6  C   UNL     1       2.967  16.528  19.897  0.00  0.00    +0.000 A 
ATOM      7  C   UNL     1       2.388  16.734  18.642  0.00  0.00    +0.000 A 
ATOM      8  C   UNL     1       1.192  16.096  18.301  0.00  0.00    +0.000 A 
ATOM      9  C   UNL     1       0.593  15.225  19.206  0.00  0.00    +0.000 A 
ATOM     10  N   UNL     1      -0.577  14.509  18.842  0.00  0.00    +0.000 N 
ATOM     11  C   UNL     1      -0.557  13.238  19.577  0.00  0.00    +0.000 C 
ATOM     12  H   UNL     1      -1.392  15.041  19.144  0.00  0.00    +0.000 HD
ENDROOT
BRANCH   1  16
ATOM     13  C   UNL     1      -4.047  12.563  23.580  0.00  0.00    +0.000 A 
ATOM     14  C   UNL     1      -2.839  11.892  23.688  0.00  0.00    +0.000 A 
ATOM     15  C   UNL     1      -1.775  12.194  22.817  0.00  0.00    +0.000 A 
ATOM     16  C   UNL     1      -1.871  13.171  21.809  0.00  0.00    +0.000 A 
ATOM     17  C   UNL     1      -3.124  13.787  21.703  0.00  0.00    +0.000 A 
ATOM     18  C   UNL     1      -4.201  13.475  22.549  0.00  0.00    +0.000 A 
BRANCH  13  20
ATOM     19  C   UNL     1      -6.329  12.650  24.107  0.00  0.00    +0.000 C 
ATOM     20  O   UNL     1      -5.011  12.265  24.500  0.00  0.00    +0.000 OA
ENDBRANCH  13  20
ENDBRANCH   1  16
BRANCH  11  21
ATOM     21  C   UNL     1      -1.311  12.149  18.839  0.00  0.00    +0.000 A 
ATOM     22  C   UNL     1      -0.636  10.966  18.501  0.00  0.00    +0.000 A 
ATOM     23  C   UNL     1      -1.225  10.027  17.659  0.00  0.00    +0.000 A 
ATOM     24  C   UNL     1      -2.488  10.263  17.109  0.00  0.00    +0.000 A 
ATOM     25  C   UNL     1      -3.220  11.396  17.498  0.00  0.00    +0.000 A 
ATOM     26  C   UNL     1      -2.624  12.325  18.370  0.00  0.00    +0.000 A 
BRANCH  24  27
ATOM     27  O   UNL     1      -3.062   9.431  16.181  0.00  0.00    +0.000 OA
ATOM     28  C   UNL     1      -2.876   9.837  14.823  0.00  0.00    +0.000 C 
ENDBRANCH  24  27
BRANCH  25  29
ATOM     29  C   UNL     1      -4.575  11.726  16.914  0.00  0.00    +0.000 C 
BRANCH  29  30
ATOM     30  N   UNL     1      -5.633  11.508  17.897  0.00  0.00    +0.000 N 
ATOM     31  C   UNL     1      -5.738  10.454  18.762  0.00  0.00    +0.000 A 
ATOM     32  C   UNL     1      -6.912  10.648  19.456  0.00  0.00    +0.000 A 
ATOM     33  C   UNL     1      -7.430  11.858  18.966  0.00  0.00    +0.000 A 
ATOM     34  N   UNL     1      -6.650  12.395  18.018  0.00  0.00    +0.000 NA
BRANCH  32  35
ATOM     35  N   UNL     1      -7.468   9.789  20.453  0.00  0.00    +0.000 N 
ATOM     36  O   UNL     1      -7.598   8.599  20.158  0.00  0.00    +0.000 OA
ATOM     37  O   UNL     1      -7.772  10.311  21.532  0.00  0.00    +0.000 OA
ENDBRANCH  32  35
ENDBRANCH  29  30
ENDBRANCH  25  29
ENDBRANCH  11  21
TORSDOF 7
ENDMDL
MODEL 2
REMARK VINA RESULT:      -7.5      5.454      7.931
REMARK  Name = 
REMARK  9 active torsions:
REMARK  status: ('A' for Active; 'I' for Inactive)
REMARK    1  A    between atoms: C_1  and  O_2
REMARK    2  A    between atoms: O_2  and  C_3
REMARK    3  A    between atoms: C_6  and  N_7
REMARK    4  A    between atoms: C_17  and  C_18
REMARK    5  A    between atoms: C_21  and  O_22
REMARK    6  A    between atoms: O_22  and  C_23
REMARK    7  A    between atoms: C_24  and  C_25
REMARK    8  A    between atoms: C_25  and  N_26
REMARK    9  A    between atoms: C_28  and  N_29
REMARK                            x       y       z     vdW  Elec       q    Type
REMARK                         _______ _______ _______ _____ _____    ______ ____
ROOT
ATOM      1  N   UNL     1       0.098  12.033  18.927  0.00  0.00    +0.000 N 
ATOM      2  C   UNL     1       0.336  13.427  19.071  0.00  0.00    +0.000 C 
ATOM      3  O   UNL     1      -0.486  14.293  19.351  0.00  0.00    +0.000 OA
ATOM      4  C   UNL     1       1.733  13.882  18.800  0.00  0.00    +0.000 A 
ATOM      5  C   UNL     1       2.140  15.186  19.082  0.00  0.00    +0.000 A 
ATOM      6  C   UNL     1       3.427  15.594  18.731  0.00  0.00    +0.000 A 
ATOM      7  C   UNL     1       4.280  14.715  18.059  0.00  0.00    +0.000 A 
ATOM      8  C   UNL     1       3.873  13.406  17.783  0.00  0.00    +0.000 A 
ATOM      9  C   UNL     1       2.622  12.969  18.207  0.00  0.00    +0.000 A 
ATOM     10  N   UNL     1       2.228  11.621  18.005  0.00  0.00    +0.000 N 
ATOM     11  C   UNL     1       1.319  11.261  19.100  0.00  0.00    +0.000 C 
ATOM     12  H   UNL     1       1.713  11.560  17.128  0.00  0.00    +0.000 HD
ENDROOT
BRANCH   1  16
ATOM     13  C   UNL     1      -3.840  10.598  17.886  0.00  0.00    +0.000 A 
ATOM     14  C   UNL     1      -3.676  11.584  18.846  0.00  0.00    +0.000 A 
ATOM     15  C   UNL     1      -2.387  12.023  19.204  0.00  0.00    +0.000 A 
ATOM     16  C   UNL     1      -1.216  11.499  18.624  0.00  0.00    +0.000 A 
ATOM     17  C   UNL     1      -1.427  10.471  17.698  0.00  0.00    +0.000 A 
ATOM     18  C   UNL     1      -2.707  10.007  17.352  0.00  0.00    +0.000 A 
BRANCH  13  20
ATOM     19  C   UNL     1      -6.116  11.084  18.161  0.00  0.00    +0.000 C 
ATOM     20  O   UNL     1      -5.120  10.270  17.541  0.00  0.00    +0.000 OA
ENDBRANCH  13  20
ENDBRANCH   1  16
BRANCH  11  21
ATOM     21  C   UNL     1       1.355   9.776  19.397  0.00  0.00    +0.000 A 
ATOM     22  C   UNL     1       1.131   9.340  20.712  0.00  0.00    +0.000 A 
ATOM     23  C   UNL     1       1.345   8.012  21.068  0.00  0.00    +0.000 A 
ATOM     24  C   UNL     1       1.819   7.094  20.127  0.00  0.00    +0.000 A 
ATOM     25  C   UNL     1       1.969   7.482  18.786  0.00  0.00    +0.000 A 
ATOM     26  C   UNL     1       1.725   8.822  18.433  0.00  0.00    +0.000 A 
BRANCH  24  27
ATOM     27  O   UNL     1       2.161   5.806  20.451  0.00  0.00    +0.000 OA
ATOM     28  C   UNL     1       1.076   4.875  20.413  0.00  0.00    +0.000 C 
ENDBRANCH  24  27
BRANCH  25  29
ATOM     29  C   UNL     1       2.511   6.548  17.727  0.00  0.00    +0.000 C 
BRANCH  29  30
ATOM     30  N   UNL     1       3.967   6.463  17.804  0.00  0.00    +0.000 N 
ATOM     31  C   UNL     1       4.694   5.540  18.505  0.00  0.00    +0.000 A 
ATOM     32  C   UNL     1       6.016   5.881  18.324  0.00  0.00    +0.000 A 
ATOM     33  C   UNL     1       5.991   7.000  17.475  0.00  0.00    +0.000 A 
ATOM     34  N   UNL     1       4.743   7.359  17.147  0.00  0.00    +0.000 NA
BRANCH  32  35
ATOM     35  N   UNL     1       7.153   5.226  18.888  0.00  0.00    +0.000 N 
ATOM     36  O   UNL     1       7.786   4.467  18.151  0.00  0.00    +0.000 OA
ATOM     37  O   UNL     1       7.410   5.477  20.071  0.00  0.00    +0.000 OA
ENDBRANCH  32  35
ENDBRANCH  29  30
ENDBRANCH  25  29
ENDBRANCH  11  21
TORSDOF 7
ENDMDL
MODEL 3
REMARK VINA RESULT:      -7.5      2.507      4.768
REMARK  Name = 
REMARK  9 active torsions:
REMARK  status: ('A' for Active; 'I' for Inactive)
REMARK    1  A    between atoms: C_1  and  O_2
REMARK    2  A    between atoms: O_2  and  C_3
REMARK    3  A    between atoms: C_6  and  N_7
REMARK    4  A    between atoms: C_17  and  C_18
REMARK    5  A    between atoms: C_21  and  O_22
REMARK    6  A    between atoms: O_22  and  C_23
REMARK    7  A    between atoms: C_24  and  C_25
REMARK    8  A    between atoms: C_25  and  N_26
REMARK    9  A    between atoms: C_28  and  N_29
REMARK                            x       y       z     vdW  Elec       q    Type
REMARK                         _______ _______ _______ _____ _____    ______ ____
ROOT
ATOM      1  N   UNL     1       0.287  11.515  19.928  0.00  0.00    +0.000 N 
ATOM      2  C   UNL     1       0.995  12.518  20.643  0.00  0.00    +0.000 C 
ATOM      3  O   UNL     1       2.211  12.671  20.697  0.00  0.00    +0.000 OA
ATOM      4  C   UNL     1       0.160  13.453  21.457  0.00  0.00    +0.000 A 
ATOM      5  C   UNL     1       0.711  14.587  22.054  0.00  0.00    +0.000 A 
ATOM      6  C   UNL     1      -0.085  15.383  22.878  0.00  0.00    +0.000 A 
ATOM      7  C   UNL     1      -1.409  15.017  23.137  0.00  0.00    +0.000 A 
ATOM      8  C   UNL     1      -1.960  13.884  22.533  0.00  0.00    +0.000 A 
ATOM      9  C   UNL     1      -1.196  13.135  21.644  0.00  0.00    +0.000 A 
ATOM     10  N   UNL     1      -1.769  12.030  20.962  0.00  0.00    +0.000 N 
ATOM     11  C   UNL     1      -1.087  11.914  19.666  0.00  0.00    +0.000 C 
ATOM     12  H   UNL     1      -1.583  11.184  21.499  0.00  0.00    +0.000 HD
ENDROOT
BRANCH   1  16
ATOM     13  C   UNL     1       2.297   7.846  18.858  0.00  0.00    +0.000 A 
ATOM     14  C   UNL     1       2.219   8.899  17.960  0.00  0.00    +0.000 A 
ATOM     15  C   UNL     1       1.533  10.080  18.304  0.00  0.00    +0.000 A 
ATOM     16  C   UNL     1       0.900  10.257  19.549  0.00  0.00    +0.000 A 
ATOM     17  C   UNL     1       0.960   9.149  20.403  0.00  0.00    +0.000 A 
ATOM     18  C   UNL     1       1.619   7.957  20.061  0.00  0.00    +0.000 A 
BRANCH  13  20
ATOM     19  C   UNL     1       3.043   5.702  19.442  0.00  0.00    +0.000 C 
ATOM     20  O   UNL     1       3.034   6.759  18.482  0.00  0.00    +0.000 OA
ENDBRANCH  13  20
ENDBRANCH   1  16
BRANCH  11  21
ATOM     21  C   UNL     1      -1.976  11.276  18.618  0.00  0.00    +0.000 A 
ATOM     22  C   UNL     1      -1.387  10.490  17.616  0.00  0.00    +0.000 A 
ATOM     23  C   UNL     1      -2.134  10.047  16.528  0.00  0.00    +0.000 A 
ATOM     24  C   UNL     1      -3.478  10.407  16.398  0.00  0.00    +0.000 A 
ATOM     25  C   UNL     1      -4.114  11.119  17.427  0.00  0.00    +0.000 A 
ATOM     26  C   UNL     1      -3.354  11.539  18.534  0.00  0.00    +0.000 A 
BRANCH  24  27
ATOM     27  O   UNL     1      -4.226  10.100  15.290  0.00  0.00    +0.000 OA
ATOM     28  C   UNL     1      -3.484  10.043  14.068  0.00  0.00    +0.000 C 
ENDBRANCH  24  27
BRANCH  25  29
ATOM     29  C   UNL     1      -5.554  11.569  17.332  0.00  0.00    +0.000 C 
BRANCH  29  30
ATOM     30  N   UNL     1      -6.273  11.277  18.570  0.00  0.00    +0.000 N 
ATOM     31  C   UNL     1      -6.555  12.158  19.577  0.00  0.00    +0.000 A 
ATOM     32  C   UNL     1      -7.198  11.428  20.552  0.00  0.00    +0.000 A 
ATOM     33  C   UNL     1      -7.287  10.126  20.034  0.00  0.00    +0.000 A 
ATOM     34  N   UNL     1      -6.730  10.026  18.819  0.00  0.00    +0.000 NA
BRANCH  32  35
ATOM     35  N   UNL     1      -7.662  11.910  21.814  0.00  0.00    +0.000 N 
ATOM     36  O   UNL     1      -7.916  13.113  21.896  0.00  0.00    +0.000 OA
ATOM     37  O   UNL     1      -7.772  11.077  22.722  0.00  0.00    +0.000 OA
ENDBRANCH  32  35
ENDBRANCH  29  30
ENDBRANCH  25  29
ENDBRANCH  11  21
TORSDOF 7
ENDMDL
MODEL 4
REMARK VINA RESULT:      -7.2      5.344      7.942
REMARK  Name = 
REMARK  9 active torsions:
REMARK  status: ('A' for Active; 'I' for Inactive)
REMARK    1  A    between atoms: C_1  and  O_2
REMARK    2  A    between atoms: O_2  and  C_3
REMARK    3  A    between atoms: C_6  and  N_7
REMARK    4  A    between atoms: C_17  and  C_18
REMARK    5  A    between atoms: C_21  and  O_22
REMARK    6  A    between atoms: O_22  and  C_23
REMARK    7  A    between atoms: C_24  and  C_25
REMARK    8  A    between atoms: C_25  and  N_26
REMARK    9  A    between atoms: C_28  and  N_29
REMARK                            x       y       z     vdW  Elec       q    Type
REMARK                         _______ _______ _______ _____ _____    ______ ____
ROOT
ATOM      1  N   UNL     1       0.099  12.114  18.976  0.00  0.00    +0.000 N 
ATOM      2  C   UNL     1       0.366  13.503  19.110  0.00  0.00    +0.000 C 
ATOM      3  O   UNL     1      -0.435  14.388  19.391  0.00  0.00    +0.000 OA
ATOM      4  C   UNL     1       1.769  13.929  18.822  0.00  0.00    +0.000 A 
ATOM      5  C   UNL     1       2.205  15.227  19.093  0.00  0.00    +0.000 A 
ATOM      6  C   UNL     1       3.496  15.607  18.727  0.00  0.00    +0.000 A 
ATOM      7  C   UNL     1       4.326  14.706  18.053  0.00  0.00    +0.000 A 
ATOM      8  C   UNL     1       3.890  13.405  17.789  0.00  0.00    +0.000 A 
ATOM      9  C   UNL     1       2.634  12.995  18.228  0.00  0.00    +0.000 A 
ATOM     10  N   UNL     1       2.212  11.654  18.037  0.00  0.00    +0.000 N 
ATOM     11  C   UNL     1       1.306  11.319  19.143  0.00  0.00    +0.000 C 
ATOM     12  H   UNL     1       1.688  11.598  17.165  0.00  0.00    +0.000 HD
ENDROOT
BRANCH   1  16
ATOM     13  C   UNL     1      -3.885  10.765  17.998  0.00  0.00    +0.000 A 
ATOM     14  C   UNL     1      -3.673  11.652  19.042  0.00  0.00    +0.000 A 
ATOM     15  C   UNL     1      -2.368  12.061  19.376  0.00  0.00    +0.000 A 
ATOM     16  C   UNL     1      -1.228  11.605  18.689  0.00  0.00    +0.000 A 
ATOM     17  C   UNL     1      -1.485  10.673  17.676  0.00  0.00    +0.000 A 
ATOM     18  C   UNL     1      -2.780  10.237  17.351  0.00  0.00    +0.000 A 
BRANCH  13  20
ATOM     19  C   UNL     1      -6.032  11.606  17.580  0.00  0.00    +0.000 C 
ATOM     20  O   UNL     1      -5.181  10.465  17.687  0.00  0.00    +0.000 OA
ENDBRANCH  13  20
ENDBRANCH   1  16
BRANCH  11  21
ATOM     21  C   UNL     1       1.315   9.835  19.449  0.00  0.00    +0.000 A 
ATOM     22  C   UNL     1       1.063   9.411  20.762  0.00  0.00    +0.000 A 
ATOM     23  C   UNL     1       1.251   8.081  21.129  0.00  0.00    +0.000 A 
ATOM     24  C   UNL     1       1.728   7.151  20.202  0.00  0.00    +0.000 A 
ATOM     25  C   UNL     1       1.906   7.529  18.861  0.00  0.00    +0.000 A 
ATOM     26  C   UNL     1       1.687   8.870  18.497  0.00  0.00    +0.000 A 
BRANCH  24  27
ATOM     27  O   UNL     1       2.045   5.860  20.538  0.00  0.00    +0.000 OA
ATOM     28  C   UNL     1       0.956   4.938  20.452  0.00  0.00    +0.000 C 
ENDBRANCH  24  27
BRANCH  25  29
ATOM     29  C   UNL     1       2.451   6.581  17.817  0.00  0.00    +0.000 C 
BRANCH  29  30
ATOM     30  N   UNL     1       3.892   6.403  17.978  0.00  0.00    +0.000 N 
ATOM     31  C   UNL     1       4.877   7.122  17.358  0.00  0.00    +0.000 A 
ATOM     32  C   UNL     1       6.068   6.570  17.774  0.00  0.00    +0.000 A 
ATOM     33  C   UNL     1       5.705   5.548  18.666  0.00  0.00    +0.000 A 
ATOM     34  N   UNL     1       4.377   5.443  18.802  0.00  0.00    +0.000 NA
BRANCH  32  35
ATOM     35  N   UNL     1       7.381   6.966  17.371  0.00  0.00    +0.000 N 
ATOM     36  O   UNL     1       7.750   6.619  16.247  0.00  0.00    +0.000 OA
ATOM     37  O   UNL     1       8.039   7.624  18.185  0.00  0.00    +0.000 OA
ENDBRANCH  32  35
ENDBRANCH  29  30
ENDBRANCH  25  29
ENDBRANCH  11  21
TORSDOF 7
ENDMDL
MODEL 5
REMARK VINA RESULT:      -7.1      2.460      4.317
REMARK  Name = 
REMARK  9 active torsions:
REMARK  status: ('A' for Active; 'I' for Inactive)
REMARK    1  A    between atoms: C_1  and  O_2
REMARK    2  A    between atoms: O_2  and  C_3
REMARK    3  A    between atoms: C_6  and  N_7
REMARK    4  A    between atoms: C_17  and  C_18
REMARK    5  A    between atoms: C_21  and  O_22
REMARK    6  A    between atoms: O_22  and  C_23
REMARK    7  A    between atoms: C_24  and  C_25
REMARK    8  A    between atoms: C_25  and  N_26
REMARK    9  A    between atoms: C_28  and  N_29
REMARK                            x       y       z     vdW  Elec       q    Type
REMARK                         _______ _______ _______ _____ _____    ______ ____
ROOT
ATOM      1  N   UNL     1      -0.315  12.044  20.588  0.00  0.00    +0.000 N 
ATOM      2  C   UNL     1       0.377  13.055  21.307  0.00  0.00    +0.000 C 
ATOM      3  O   UNL     1       1.569  13.075  21.594  0.00  0.00    +0.000 OA
ATOM      4  C   UNL     1      -0.458  14.188  21.808  0.00  0.00    +0.000 A 
ATOM      5  C   UNL     1       0.123  15.329  22.364  0.00  0.00    +0.000 A 
ATOM      6  C   UNL     1      -0.696  16.323  22.900  0.00  0.00    +0.000 A 
ATOM      7  C   UNL     1      -2.083  16.152  22.919  0.00  0.00    +0.000 A 
ATOM      8  C   UNL     1      -2.663  15.012  22.356  0.00  0.00    +0.000 A 
ATOM      9  C   UNL     1      -1.855  14.058  21.744  0.00  0.00    +0.000 A 
ATOM     10  N   UNL     1      -2.438  12.936  21.098  0.00  0.00    +0.000 N 
ATOM     11  C   UNL     1      -1.544  12.553  19.997  0.00  0.00    +0.000 C 
ATOM     12  H   UNL     1      -2.479  12.164  21.761  0.00  0.00    +0.000 HD
ENDROOT
BRANCH   1  16
ATOM     13  C   UNL     1       1.325   8.053  20.413  0.00  0.00    +0.000 A 
ATOM     14  C   UNL     1       1.552   8.958  19.388  0.00  0.00    +0.000 A 
ATOM     15  C   UNL     1       0.986  10.246  19.437  0.00  0.00    +0.000 A 
ATOM     16  C   UNL     1       0.174  10.682  20.501  0.00  0.00    +0.000 A 
ATOM     17  C   UNL     1      -0.069   9.719  21.488  0.00  0.00    +0.000 A 
ATOM     18  C   UNL     1       0.468   8.422  21.438  0.00  0.00    +0.000 A 
BRANCH  13  20
ATOM     19  C   UNL     1       2.625   6.621  19.089  0.00  0.00    +0.000 C 
ATOM     20  O   UNL     1       1.960   6.846  20.333  0.00  0.00    +0.000 OA
ENDBRANCH  13  20
ENDBRANCH   1  16
BRANCH  11  21
ATOM     21  C   UNL     1      -2.296  11.872  18.872  0.00  0.00    +0.000 A 
ATOM     22  C   UNL     1      -1.570  11.329  17.801  0.00  0.00    +0.000 A 
ATOM     23  C   UNL     1      -2.222  10.870  16.660  0.00  0.00    +0.000 A 
ATOM     24  C   UNL     1      -3.611  10.974  16.547  0.00  0.00    +0.000 A 
ATOM     25  C   UNL     1      -4.368  11.434  17.636  0.00  0.00    +0.000 A 
ATOM     26  C   UNL     1      -3.700  11.870  18.794  0.00  0.00    +0.000 A 
BRANCH  24  27
ATOM     27  O   UNL     1      -4.290  10.650  15.400  0.00  0.00    +0.000 OA
ATOM     28  C   UNL     1      -3.473  10.116  14.355  0.00  0.00    +0.000 C 
ENDBRANCH  24  27
BRANCH  25  29
ATOM     29  C   UNL     1      -5.869  11.602  17.567  0.00  0.00    +0.000 C 
BRANCH  29  30
ATOM     30  N   UNL     1      -6.478  11.387  18.877  0.00  0.00    +0.000 N 
ATOM     31  C   UNL     1      -6.677  12.328  19.849  0.00  0.00    +0.000 A 
ATOM     32  C   UNL     1      -7.231  11.659  20.918  0.00  0.00    +0.000 A 
ATOM     33  C   UNL     1      -7.359  10.328  20.489  0.00  0.00    +0.000 A 
ATOM     34  N   UNL     1      -6.907  10.154  19.239  0.00  0.00    +0.000 NA
BRANCH  32  35
ATOM     35  N   UNL     1      -7.589  12.217  22.183  0.00  0.00    +0.000 N 
ATOM     36  O   UNL     1      -7.905  13.409  22.201  0.00  0.00    +0.000 OA
ATOM     37  O   UNL     1      -7.553  11.457  23.158  0.00  0.00    +0.000 OA
ENDBRANCH  32  35
ENDBRANCH  29  30
ENDBRANCH  25  29
ENDBRANCH  11  21
TORSDOF 7
ENDMDL
MODEL 6
REMARK VINA RESULT:      -7.0      2.509      4.673
REMARK  Name = 
REMARK  9 active torsions:
REMARK  status: ('A' for Active; 'I' for Inactive)
REMARK    1  A    between atoms: C_1  and  O_2
REMARK    2  A    between atoms: O_2  and  C_3
REMARK    3  A    between atoms: C_6  and  N_7
REMARK    4  A    between atoms: C_17  and  C_18
REMARK    5  A    between atoms: C_21  and  O_22
REMARK    6  A    between atoms: O_22  and  C_23
REMARK    7  A    between atoms: C_24  and  C_25
REMARK    8  A    between atoms: C_25  and  N_26
REMARK    9  A    between atoms: C_28  and  N_29
REMARK                            x       y       z     vdW  Elec       q    Type
REMARK                         _______ _______ _______ _____ _____    ______ ____
ROOT
ATOM      1  N   UNL     1       0.473  11.664  20.037  0.00  0.00    +0.000 N 
ATOM      2  C   UNL     1       1.171  12.700  20.713  0.00  0.00    +0.000 C 
ATOM      3  O   UNL     1       2.383  12.886  20.734  0.00  0.00    +0.000 OA
ATOM      4  C   UNL     1       0.330  13.630  21.527  0.00  0.00    +0.000 A 
ATOM      5  C   UNL     1       0.864  14.791  22.087  0.00  0.00    +0.000 A 
ATOM      6  C   UNL     1       0.067  15.583  22.913  0.00  0.00    +0.000 A 
ATOM      7  C   UNL     1      -1.240  15.188  23.212  0.00  0.00    +0.000 A 
ATOM      8  C   UNL     1      -1.775  14.028  22.644  0.00  0.00    +0.000 A 
ATOM      9  C   UNL     1      -1.011  13.280  21.753  0.00  0.00    +0.000 A 
ATOM     10  N   UNL     1      -1.571  12.146  21.108  0.00  0.00    +0.000 N 
ATOM     11  C   UNL     1      -0.917  12.021  19.799  0.00  0.00    +0.000 C 
ATOM     12  H   UNL     1      -1.350  11.317  21.658  0.00  0.00    +0.000 HD
ENDROOT
BRANCH   1  16
ATOM     13  C   UNL     1       2.184   7.872  18.875  0.00  0.00    +0.000 A 
ATOM     14  C   UNL     1       1.601   8.035  20.122  0.00  0.00    +0.000 A 
ATOM     15  C   UNL     1       1.075   9.283  20.506  0.00  0.00    +0.000 A 
ATOM     16  C   UNL     1       1.110  10.414  19.669  0.00  0.00    +0.000 A 
ATOM     17  C   UNL     1       1.753  10.217  18.441  0.00  0.00    +0.000 A 
ATOM     18  C   UNL     1       2.305   8.984  18.057  0.00  0.00    +0.000 A 
BRANCH  13  20
ATOM     19  C   UNL     1       2.741   5.735  19.660  0.00  0.00    +0.000 C 
ATOM     20  O   UNL     1       2.612   6.618  18.545  0.00  0.00    +0.000 OA
ENDBRANCH  13  20
ENDBRANCH   1  16
BRANCH  11  21
ATOM     21  C   UNL     1      -1.813  11.337  18.786  0.00  0.00    +0.000 A 
ATOM     22  C   UNL     1      -1.234  10.478  17.839  0.00  0.00    +0.000 A 
ATOM     23  C   UNL     1      -1.984   9.984  16.775  0.00  0.00    +0.000 A 
ATOM     24  C   UNL     1      -3.319  10.362  16.614  0.00  0.00    +0.000 A 
ATOM     25  C   UNL     1      -3.946  11.150  17.592  0.00  0.00    +0.000 A 
ATOM     26  C   UNL     1      -3.185  11.623  18.676  0.00  0.00    +0.000 A 
BRANCH  24  27
ATOM     27  O   UNL     1      -4.067  10.003  15.521  0.00  0.00    +0.000 OA
ATOM     28  C   UNL     1      -3.401  10.162  14.266  0.00  0.00    +0.000 C 
ENDBRANCH  24  27
BRANCH  25  29
ATOM     29  C   UNL     1      -5.376  11.623  17.459  0.00  0.00    +0.000 C 
BRANCH  29  30
ATOM     30  N   UNL     1      -6.066  11.560  18.745  0.00  0.00    +0.000 N 
ATOM     31  C   UNL     1      -5.822  12.341  19.841  0.00  0.00    +0.000 A 
ATOM     32  C   UNL     1      -6.675  11.892  20.825  0.00  0.00    +0.000 A 
ATOM     33  C   UNL     1      -7.416  10.862  20.223  0.00  0.00    +0.000 A 
ATOM     34  N   UNL     1      -7.056  10.657  18.949  0.00  0.00    +0.000 NA
BRANCH  32  35
ATOM     35  N   UNL     1      -6.768  12.380  22.164  0.00  0.00    +0.000 N 
ATOM     36  O   UNL     1      -5.709  12.603  22.754  0.00  0.00    +0.000 OA
ATOM     37  O   UNL     1      -7.906  12.539  22.622  0.00  0.00    +0.000 OA
ENDBRANCH  32  35
ENDBRANCH  29  30
ENDBRANCH  25  29
ENDBRANCH  11  21
TORSDOF 7
ENDMDL
MODEL 7
REMARK VINA RESULT:      -6.9      2.906      5.398
REMARK  Name = 
REMARK  9 active torsions:
REMARK  status: ('A' for Active; 'I' for Inactive)
REMARK    1  A    between atoms: C_1  and  O_2
REMARK    2  A    between atoms: O_2  and  C_3
REMARK    3  A    between atoms: C_6  and  N_7
REMARK    4  A    between atoms: C_17  and  C_18
REMARK    5  A    between atoms: C_21  and  O_22
REMARK    6  A    between atoms: O_22  and  C_23
REMARK    7  A    between atoms: C_24  and  C_25
REMARK    8  A    between atoms: C_25  and  N_26
REMARK    9  A    between atoms: C_28  and  N_29
REMARK                            x       y       z     vdW  Elec       q    Type
REMARK                         _______ _______ _______ _____ _____    ______ ____
ROOT
ATOM      1  N   UNL     1       1.038  12.157  18.754  0.00  0.00    +0.000 N 
ATOM      2  C   UNL     1       2.170  12.891  18.311  0.00  0.00    +0.000 C 
ATOM      3  O   UNL     1       3.229  12.437  17.890  0.00  0.00    +0.000 OA
ATOM      4  C   UNL     1       2.070  14.378  18.422  0.00  0.00    +0.000 A 
ATOM      5  C   UNL     1       3.030  15.216  17.855  0.00  0.00    +0.000 A 
ATOM      6  C   UNL     1       2.945  16.593  18.059  0.00  0.00    +0.000 A 
ATOM      7  C   UNL     1       1.931  17.120  18.864  0.00  0.00    +0.000 A 
ATOM      8  C   UNL     1       0.966  16.279  19.426  0.00  0.00    +0.000 A 
ATOM      9  C   UNL     1       0.998  14.914  19.155  0.00  0.00    +0.000 A 
ATOM     10  N   UNL     1      -0.022  14.062  19.653  0.00  0.00    +0.000 N 
ATOM     11  C   UNL     1      -0.175  12.959  18.696  0.00  0.00    +0.000 C 
ATOM     12  H   UNL     1       0.284  13.674  20.544  0.00  0.00    +0.000 HD
ENDROOT
BRANCH   1  16
ATOM     13  C   UNL     1       1.534   8.108  20.169  0.00  0.00    +0.000 A 
ATOM     14  C   UNL     1       1.793   8.433  18.847  0.00  0.00    +0.000 A 
ATOM     15  C   UNL     1       1.597   9.749  18.385  0.00  0.00    +0.000 A 
ATOM     16  C   UNL     1       1.136  10.786  19.217  0.00  0.00    +0.000 A 
ATOM     17  C   UNL     1       0.839  10.401  20.530  0.00  0.00    +0.000 A 
ATOM     18  C   UNL     1       1.006   9.086  20.995  0.00  0.00    +0.000 A 
BRANCH  13  20
ATOM     19  C   UNL     1       2.590   6.087  19.624  0.00  0.00    +0.000 C 
ATOM     20  O   UNL     1       1.811   6.829  20.563  0.00  0.00    +0.000 OA
ENDBRANCH  13  20
ENDBRANCH   1  16
BRANCH  11  21
ATOM     21  C   UNL     1      -1.578  12.386  18.717  0.00  0.00    +0.000 A 
ATOM     22  C   UNL     1      -2.040  11.680  17.596  0.00  0.00    +0.000 A 
ATOM     23  C   UNL     1      -3.377  11.307  17.491  0.00  0.00    +0.000 A 
ATOM     24  C   UNL     1      -4.291  11.660  18.487  0.00  0.00    +0.000 A 
ATOM     25  C   UNL     1      -3.841  12.291  19.658  0.00  0.00    +0.000 A 
ATOM     26  C   UNL     1      -2.482  12.639  19.763  0.00  0.00    +0.000 A 
BRANCH  24  27
ATOM     27  O   UNL     1      -5.638  11.424  18.378  0.00  0.00    +0.000 OA
ATOM     28  C   UNL     1      -6.323  12.296  17.474  0.00  0.00    +0.000 C 
ENDBRANCH  24  27
BRANCH  25  29
ATOM     29  C   UNL     1      -4.782  12.729  20.756  0.00  0.00    +0.000 C 
BRANCH  29  30
ATOM     30  N   UNL     1      -4.121  13.661  21.667  0.00  0.00    +0.000 N 
ATOM     31  C   UNL     1      -3.305  13.335  22.715  0.00  0.00    +0.000 A 
ATOM     32  C   UNL     1      -2.959  14.527  23.312  0.00  0.00    +0.000 A 
ATOM     33  C   UNL     1      -3.585  15.518  22.538  0.00  0.00    +0.000 A 
ATOM     34  N   UNL     1      -4.292  14.997  21.525  0.00  0.00    +0.000 NA
BRANCH  32  35
ATOM     35  N   UNL     1      -2.141  14.698  24.470  0.00  0.00    +0.000 N 
ATOM     36  O   UNL     1      -2.709  15.027  25.514  0.00  0.00    +0.000 OA
ATOM     37  O   UNL     1      -0.928  14.502  24.330  0.00  0.00    +0.000 OA
ENDBRANCH  32  35
ENDBRANCH  29  30
ENDBRANCH  25  29
ENDBRANCH  11  21
TORSDOF 7
ENDMDL
MODEL 8
REMARK VINA RESULT:      -6.9      3.178      4.916
REMARK  Name = 
REMARK  9 active torsions:
REMARK  status: ('A' for Active; 'I' for Inactive)
REMARK    1  A    between atoms: C_1  and  O_2
REMARK    2  A    between atoms: O_2  and  C_3
REMARK    3  A    between atoms: C_6  and  N_7
REMARK    4  A    between atoms: C_17  and  C_18
REMARK    5  A    between atoms: C_21  and  O_22
REMARK    6  A    between atoms: O_22  and  C_23
REMARK    7  A    between atoms: C_24  and  C_25
REMARK    8  A    between atoms: C_25  and  N_26
REMARK    9  A    between atoms: C_28  and  N_29
REMARK                            x       y       z     vdW  Elec       q    Type
REMARK                         _______ _______ _______ _____ _____    ______ ____
ROOT
ATOM      1  N   UNL     1       0.098  12.017  20.399  0.00  0.00    +0.000 N 
ATOM      2  C   UNL     1       0.855  13.009  21.079  0.00  0.00    +0.000 C 
ATOM      3  O   UNL     1       2.068  13.022  21.257  0.00  0.00    +0.000 OA
ATOM      4  C   UNL     1       0.071  14.128  21.684  0.00  0.00    +0.000 A 
ATOM      5  C   UNL     1       0.702  15.254  22.215  0.00  0.00    +0.000 A 
ATOM      6  C   UNL     1      -0.063  16.232  22.850  0.00  0.00    +0.000 A 
ATOM      7  C   UNL     1      -1.443  16.059  22.992  0.00  0.00    +0.000 A 
ATOM      8  C   UNL     1      -2.073  14.934  22.453  0.00  0.00    +0.000 A 
ATOM      9  C   UNL     1      -1.327  13.998  21.745  0.00  0.00    +0.000 A 
ATOM     10  N   UNL     1      -1.967  12.893  21.125  0.00  0.00    +0.000 N 
ATOM     11  C   UNL     1      -1.178  12.541  19.937  0.00  0.00    +0.000 C 
ATOM     12  H   UNL     1      -1.949  12.103  21.767  0.00  0.00    +0.000 HD
ENDROOT
BRANCH   1  16
ATOM     13  C   UNL     1       1.714   8.038  19.948  0.00  0.00    +0.000 A 
ATOM     14  C   UNL     1       1.738   8.936  18.893  0.00  0.00    +0.000 A 
ATOM     15  C   UNL     1       1.179  10.221  19.037  0.00  0.00    +0.000 A 
ATOM     16  C   UNL     1       0.576  10.658  20.232  0.00  0.00    +0.000 A 
ATOM     17  C   UNL     1       0.530   9.701  21.253  0.00  0.00    +0.000 A 
ATOM     18  C   UNL     1       1.060   8.409  21.112  0.00  0.00    +0.000 A 
BRANCH  13  20
ATOM     19  C   UNL     1       1.835   5.786  20.588  0.00  0.00    +0.000 C 
ATOM     20  O   UNL     1       2.335   6.836  19.758  0.00  0.00    +0.000 OA
ENDBRANCH  13  20
ENDBRANCH   1  16
BRANCH  11  21
ATOM     21  C   UNL     1      -2.031  11.890  18.868  0.00  0.00    +0.000 A 
ATOM     22  C   UNL     1      -1.429  11.504  17.660  0.00  0.00    +0.000 A 
ATOM     23  C   UNL     1      -2.202  11.083  16.582  0.00  0.00    +0.000 A 
ATOM     24  C   UNL     1      -3.596  11.071  16.672  0.00  0.00    +0.000 A 
ATOM     25  C   UNL     1      -4.221  11.369  17.894  0.00  0.00    +0.000 A 
ATOM     26  C   UNL     1      -3.427  11.767  18.985  0.00  0.00    +0.000 A 
BRANCH  24  27
ATOM     27  O   UNL     1      -4.409  10.782  15.605  0.00  0.00    +0.000 OA
ATOM     28  C   UNL     1      -3.750  10.131  14.515  0.00  0.00    +0.000 C 
ENDBRANCH  24  27
BRANCH  25  29
ATOM     29  C   UNL     1      -5.724  11.407  18.049  0.00  0.00    +0.000 C 
BRANCH  29  30
ATOM     30  N   UNL     1      -6.226  12.772  17.919  0.00  0.00    +0.000 N 
ATOM     31  C   UNL     1      -6.527  13.423  16.755  0.00  0.00    +0.000 A 
ATOM     32  C   UNL     1      -6.914  14.694  17.119  0.00  0.00    +0.000 A 
ATOM     33  C   UNL     1      -6.846  14.708  18.522  0.00  0.00    +0.000 A 
ATOM     34  N   UNL     1      -6.433  13.534  19.020  0.00  0.00    +0.000 NA
BRANCH  32  35
ATOM     35  N   UNL     1      -7.295  15.756  16.244  0.00  0.00    +0.000 N 
ATOM     36  O   UNL     1      -7.227  16.903  16.691  0.00  0.00    +0.000 OA
ATOM     37  O   UNL     1      -7.660  15.437  15.106  0.00  0.00    +0.000 OA
ENDBRANCH  32  35
ENDBRANCH  29  30
ENDBRANCH  25  29
ENDBRANCH  11  21
TORSDOF 7
ENDMDL
MODEL 9
REMARK VINA RESULT:      -6.7      3.430      7.945
REMARK  Name = 
REMARK  9 active torsions:
REMARK  status: ('A' for Active; 'I' for Inactive)
REMARK    1  A    between atoms: C_1  and  O_2
REMARK    2  A    between atoms: O_2  and  C_3
REMARK    3  A    between atoms: C_6  and  N_7
REMARK    4  A    between atoms: C_17  and  C_18
REMARK    5  A    between atoms: C_21  and  O_22
REMARK    6  A    between atoms: O_22  and  C_23
REMARK    7  A    between atoms: C_24  and  C_25
REMARK    8  A    between atoms: C_25  and  N_26
REMARK    9  A    between atoms: C_28  and  N_29
REMARK                            x       y       z     vdW  Elec       q    Type
REMARK                         _______ _______ _______ _____ _____    ______ ____
ROOT
ATOM      1  N   UNL     1      -4.280  11.389  18.777  0.00  0.00    +0.000 N 
ATOM      2  C   UNL     1      -5.596  11.144  19.253  0.00  0.00    +0.000 C 
ATOM      3  O   UNL     1      -6.388  10.302  18.842  0.00  0.00    +0.000 OA
ATOM      4  C   UNL     1      -6.078  12.051  20.339  0.00  0.00    +0.000 A 
ATOM      5  C   UNL     1      -7.272  11.804  21.016  0.00  0.00    +0.000 A 
ATOM      6  C   UNL     1      -7.728  12.724  21.960  0.00  0.00    +0.000 A 
ATOM      7  C   UNL     1      -7.016  13.905  22.187  0.00  0.00    +0.000 A 
ATOM      8  C   UNL     1      -5.816  14.147  21.512  0.00  0.00    +0.000 A 
ATOM      9  C   UNL     1      -5.314  13.193  20.632  0.00  0.00    +0.000 A 
ATOM     10  N   UNL     1      -4.058  13.392  20.002  0.00  0.00    +0.000 N 
ATOM     11  C   UNL     1      -3.468  12.066  19.776  0.00  0.00    +0.000 C 
ATOM     12  H   UNL     1      -4.214  13.831  19.096  0.00  0.00    +0.000 HD
ENDROOT
BRANCH   1  16
ATOM     13  C   UNL     1      -3.177  10.123  14.799  0.00  0.00    +0.000 A 
ATOM     14  C   UNL     1      -2.734   9.427  15.912  0.00  0.00    +0.000 A 
ATOM     15  C   UNL     1      -3.070   9.866  17.207  0.00  0.00    +0.000 A 
ATOM     16  C   UNL     1      -3.856  11.009  17.444  0.00  0.00    +0.000 A 
ATOM     17  C   UNL     1      -4.238  11.709  16.293  0.00  0.00    +0.000 A 
ATOM     18  C   UNL     1      -3.887  11.296  14.997  0.00  0.00    +0.000 A 
BRANCH  13  20
ATOM     19  C   UNL     1      -3.897   9.767  12.597  0.00  0.00    +0.000 C 
ATOM     20  O   UNL     1      -2.869   9.603  13.574  0.00  0.00    +0.000 OA
ENDBRANCH  13  20
ENDBRANCH   1  16
BRANCH  11  21
ATOM     21  C   UNL     1      -1.953  12.121  19.750  0.00  0.00    +0.000 A 
ATOM     22  C   UNL     1      -1.309  13.292  20.180  0.00  0.00    +0.000 A 
ATOM     23  C   UNL     1       0.060  13.460  19.993  0.00  0.00    +0.000 A 
ATOM     24  C   UNL     1       0.812  12.479  19.342  0.00  0.00    +0.000 A 
ATOM     25  C   UNL     1       0.210  11.263  18.979  0.00  0.00    +0.000 A 
ATOM     26  C   UNL     1      -1.169  11.094  19.197  0.00  0.00    +0.000 A 
BRANCH  24  27
ATOM     27  O   UNL     1       2.136  12.645  19.024  0.00  0.00    +0.000 OA
ATOM     28  C   UNL     1       2.630  13.974  19.212  0.00  0.00    +0.000 C 
ENDBRANCH  24  27
BRANCH  25  29
ATOM     29  C   UNL     1       0.959  10.176  18.241  0.00  0.00    +0.000 C 
BRANCH  29  30
ATOM     30  N   UNL     1       1.331   9.093  19.148  0.00  0.00    +0.000 N 
ATOM     31  C   UNL     1       2.040   7.969  18.828  0.00  0.00    +0.000 A 
ATOM     32  C   UNL     1       2.104   7.219  19.982  0.00  0.00    +0.000 A 
ATOM     33  C   UNL     1       1.434   7.983  20.951  0.00  0.00    +0.000 A 
ATOM     34  N   UNL     1       0.964   9.134  20.452  0.00  0.00    +0.000 NA
BRANCH  32  35
ATOM     35  N   UNL     1       2.720   5.939  20.137  0.00  0.00    +0.000 N 
ATOM     36  O   UNL     1       2.173   5.143  20.903  0.00  0.00    +0.000 OA
ATOM     37  O   UNL     1       3.753   5.736  19.488  0.00  0.00    +0.000 OA
ENDBRANCH  32  35
ENDBRANCH  29  30
ENDBRANCH  25  29
ENDBRANCH  11  21
TORSDOF 7
ENDMDL
