MODEL 1
REMARK VINA RESULT:      -8.7      0.000      0.000
REMARK  Name = 
REMARK  7 active torsions:
REMARK  status: ('A' for Active; 'I' for Inactive)
REMARK    1  A    between atoms: C_1  and  O_2
REMARK    2  A    between atoms: O_2  and  C_3
REMARK    3  A    between atoms: C_6  and  C_7
REMARK    4  A    between atoms: C_7  and  C_9
REMARK    5  A    between atoms: C_10  and  C_11
REMARK    6  A    between atoms: C_25  and  C_26
REMARK    7  A    between atoms: C_25  and  C_27
REMARK                            x       y       z     vdW  Elec       q    Type
REMARK                         _______ _______ _______ _____ _____    ______ ____
ROOT
ATOM      1  C   UNL     1       5.734   4.464  14.926  0.00  0.00    +0.000 A 
ATOM      2  C   UNL     1       6.990   5.060  14.761  0.00  0.00    +0.000 A 
ATOM      3  C   UNL     1       7.569   5.801  15.794  0.00  0.00    +0.000 A 
ATOM      4  C   UNL     1       6.885   6.000  16.996  0.00  0.00    +0.000 A 
ATOM      5  C   UNL     1       5.617   5.423  17.159  0.00  0.00    +0.000 A 
ATOM      6  C   UNL     1       5.026   4.660  16.129  0.00  0.00    +0.000 A 
ATOM      7  C   UNL     1       3.702   4.080  16.367  0.00  0.00    +0.000 C 
ATOM      8  C   UNL     1       3.218   4.085  17.617  0.00  0.00    +0.000 C 
ATOM      9  C   UNL     1       4.009   4.654  18.768  0.00  0.00    +0.000 C 
ATOM     10  C   UNL     1       4.760   3.533  19.498  0.00  0.00    +0.000 C 
ATOM     11  C   UNL     1       3.102   5.397  19.755  0.00  0.00    +0.000 C 
ATOM     12  O   UNL     1       4.976   5.630  18.352  0.00  0.00    +0.000 OA
ENDROOT
BRANCH   1  14
ATOM     13  C   UNL     1       5.948   3.484  12.783  0.00  0.00    +0.000 C 
ATOM     14  O   UNL     1       5.149   3.694  13.948  0.00  0.00    +0.000 OA
ENDBRANCH   1  14
BRANCH   4  15
ATOM     15  C   UNL     1       7.605   6.737  18.075  0.00  0.00    +0.000 C 
ATOM     16  O   UNL     1       7.938   6.145  19.100  0.00  0.00    +0.000 OA
BRANCH  15  17
ATOM     17  C   UNL     1       7.942   8.173  17.873  0.00  0.00    +0.000 C 
ATOM     18  C   UNL     1       8.729   8.834  18.736  0.00  0.00    +0.000 C 
BRANCH  18  19
ATOM     19  C   UNL     1       9.031  10.253  18.531  0.00  0.00    +0.000 A 
ATOM     20  C   UNL     1       8.212  11.030  17.710  0.00  0.00    +0.000 A 
ATOM     21  C   UNL     1       8.463  12.398  17.555  0.00  0.00    +0.000 A 
ATOM     22  C   UNL     1       9.532  13.014  18.223  0.00  0.00    +0.000 A 
ATOM     23  C   UNL     1       9.783  14.392  18.092  0.00  0.00    +0.000 A 
ATOM     24  C   UNL     1      10.845  14.993  18.770  0.00  0.00    +0.000 A 
ATOM     25  C   UNL     1      11.674  14.224  19.581  0.00  0.00    +0.000 A 
ATOM     26  C   UNL     1      11.440  12.855  19.718  0.00  0.00    +0.000 A 
ATOM     27  C   UNL     1      10.370  12.233  19.049  0.00  0.00    +0.000 A 
ATOM     28  C   UNL     1      10.110  10.856  19.192  0.00  0.00    +0.000 A 
ENDBRANCH  18  19
ENDBRANCH  15  17
ENDBRANCH   4  15
TORSDOF 4
ENDMDL
MODEL 2
REMARK VINA RESULT:      -8.6      6.598     10.601
REMARK  Name = 
REMARK  7 active torsions:
REMARK  status: ('A' for Active; 'I' for Inactive)
REMARK    1  A    between atoms: C_1  and  O_2
REMARK    2  A    between atoms: O_2  and  C_3
REMARK    3  A    between atoms: C_6  and  C_7
REMARK    4  A    between atoms: C_7  and  C_9
REMARK    5  A    between atoms: C_10  and  C_11
REMARK    6  A    between atoms: C_25  and  C_26
REMARK    7  A    between atoms: C_25  and  C_27
REMARK                            x       y       z     vdW  Elec       q    Type
REMARK                         _______ _______ _______ _____ _____    ______ ____
ROOT
ATOM      1  C   UNL     1      -3.285  11.229  18.138  0.00  0.00    +0.000 A 
ATOM      2  C   UNL     1      -2.571  10.408  17.256  0.00  0.00    +0.000 A 
ATOM      3  C   UNL     1      -1.209  10.169  17.450  0.00  0.00    +0.000 A 
ATOM      4  C   UNL     1      -0.521  10.780  18.501  0.00  0.00    +0.000 A 
ATOM      5  C   UNL     1      -1.227  11.621  19.376  0.00  0.00    +0.000 A 
ATOM      6  C   UNL     1      -2.607  11.860  19.200  0.00  0.00    +0.000 A 
ATOM      7  C   UNL     1      -3.284  12.743  20.153  0.00  0.00    +0.000 C 
ATOM      8  C   UNL     1      -2.640  13.086  21.277  0.00  0.00    +0.000 C 
ATOM      9  C   UNL     1      -1.256  12.570  21.581  0.00  0.00    +0.000 C 
ATOM     10  C   UNL     1      -1.338  11.336  22.487  0.00  0.00    +0.000 C 
ATOM     11  C   UNL     1      -0.394  13.647  22.251  0.00  0.00    +0.000 C 
ATOM     12  O   UNL     1      -0.526  12.199  20.401  0.00  0.00    +0.000 OA
ENDROOT
BRANCH   1  14
ATOM     13  C   UNL     1      -5.475  10.389  18.446  0.00  0.00    +0.000 C 
ATOM     14  O   UNL     1      -4.634  11.456  18.004  0.00  0.00    +0.000 OA
ENDBRANCH   1  14
BRANCH   4  15
ATOM     15  C   UNL     1       0.913  10.412  18.684  0.00  0.00    +0.000 C 
ATOM     16  O   UNL     1       1.733  11.279  18.979  0.00  0.00    +0.000 OA
BRANCH  15  17
ATOM     17  C   UNL     1       1.319   8.986  18.543  0.00  0.00    +0.000 C 
ATOM     18  C   UNL     1       2.483   8.646  17.968  0.00  0.00    +0.000 C 
BRANCH  18  19
ATOM     19  C   UNL     1       2.855   7.236  17.817  0.00  0.00    +0.000 A 
ATOM     20  C   UNL     1       4.145   6.894  17.410  0.00  0.00    +0.000 A 
ATOM     21  C   UNL     1       4.522   5.549  17.318  0.00  0.00    +0.000 A 
ATOM     22  C   UNL     1       3.618   4.525  17.638  0.00  0.00    +0.000 A 
ATOM     23  C   UNL     1       3.991   3.170  17.570  0.00  0.00    +0.000 A 
ATOM     24  C   UNL     1       3.083   2.162  17.900  0.00  0.00    +0.000 A 
ATOM     25  C   UNL     1       1.791   2.493  18.295  0.00  0.00    +0.000 A 
ATOM     26  C   UNL     1       1.406   3.833  18.365  0.00  0.00    +0.000 A 
ATOM     27  C   UNL     1       2.308   4.863  18.043  0.00  0.00    +0.000 A 
ATOM     28  C   UNL     1       1.940   6.220  18.126  0.00  0.00    +0.000 A 
ENDBRANCH  18  19
ENDBRANCH  15  17
ENDBRANCH   4  15
TORSDOF 4
ENDMDL
MODEL 3
REMARK VINA RESULT:      -8.5      6.853     11.205
REMARK  Name = 
REMARK  7 active torsions:
REMARK  status: ('A' for Active; 'I' for Inactive)
REMARK    1  A    between atoms: C_1  and  O_2
REMARK    2  A    between atoms: O_2  and  C_3
REMARK    3  A    between atoms: C_6  and  C_7
REMARK    4  A    between atoms: C_7  and  C_9
REMARK    5  A    between atoms: C_10  and  C_11
REMARK    6  A    between atoms: C_25  and  C_26
REMARK    7  A    between atoms: C_25  and  C_27
REMARK                            x       y       z     vdW  Elec       q    Type
REMARK                         _______ _______ _______ _____ _____    ______ ____
ROOT
ATOM      1  C   UNL     1      -1.918  13.460  21.515  0.00  0.00    +0.000 A 
ATOM      2  C   UNL     1      -1.781  13.102  22.862  0.00  0.00    +0.000 A 
ATOM      3  C   UNL     1      -1.183  11.893  23.222  0.00  0.00    +0.000 A 
ATOM      4  C   UNL     1      -0.751  10.994  22.244  0.00  0.00    +0.000 A 
ATOM      5  C   UNL     1      -0.904  11.337  20.891  0.00  0.00    +0.000 A 
ATOM      6  C   UNL     1      -1.494  12.562  20.514  0.00  0.00    +0.000 A 
ATOM      7  C   UNL     1      -1.618  12.861  19.085  0.00  0.00    +0.000 C 
ATOM      8  C   UNL     1      -0.956  12.090  18.211  0.00  0.00    +0.000 C 
ATOM      9  C   UNL     1      -0.085  10.947  18.668  0.00  0.00    +0.000 C 
ATOM     10  C   UNL     1       1.378  11.400  18.755  0.00  0.00    +0.000 C 
ATOM     11  C   UNL     1      -0.199   9.745  17.724  0.00  0.00    +0.000 C 
ATOM     12  O   UNL     1      -0.463  10.438  19.957  0.00  0.00    +0.000 OA
ENDROOT
BRANCH   1  14
ATOM     13  C   UNL     1      -3.180  15.360  22.138  0.00  0.00    +0.000 C 
ATOM     14  O   UNL     1      -2.464  14.658  21.121  0.00  0.00    +0.000 OA
ENDBRANCH   1  14
BRANCH   4  15
ATOM     15  C   UNL     1      -0.054   9.761  22.711  0.00  0.00    +0.000 C 
ATOM     16  O   UNL     1       0.276   9.657  23.892  0.00  0.00    +0.000 OA
BRANCH  15  17
ATOM     17  C   UNL     1       0.197   8.658  21.744  0.00  0.00    +0.000 C 
ATOM     18  C   UNL     1       1.444   8.297  21.404  0.00  0.00    +0.000 C 
BRANCH  18  19
ATOM     19  C   UNL     1       1.669   7.223  20.432  0.00  0.00    +0.000 A 
ATOM     20  C   UNL     1       2.282   7.504  19.211  0.00  0.00    +0.000 A 
ATOM     21  C   UNL     1       2.550   6.474  18.301  0.00  0.00    +0.000 A 
ATOM     22  C   UNL     1       2.214   5.144  18.602  0.00  0.00    +0.000 A 
ATOM     23  C   UNL     1       2.496   4.097  17.707  0.00  0.00    +0.000 A 
ATOM     24  C   UNL     1       2.166   2.778  18.023  0.00  0.00    +0.000 A 
ATOM     25  C   UNL     1       1.544   2.490  19.233  0.00  0.00    +0.000 A 
ATOM     26  C   UNL     1       1.254   3.519  20.131  0.00  0.00    +0.000 A 
ATOM     27  C   UNL     1       1.586   4.853  19.833  0.00  0.00    +0.000 A 
ATOM     28  C   UNL     1       1.318   5.901  20.736  0.00  0.00    +0.000 A 
ENDBRANCH  18  19
ENDBRANCH  15  17
ENDBRANCH   4  15
TORSDOF 4
ENDMDL
MODEL 4
REMARK VINA RESULT:      -8.3      5.074      8.107
REMARK  Name = 
REMARK  7 active torsions:
REMARK  status: ('A' for Active; 'I' for Inactive)
REMARK    1  A    between atoms: C_1  and  O_2
REMARK    2  A    between atoms: O_2  and  C_3
REMARK    3  A    between atoms: C_6  and  C_7
REMARK    4  A    between atoms: C_7  and  C_9
REMARK    5  A    between atoms: C_10  and  C_11
REMARK    6  A    between atoms: C_25  and  C_26
REMARK    7  A    between atoms: C_25  and  C_27
REMARK                            x       y       z     vdW  Elec       q    Type
REMARK                         _______ _______ _______ _____ _____    ______ ____
ROOT
ATOM      1  C   UNL     1       3.526   3.839  19.110  0.00  0.00    +0.000 A 
ATOM      2  C   UNL     1       2.227   4.359  19.161  0.00  0.00    +0.000 A 
ATOM      3  C   UNL     1       1.966   5.670  18.758  0.00  0.00    +0.000 A 
ATOM      4  C   UNL     1       3.004   6.505  18.337  0.00  0.00    +0.000 A 
ATOM      5  C   UNL     1       4.312   5.997  18.303  0.00  0.00    +0.000 A 
ATOM      6  C   UNL     1       4.588   4.669  18.695  0.00  0.00    +0.000 A 
ATOM      7  C   UNL     1       5.974   4.200  18.629  0.00  0.00    +0.000 C 
ATOM      8  C   UNL     1       6.873   4.952  17.978  0.00  0.00    +0.000 C 
ATOM      9  C   UNL     1       6.483   6.244  17.307  0.00  0.00    +0.000 C 
ATOM     10  C   UNL     1       6.208   6.004  15.817  0.00  0.00    +0.000 C 
ATOM     11  C   UNL     1       7.575   7.308  17.467  0.00  0.00    +0.000 C 
ATOM     12  O   UNL     1       5.307   6.837  17.879  0.00  0.00    +0.000 OA
ENDROOT
BRANCH   1  14
ATOM     13  C   UNL     1       3.359   1.550  18.540  0.00  0.00    +0.000 C 
ATOM     14  O   UNL     1       3.817   2.542  19.460  0.00  0.00    +0.000 OA
ENDBRANCH   1  14
BRANCH   4  15
ATOM     15  C   UNL     1       2.631   7.864  17.850  0.00  0.00    +0.000 C 
ATOM     16  O   UNL     1       3.057   8.262  16.767  0.00  0.00    +0.000 OA
BRANCH  15  17
ATOM     17  C   UNL     1       1.714   8.702  18.670  0.00  0.00    +0.000 C 
ATOM     18  C   UNL     1       0.857   9.563  18.099  0.00  0.00    +0.000 C 
BRANCH  18  19
ATOM     19  C   UNL     1      -0.022  10.396  18.924  0.00  0.00    +0.000 A 
ATOM     20  C   UNL     1      -0.942  11.253  18.319  0.00  0.00    +0.000 A 
ATOM     21  C   UNL     1      -1.822  12.010  19.102  0.00  0.00    +0.000 A 
ATOM     22  C   UNL     1      -1.800  11.917  20.502  0.00  0.00    +0.000 A 
ATOM     23  C   UNL     1      -2.693  12.657  21.300  0.00  0.00    +0.000 A 
ATOM     24  C   UNL     1      -2.666  12.548  22.691  0.00  0.00    +0.000 A 
ATOM     25  C   UNL     1      -1.744  11.705  23.303  0.00  0.00    +0.000 A 
ATOM     26  C   UNL     1      -0.850  10.967  22.525  0.00  0.00    +0.000 A 
ATOM     27  C   UNL     1      -0.866  11.058  21.122  0.00  0.00    +0.000 A 
ATOM     28  C   UNL     1       0.017  10.307  20.322  0.00  0.00    +0.000 A 
ENDBRANCH  18  19
ENDBRANCH  15  17
ENDBRANCH   4  15
TORSDOF 4
ENDMDL
MODEL 5
REMARK VINA RESULT:      -8.3      6.728     10.587
REMARK  Name = 
REMARK  7 active torsions:
REMARK  status: ('A' for Active; 'I' for Inactive)
REMARK    1  A    between atoms: C_1  and  O_2
REMARK    2  A    between atoms: O_2  and  C_3
REMARK    3  A    between atoms: C_6  and  C_7
REMARK    4  A    between atoms: C_7  and  C_9
REMARK    5  A    between atoms: C_10  and  C_11
REMARK    6  A    between atoms: C_25  and  C_26
REMARK    7  A    between atoms: C_25  and  C_27
REMARK                            x       y       z     vdW  Elec       q    Type
REMARK                         _______ _______ _______ _____ _____    ______ ____
ROOT
ATOM      1  C   UNL     1      -3.240  11.131  18.275  0.00  0.00    +0.000 A 
ATOM      2  C   UNL     1      -2.610  10.271  17.368  0.00  0.00    +0.000 A 
ATOM      3  C   UNL     1      -1.235  10.037  17.442  0.00  0.00    +0.000 A 
ATOM      4  C   UNL     1      -0.453  10.694  18.396  0.00  0.00    +0.000 A 
ATOM      5  C   UNL     1      -1.075  11.574  19.294  0.00  0.00    +0.000 A 
ATOM      6  C   UNL     1      -2.465  11.809  19.239  0.00  0.00    +0.000 A 
ATOM      7  C   UNL     1      -3.052  12.735  20.211  0.00  0.00    +0.000 C 
ATOM      8  C   UNL     1      -2.305  13.126  21.252  0.00  0.00    +0.000 C 
ATOM      9  C   UNL     1      -0.897  12.622  21.447  0.00  0.00    +0.000 C 
ATOM     10  C   UNL     1      -0.892  11.430  22.412  0.00  0.00    +0.000 C 
ATOM     11  C   UNL     1       0.021  13.726  21.984  0.00  0.00    +0.000 C 
ATOM     12  O   UNL     1      -0.282  12.196  20.222  0.00  0.00    +0.000 OA
ENDROOT
BRANCH   1  14
ATOM     13  C   UNL     1      -5.108  11.882  17.034  0.00  0.00    +0.000 C 
ATOM     14  O   UNL     1      -4.596  11.356  18.259  0.00  0.00    +0.000 OA
ENDBRANCH   1  14
BRANCH   4  15
ATOM     15  C   UNL     1       0.993  10.331  18.459  0.00  0.00    +0.000 C 
ATOM     16  O   UNL     1       1.843  11.219  18.511  0.00  0.00    +0.000 OA
BRANCH  15  17
ATOM     17  C   UNL     1       1.379   8.894  18.496  0.00  0.00    +0.000 C 
ATOM     18  C   UNL     1       1.703   8.288  19.649  0.00  0.00    +0.000 C 
BRANCH  18  19
ATOM     19  C   UNL     1       2.103   6.878  19.662  0.00  0.00    +0.000 A 
ATOM     20  C   UNL     1       1.832   6.085  20.777  0.00  0.00    +0.000 A 
ATOM     21  C   UNL     1       2.161   4.725  20.774  0.00  0.00    +0.000 A 
ATOM     22  C   UNL     1       2.762   4.133  19.652  0.00  0.00    +0.000 A 
ATOM     23  C   UNL     1       3.079   2.763  19.627  0.00  0.00    +0.000 A 
ATOM     24  C   UNL     1       3.668   2.186  18.500  0.00  0.00    +0.000 A 
ATOM     25  C   UNL     1       3.953   2.971  17.388  0.00  0.00    +0.000 A 
ATOM     26  C   UNL     1       3.647   4.333  17.399  0.00  0.00    +0.000 A 
ATOM     27  C   UNL     1       3.047   4.931  18.521  0.00  0.00    +0.000 A 
ATOM     28  C   UNL     1       2.715   6.300  18.541  0.00  0.00    +0.000 A 
ENDBRANCH  18  19
ENDBRANCH  15  17
ENDBRANCH   4  15
TORSDOF 4
ENDMDL
MODEL 6
REMARK VINA RESULT:      -8.3      6.702     10.174
REMARK  Name = 
REMARK  7 active torsions:
REMARK  status: ('A' for Active; 'I' for Inactive)
REMARK    1  A    between atoms: C_1  and  O_2
REMARK    2  A    between atoms: O_2  and  C_3
REMARK    3  A    between atoms: C_6  and  C_7
REMARK    4  A    between atoms: C_7  and  C_9
REMARK    5  A    between atoms: C_10  and  C_11
REMARK    6  A    between atoms: C_25  and  C_26
REMARK    7  A    between atoms: C_25  and  C_27
REMARK                            x       y       z     vdW  Elec       q    Type
REMARK                         _______ _______ _______ _____ _____    ______ ____
ROOT
ATOM      1  C   UNL     1      -3.237  11.248  18.303  0.00  0.00    +0.000 A 
ATOM      2  C   UNL     1      -2.430  10.360  17.581  0.00  0.00    +0.000 A 
ATOM      3  C   UNL     1      -1.116  10.107  17.979  0.00  0.00    +0.000 A 
ATOM      4  C   UNL     1      -0.565  10.769  19.078  0.00  0.00    +0.000 A 
ATOM      5  C   UNL     1      -1.362  11.676  19.793  0.00  0.00    +0.000 A 
ATOM      6  C   UNL     1      -2.696  11.931  19.411  0.00  0.00    +0.000 A 
ATOM      7  C   UNL     1      -3.475  12.885  20.205  0.00  0.00    +0.000 C 
ATOM      8  C   UNL     1      -2.984  13.284  21.386  0.00  0.00    +0.000 C 
ATOM      9  C   UNL     1      -1.670  12.762  21.912  0.00  0.00    +0.000 C 
ATOM     10  C   UNL     1      -1.913  11.589  22.869  0.00  0.00    +0.000 C 
ATOM     11  C   UNL     1      -0.881  13.862  22.632  0.00  0.00    +0.000 C 
ATOM     12  O   UNL     1      -0.795  12.303  20.871  0.00  0.00    +0.000 OA
ENDROOT
BRANCH   1  14
ATOM     13  C   UNL     1      -4.812  11.558  16.566  0.00  0.00    +0.000 C 
ATOM     14  O   UNL     1      -4.548  11.493  17.968  0.00  0.00    +0.000 OA
ENDBRANCH   1  14
BRANCH   4  15
ATOM     15  C   UNL     1       0.819  10.385  19.482  0.00  0.00    +0.000 C 
ATOM     16  O   UNL     1       1.377  10.988  20.398  0.00  0.00    +0.000 OA
BRANCH  15  17
ATOM     17  C   UNL     1       1.487   9.247  18.793  0.00  0.00    +0.000 C 
ATOM     18  C   UNL     1       1.945   8.187  19.477  0.00  0.00    +0.000 C 
BRANCH  18  19
ATOM     19  C   UNL     1       2.620   7.088  18.782  0.00  0.00    +0.000 A 
ATOM     20  C   UNL     1       2.291   5.766  19.082  0.00  0.00    +0.000 A 
ATOM     21  C   UNL     1       2.892   4.712  18.383  0.00  0.00    +0.000 A 
ATOM     22  C   UNL     1       3.827   4.965  17.368  0.00  0.00    +0.000 A 
ATOM     23  C   UNL     1       4.424   3.916  16.643  0.00  0.00    +0.000 A 
ATOM     24  C   UNL     1       5.346   4.182  15.630  0.00  0.00    +0.000 A 
ATOM     25  C   UNL     1       5.689   5.497  15.332  0.00  0.00    +0.000 A 
ATOM     26  C   UNL     1       5.109   6.548  16.045  0.00  0.00    +0.000 A 
ATOM     27  C   UNL     1       4.172   6.300  17.064  0.00  0.00    +0.000 A 
ATOM     28  C   UNL     1       3.564   7.350  17.780  0.00  0.00    +0.000 A 
ENDBRANCH  18  19
ENDBRANCH  15  17
ENDBRANCH   4  15
TORSDOF 4
ENDMDL
MODEL 7
REMARK VINA RESULT:      -8.2      7.359     10.744
REMARK  Name = 
REMARK  7 active torsions:
REMARK  status: ('A' for Active; 'I' for Inactive)
REMARK    1  A    between atoms: C_1  and  O_2
REMARK    2  A    between atoms: O_2  and  C_3
REMARK    3  A    between atoms: C_6  and  C_7
REMARK    4  A    between atoms: C_7  and  C_9
REMARK    5  A    between atoms: C_10  and  C_11
REMARK    6  A    between atoms: C_25  and  C_26
REMARK    7  A    between atoms: C_25  and  C_27
REMARK                            x       y       z     vdW  Elec       q    Type
REMARK                         _______ _______ _______ _____ _____    ______ ____
ROOT
ATOM      1  C   UNL     1      -4.079  11.870  18.836  0.00  0.00    +0.000 A 
ATOM      2  C   UNL     1      -3.391  11.373  17.722  0.00  0.00    +0.000 A 
ATOM      3  C   UNL     1      -1.996  11.313  17.713  0.00  0.00    +0.000 A 
ATOM      4  C   UNL     1      -1.257  11.790  18.798  0.00  0.00    +0.000 A 
ATOM      5  C   UNL     1      -1.940  12.309  19.909  0.00  0.00    +0.000 A 
ATOM      6  C   UNL     1      -3.350  12.363  19.937  0.00  0.00    +0.000 A 
ATOM      7  C   UNL     1      -4.000  12.912  21.130  0.00  0.00    +0.000 C 
ATOM      8  C   UNL     1      -3.258  13.107  22.229  0.00  0.00    +0.000 C 
ATOM      9  C   UNL     1      -1.791  12.760  22.263  0.00  0.00    +0.000 C 
ATOM     10  C   UNL     1      -1.591  11.366  22.870  0.00  0.00    +0.000 C 
ATOM     11  C   UNL     1      -0.992  13.794  23.066  0.00  0.00    +0.000 C 
ATOM     12  O   UNL     1      -1.187  12.761  20.960  0.00  0.00    +0.000 OA
ENDROOT
BRANCH   1  14
ATOM     13  C   UNL     1      -6.099  12.371  17.712  0.00  0.00    +0.000 C 
ATOM     14  O   UNL     1      -5.452  11.909  18.898  0.00  0.00    +0.000 OA
ENDBRANCH   1  14
BRANCH   4  15
ATOM     15  C   UNL     1       0.224  11.618  18.743  0.00  0.00    +0.000 C 
ATOM     16  O   UNL     1       0.940  12.582  18.478  0.00  0.00    +0.000 OA
BRANCH  15  17
ATOM     17  C   UNL     1       0.812  10.285  19.047  0.00  0.00    +0.000 C 
ATOM     18  C   UNL     1       1.705   9.711  18.227  0.00  0.00    +0.000 C 
BRANCH  18  19
ATOM     19  C   UNL     1       2.255   8.388  18.533  0.00  0.00    +0.000 A 
ATOM     20  C   UNL     1       1.895   7.739  19.714  0.00  0.00    +0.000 A 
ATOM     21  C   UNL     1       2.373   6.451  19.987  0.00  0.00    +0.000 A 
ATOM     22  C   UNL     1       3.214   5.790  19.079  0.00  0.00    +0.000 A 
ATOM     23  C   UNL     1       3.685   4.488  19.330  0.00  0.00    +0.000 A 
ATOM     24  C   UNL     1       4.513   3.838  18.414  0.00  0.00    +0.000 A 
ATOM     25  C   UNL     1       4.887   4.482  17.239  0.00  0.00    +0.000 A 
ATOM     26  C   UNL     1       4.431   5.775  16.977  0.00  0.00    +0.000 A 
ATOM     27  C   UNL     1       3.589   6.443  17.884  0.00  0.00    +0.000 A 
ATOM     28  C   UNL     1       3.106   7.741  17.626  0.00  0.00    +0.000 A 
ENDBRANCH  18  19
ENDBRANCH  15  17
ENDBRANCH   4  15
TORSDOF 4
ENDMDL
MODEL 8
REMARK VINA RESULT:      -8.1      5.310      8.414
REMARK  Name = 
REMARK  7 active torsions:
REMARK  status: ('A' for Active; 'I' for Inactive)
REMARK    1  A    between atoms: C_1  and  O_2
REMARK    2  A    between atoms: O_2  and  C_3
REMARK    3  A    between atoms: C_6  and  C_7
REMARK    4  A    between atoms: C_7  and  C_9
REMARK    5  A    between atoms: C_10  and  C_11
REMARK    6  A    between atoms: C_25  and  C_26
REMARK    7  A    between atoms: C_25  and  C_27
REMARK                            x       y       z     vdW  Elec       q    Type
REMARK                         _______ _______ _______ _____ _____    ______ ____
ROOT
ATOM      1  C   UNL     1       3.568   3.634  19.421  0.00  0.00    +0.000 A 
ATOM      2  C   UNL     1       2.313   4.112  19.816  0.00  0.00    +0.000 A 
ATOM      3  C   UNL     1       1.959   5.447  19.607  0.00  0.00    +0.000 A 
ATOM      4  C   UNL     1       2.869   6.344  19.041  0.00  0.00    +0.000 A 
ATOM      5  C   UNL     1       4.137   5.876  18.662  0.00  0.00    +0.000 A 
ATOM      6  C   UNL     1       4.502   4.526  18.855  0.00  0.00    +0.000 A 
ATOM      7  C   UNL     1       5.839   4.103  18.431  0.00  0.00    +0.000 C 
ATOM      8  C   UNL     1       6.560   4.933  17.666  0.00  0.00    +0.000 C 
ATOM      9  C   UNL     1       6.019   6.270  17.225  0.00  0.00    +0.000 C 
ATOM     10  C   UNL     1       5.412   6.158  15.822  0.00  0.00    +0.000 C 
ATOM     11  C   UNL     1       7.113   7.344  17.231  0.00  0.00    +0.000 C 
ATOM     12  O   UNL     1       5.002   6.778  18.103  0.00  0.00    +0.000 OA
ENDROOT
BRANCH   1  14
ATOM     13  C   UNL     1       3.493   1.442  18.536  0.00  0.00    +0.000 C 
ATOM     14  O   UNL     1       3.938   2.319  19.572  0.00  0.00    +0.000 OA
ENDBRANCH   1  14
BRANCH   4  15
ATOM     15  C   UNL     1       2.386   7.731  18.781  0.00  0.00    +0.000 C 
ATOM     16  O   UNL     1       2.682   8.293  17.727  0.00  0.00    +0.000 OA
BRANCH  15  17
ATOM     17  C   UNL     1       1.519   8.399  19.790  0.00  0.00    +0.000 C 
ATOM     18  C   UNL     1       0.857   9.530  19.503  0.00  0.00    +0.000 C 
BRANCH  18  19
ATOM     19  C   UNL     1       0.026  10.184  20.517  0.00  0.00    +0.000 A 
ATOM     20  C   UNL     1       0.089   9.767  21.847  0.00  0.00    +0.000 A 
ATOM     21  C   UNL     1      -0.660  10.424  22.830  0.00  0.00    +0.000 A 
ATOM     22  C   UNL     1      -1.480  11.514  22.500  0.00  0.00    +0.000 A 
ATOM     23  C   UNL     1      -2.223  12.196  23.481  0.00  0.00    +0.000 A 
ATOM     24  C   UNL     1      -3.027  13.284  23.140  0.00  0.00    +0.000 A 
ATOM     25  C   UNL     1      -3.106  13.700  21.815  0.00  0.00    +0.000 A 
ATOM     26  C   UNL     1      -2.378  13.031  20.829  0.00  0.00    +0.000 A 
ATOM     27  C   UNL     1      -1.556  11.937  21.155  0.00  0.00    +0.000 A 
ATOM     28  C   UNL     1      -0.801  11.263  20.175  0.00  0.00    +0.000 A 
ENDBRANCH  18  19
ENDBRANCH  15  17
ENDBRANCH   4  15
TORSDOF 4
ENDMDL
MODEL 9
REMARK VINA RESULT:      -8.1      6.952     10.966
REMARK  Name = 
REMARK  7 active torsions:
REMARK  status: ('A' for Active; 'I' for Inactive)
REMARK    1  A    between atoms: C_1  and  O_2
REMARK    2  A    between atoms: O_2  and  C_3
REMARK    3  A    between atoms: C_6  and  C_7
REMARK    4  A    between atoms: C_7  and  C_9
REMARK    5  A    between atoms: C_10  and  C_11
REMARK    6  A    between atoms: C_25  and  C_26
REMARK    7  A    between atoms: C_25  and  C_27
REMARK                            x       y       z     vdW  Elec       q    Type
REMARK                         _______ _______ _______ _____ _____    ______ ____
ROOT
ATOM      1  C   UNL     1      -2.842  11.545  18.648  0.00  0.00    +0.000 A 
ATOM      2  C   UNL     1      -1.997  10.551  18.141  0.00  0.00    +0.000 A 
ATOM      3  C   UNL     1      -0.856  10.157  18.844  0.00  0.00    +0.000 A 
ATOM      4  C   UNL     1      -0.511  10.780  20.046  0.00  0.00    +0.000 A 
ATOM      5  C   UNL     1      -1.343  11.792  20.549  0.00  0.00    +0.000 A 
ATOM      6  C   UNL     1      -2.506  12.190  19.856  0.00  0.00    +0.000 A 
ATOM      7  C   UNL     1      -3.333  13.249  20.440  0.00  0.00    +0.000 C 
ATOM      8  C   UNL     1      -3.097  13.619  21.706  0.00  0.00    +0.000 C 
ATOM      9  C   UNL     1      -2.021  12.962  22.533  0.00  0.00    +0.000 C 
ATOM     10  C   UNL     1      -2.625  11.851  23.400  0.00  0.00    +0.000 C 
ATOM     11  C   UNL     1      -1.302  13.981  23.425  0.00  0.00    +0.000 C 
ATOM     12  O   UNL     1      -0.981  12.378  21.734  0.00  0.00    +0.000 OA
ENDROOT
BRANCH   1  14
ATOM     13  C   UNL     1      -5.039  10.957  17.999  0.00  0.00    +0.000 C 
ATOM     14  O   UNL     1      -3.995  11.932  18.007  0.00  0.00    +0.000 OA
ENDBRANCH   1  14
BRANCH   4  15
ATOM     15  C   UNL     1       0.679  10.249  20.772  0.00  0.00    +0.000 C 
ATOM     16  O   UNL     1       1.386  11.013  21.427  0.00  0.00    +0.000 OA
BRANCH  15  17
ATOM     17  C   UNL     1       0.967   8.789  20.722  0.00  0.00    +0.000 C 
ATOM     18  C   UNL     1       1.822   8.276  19.823  0.00  0.00    +0.000 C 
BRANCH  18  19
ATOM     19  C   UNL     1       2.075   6.834  19.775  0.00  0.00    +0.000 A 
ATOM     20  C   UNL     1       1.579   6.004  20.781  0.00  0.00    +0.000 A 
ATOM     21  C   UNL     1       1.770   4.619  20.712  0.00  0.00    +0.000 A 
ATOM     22  C   UNL     1       2.455   4.041  19.632  0.00  0.00    +0.000 A 
ATOM     23  C   UNL     1       2.635   2.648  19.540  0.00  0.00    +0.000 A 
ATOM     24  C   UNL     1       3.310   2.086  18.456  0.00  0.00    +0.000 A 
ATOM     25  C   UNL     1       3.819   2.906  17.454  0.00  0.00    +0.000 A 
ATOM     26  C   UNL     1       3.651   4.290  17.533  0.00  0.00    +0.000 A 
ATOM     27  C   UNL     1       2.967   4.875  18.614  0.00  0.00    +0.000 A 
ATOM     28  C   UNL     1       2.773   6.267  18.700  0.00  0.00    +0.000 A 
ENDBRANCH  18  19
ENDBRANCH  15  17
ENDBRANCH   4  15
TORSDOF 4
ENDMDL
