MODEL 1
REMARK VINA RESULT:      -8.7      0.000      0.000
REMARK  Name = 
REMARK  3 active torsions:
REMARK  status: ('A' for Active; 'I' for Inactive)
REMARK    1  A    between atoms: C_1  and  C_2
REMARK    2  A    between atoms: N_5  and  C_6
REMARK    3  A    between atoms: C_10  and  C_11
REMARK                            x       y       z     vdW  Elec       q    Type
REMARK                         _______ _______ _______ _____ _____    ______ ____
ROOT
ATOM      1  C   UNL     1       7.629   6.767  18.022  0.00  0.00    +0.000 C 
ATOM      2  C   UNL     1       7.054   5.843  16.994  0.00  0.00    +0.000 A 
ATOM      3  N   UNL     1       6.011   5.090  17.355  0.00  0.00    +0.000 NA
ATOM      4  C   UNL     1       5.464   4.293  16.418  0.00  0.00    +0.000 A 
ATOM      5  N   UNL     1       4.358   3.489  16.794  0.00  0.00    +0.000 N 
ATOM      6  C   UNL     1       5.951   4.237  15.105  0.00  0.00    +0.000 A 
ATOM      7  C   UNL     1       5.386   3.465  14.057  0.00  0.00    +0.000 A 
ATOM      8  C   UNL     1       5.903   3.533  12.765  0.00  0.00    +0.000 A 
ATOM      9  C   UNL     1       6.992   4.357  12.511  0.00  0.00    +0.000 A 
ATOM     10  C   UNL     1       7.552   5.108  13.547  0.00  0.00    +0.000 A 
ATOM     11  C   UNL     1       7.045   5.071  14.840  0.00  0.00    +0.000 A 
ATOM     12  N   UNL     1       7.602   5.856  15.770  0.00  0.00    +0.000 NA
ATOM     13  H   UNL     1       4.647   2.520  16.842  0.00  0.00    +0.000 HD
ENDROOT
BRANCH   5  14
ATOM     14  C   UNL     1       3.393   3.849  17.759  0.00  0.00    +0.000 A 
ATOM     15  C   UNL     1       2.540   4.936  17.547  0.00  0.00    +0.000 A 
ATOM     16  C   UNL     1       1.634   5.334  18.536  0.00  0.00    +0.000 A 
ATOM     17  C   UNL     1       1.593   4.668  19.762  0.00  0.00    +0.000 A 
ATOM     18  C   UNL     1       2.462   3.600  20.013  0.00  0.00    +0.000 A 
ATOM     19  C   UNL     1       3.350   3.205  19.004  0.00  0.00    +0.000 A 
BRANCH  18  20
ATOM     20  C   UNL     1       2.482   2.881  21.336  0.00  0.00    +0.000 C 
ATOM     21  F   UNL     1       2.461   3.719  22.411  0.00  0.00    +0.000 F 
ATOM     22  F   UNL     1       1.422   2.043  21.498  0.00  0.00    +0.000 F 
ATOM     23  F   UNL     1       3.595   2.110  21.493  0.00  0.00    +0.000 F 
ENDBRANCH  18  20
ENDBRANCH   5  14
TORSDOF 2
ENDMDL
MODEL 2
REMARK VINA RESULT:      -8.7      4.067      7.115
REMARK  Name = 
REMARK  3 active torsions:
REMARK  status: ('A' for Active; 'I' for Inactive)
REMARK    1  A    between atoms: C_1  and  C_2
REMARK    2  A    between atoms: N_5  and  C_6
REMARK    3  A    between atoms: C_10  and  C_11
REMARK                            x       y       z     vdW  Elec       q    Type
REMARK                         _______ _______ _______ _____ _____    ______ ____
ROOT
ATOM      1  C   UNL     1       2.796   8.126  17.831  0.00  0.00    +0.000 C 
ATOM      2  C   UNL     1       2.873   6.699  18.275  0.00  0.00    +0.000 A 
ATOM      3  N   UNL     1       3.470   5.828  17.456  0.00  0.00    +0.000 NA
ATOM      4  C   UNL     1       3.580   4.553  17.875  0.00  0.00    +0.000 A 
ATOM      5  N   UNL     1       4.211   3.623  17.009  0.00  0.00    +0.000 N 
ATOM      6  C   UNL     1       3.096   4.129  19.120  0.00  0.00    +0.000 A 
ATOM      7  C   UNL     1       3.232   2.818  19.644  0.00  0.00    +0.000 A 
ATOM      8  C   UNL     1       2.777   2.515  20.926  0.00  0.00    +0.000 A 
ATOM      9  C   UNL     1       2.174   3.507  21.686  0.00  0.00    +0.000 A 
ATOM     10  C   UNL     1       2.033   4.795  21.163  0.00  0.00    +0.000 A 
ATOM     11  C   UNL     1       2.492   5.128  19.894  0.00  0.00    +0.000 A 
ATOM     12  N   UNL     1       2.367   6.393  19.479  0.00  0.00    +0.000 NA
ATOM     13  H   UNL     1       3.516   2.992  16.630  0.00  0.00    +0.000 HD
ENDROOT
BRANCH   5  14
ATOM     14  C   UNL     1       5.252   3.938  16.110  0.00  0.00    +0.000 A 
ATOM     15  C   UNL     1       6.338   4.717  16.518  0.00  0.00    +0.000 A 
ATOM     16  C   UNL     1       7.332   5.087  15.606  0.00  0.00    +0.000 A 
ATOM     17  C   UNL     1       7.233   4.710  14.266  0.00  0.00    +0.000 A 
ATOM     18  C   UNL     1       6.137   3.960  13.824  0.00  0.00    +0.000 A 
ATOM     19  C   UNL     1       5.161   3.583  14.756  0.00  0.00    +0.000 A 
BRANCH  18  20
ATOM     20  C   UNL     1       5.968   3.567  12.380  0.00  0.00    +0.000 C 
ATOM     21  F   UNL     1       4.766   3.935  11.853  0.00  0.00    +0.000 F 
ATOM     22  F   UNL     1       6.913   4.117  11.570  0.00  0.00    +0.000 F 
ATOM     23  F   UNL     1       6.055   2.220  12.194  0.00  0.00    +0.000 F 
ENDBRANCH  18  20
ENDBRANCH   5  14
TORSDOF 2
ENDMDL
MODEL 3
REMARK VINA RESULT:      -8.3      0.524      1.007
REMARK  Name = 
REMARK  3 active torsions:
REMARK  status: ('A' for Active; 'I' for Inactive)
REMARK    1  A    between atoms: C_1  and  C_2
REMARK    2  A    between atoms: N_5  and  C_6
REMARK    3  A    between atoms: C_10  and  C_11
REMARK                            x       y       z     vdW  Elec       q    Type
REMARK                         _______ _______ _______ _____ _____    ______ ____
ROOT
ATOM      1  C   UNL     1       7.736   6.989  17.708  0.00  0.00    +0.000 C 
ATOM      2  C   UNL     1       7.093   6.004  16.782  0.00  0.00    +0.000 A 
ATOM      3  N   UNL     1       6.040   5.322  17.241  0.00  0.00    +0.000 NA
ATOM      4  C   UNL     1       5.433   4.469  16.394  0.00  0.00    +0.000 A 
ATOM      5  N   UNL     1       4.315   3.740  16.875  0.00  0.00    +0.000 N 
ATOM      6  C   UNL     1       5.868   4.286  15.074  0.00  0.00    +0.000 A 
ATOM      7  C   UNL     1       5.240   3.450  14.116  0.00  0.00    +0.000 A 
ATOM      8  C   UNL     1       5.711   3.391  12.806  0.00  0.00    +0.000 A 
ATOM      9  C   UNL     1       6.816   4.151  12.445  0.00  0.00    +0.000 A 
ATOM     10  C   UNL     1       7.438   4.966  13.395  0.00  0.00    +0.000 A 
ATOM     11  C   UNL     1       6.979   5.055  14.703  0.00  0.00    +0.000 A 
ATOM     12  N   UNL     1       7.595   5.894  15.543  0.00  0.00    +0.000 NA
ATOM     13  H   UNL     1       4.573   2.769  16.995  0.00  0.00    +0.000 HD
ENDROOT
BRANCH   5  14
ATOM     14  C   UNL     1       3.399   4.214  17.838  0.00  0.00    +0.000 A 
ATOM     15  C   UNL     1       2.886   5.512  17.760  0.00  0.00    +0.000 A 
ATOM     16  C   UNL     1       2.035   6.002  18.755  0.00  0.00    +0.000 A 
ATOM     17  C   UNL     1       1.712   5.210  19.858  0.00  0.00    +0.000 A 
ATOM     18  C   UNL     1       2.241   3.920  19.978  0.00  0.00    +0.000 A 
ATOM     19  C   UNL     1       3.077   3.440  18.962  0.00  0.00    +0.000 A 
BRANCH  18  20
ATOM     20  C   UNL     1       1.953   3.047  21.171  0.00  0.00    +0.000 C 
ATOM     21  F   UNL     1       2.388   1.763  21.024  0.00  0.00    +0.000 F 
ATOM     22  F   UNL     1       2.534   3.506  22.313  0.00  0.00    +0.000 F 
ATOM     23  F   UNL     1       0.620   2.956  21.441  0.00  0.00    +0.000 F 
ENDBRANCH  18  20
ENDBRANCH   5  14
TORSDOF 2
ENDMDL
MODEL 4
REMARK VINA RESULT:      -8.2      1.788      2.277
REMARK  Name = 
REMARK  3 active torsions:
REMARK  status: ('A' for Active; 'I' for Inactive)
REMARK    1  A    between atoms: C_1  and  C_2
REMARK    2  A    between atoms: N_5  and  C_6
REMARK    3  A    between atoms: C_10  and  C_11
REMARK                            x       y       z     vdW  Elec       q    Type
REMARK                         _______ _______ _______ _____ _____    ______ ____
ROOT
ATOM      1  C   UNL     1       7.489   6.647  17.843  0.00  0.00    +0.000 C 
ATOM      2  C   UNL     1       7.024   5.720  16.763  0.00  0.00    +0.000 A 
ATOM      3  N   UNL     1       6.049   4.858  17.066  0.00  0.00    +0.000 NA
ATOM      4  C   UNL     1       5.599   4.055  16.083  0.00  0.00    +0.000 A 
ATOM      5  N   UNL     1       4.566   3.136  16.398  0.00  0.00    +0.000 N 
ATOM      6  C   UNL     1       6.116   4.103  14.781  0.00  0.00    +0.000 A 
ATOM      7  C   UNL     1       5.647   3.329  13.688  0.00  0.00    +0.000 A 
ATOM      8  C   UNL     1       6.182   3.503  12.414  0.00  0.00    +0.000 A 
ATOM      9  C   UNL     1       7.193   4.435  12.221  0.00  0.00    +0.000 A 
ATOM     10  C   UNL     1       7.659   5.188  13.301  0.00  0.00    +0.000 A 
ATOM     11  C   UNL     1       7.132   5.047  14.579  0.00  0.00    +0.000 A 
ATOM     12  N   UNL     1       7.593   5.838  15.554  0.00  0.00    +0.000 NA
ATOM     13  H   UNL     1       4.944   2.197  16.412  0.00  0.00    +0.000 HD
ENDROOT
BRANCH   5  14
ATOM     14  C   UNL     1       3.552   3.361  17.354  0.00  0.00    +0.000 A 
ATOM     15  C   UNL     1       2.574   2.393  17.599  0.00  0.00    +0.000 A 
ATOM     16  C   UNL     1       1.529   2.647  18.494  0.00  0.00    +0.000 A 
ATOM     17  C   UNL     1       1.432   3.886  19.129  0.00  0.00    +0.000 A 
ATOM     18  C   UNL     1       2.379   4.885  18.873  0.00  0.00    +0.000 A 
ATOM     19  C   UNL     1       3.428   4.606  17.987  0.00  0.00    +0.000 A 
BRANCH  18  20
ATOM     20  C   UNL     1       2.289   6.250  19.503  0.00  0.00    +0.000 C 
ATOM     21  F   UNL     1       1.426   6.308  20.556  0.00  0.00    +0.000 F 
ATOM     22  F   UNL     1       3.486   6.692  19.979  0.00  0.00    +0.000 F 
ATOM     23  F   UNL     1       1.863   7.202  18.625  0.00  0.00    +0.000 F 
ENDBRANCH  18  20
ENDBRANCH   5  14
TORSDOF 2
ENDMDL
MODEL 5
REMARK VINA RESULT:      -7.9      3.350      3.962
REMARK  Name = 
REMARK  3 active torsions:
REMARK  status: ('A' for Active; 'I' for Inactive)
REMARK    1  A    between atoms: C_1  and  C_2
REMARK    2  A    between atoms: N_5  and  C_6
REMARK    3  A    between atoms: C_10  and  C_11
REMARK                            x       y       z     vdW  Elec       q    Type
REMARK                         _______ _______ _______ _____ _____    ______ ____
ROOT
ATOM      1  C   UNL     1       8.097   7.675  18.175  0.00  0.00    +0.000 C 
ATOM      2  C   UNL     1       7.243   6.708  17.414  0.00  0.00    +0.000 A 
ATOM      3  N   UNL     1       6.065   6.373  17.948  0.00  0.00    +0.000 NA
ATOM      4  C   UNL     1       5.276   5.540  17.243  0.00  0.00    +0.000 A 
ATOM      5  N   UNL     1       4.025   5.178  17.805  0.00  0.00    +0.000 N 
ATOM      6  C   UNL     1       5.652   5.031  15.993  0.00  0.00    +0.000 A 
ATOM      7  C   UNL     1       4.845   4.199  15.175  0.00  0.00    +0.000 A 
ATOM      8  C   UNL     1       5.284   3.803  13.913  0.00  0.00    +0.000 A 
ATOM      9  C   UNL     1       6.530   4.218  13.464  0.00  0.00    +0.000 A 
ATOM     10  C   UNL     1       7.326   5.030  14.276  0.00  0.00    +0.000 A 
ATOM     11  C   UNL     1       6.906   5.453  15.532  0.00  0.00    +0.000 A 
ATOM     12  N   UNL     1       7.700   6.269  16.232  0.00  0.00    +0.000 NA
ATOM     13  H   UNL     1       4.058   4.210  18.103  0.00  0.00    +0.000 HD
ENDROOT
BRANCH   5  14
ATOM     14  C   UNL     1       3.245   6.008  18.637  0.00  0.00    +0.000 A 
ATOM     15  C   UNL     1       2.780   5.548  19.872  0.00  0.00    +0.000 A 
ATOM     16  C   UNL     1       1.947   6.348  20.662  0.00  0.00    +0.000 A 
ATOM     17  C   UNL     1       1.543   7.605  20.210  0.00  0.00    +0.000 A 
ATOM     18  C   UNL     1       1.966   8.074  18.961  0.00  0.00    +0.000 A 
ATOM     19  C   UNL     1       2.814   7.266  18.192  0.00  0.00    +0.000 A 
BRANCH  18  20
ATOM     20  C   UNL     1       1.521   9.406  18.416  0.00  0.00    +0.000 C 
ATOM     21  F   UNL     1       1.074  10.265  19.375  0.00  0.00    +0.000 F 
ATOM     22  F   UNL     1       2.514  10.066  17.760  0.00  0.00    +0.000 F 
ATOM     23  F   UNL     1       0.499   9.286  17.522  0.00  0.00    +0.000 F 
ENDBRANCH  18  20
ENDBRANCH   5  14
TORSDOF 2
ENDMDL
MODEL 6
REMARK VINA RESULT:      -7.7      3.458      4.099
REMARK  Name = 
REMARK  3 active torsions:
REMARK  status: ('A' for Active; 'I' for Inactive)
REMARK    1  A    between atoms: C_1  and  C_2
REMARK    2  A    between atoms: N_5  and  C_6
REMARK    3  A    between atoms: C_10  and  C_11
REMARK                            x       y       z     vdW  Elec       q    Type
REMARK                         _______ _______ _______ _____ _____    ______ ____
ROOT
ATOM      1  C   UNL     1       8.016   5.895  19.363  0.00  0.00    +0.000 C 
ATOM      2  C   UNL     1       7.106   5.474  18.251  0.00  0.00    +0.000 A 
ATOM      3  N   UNL     1       5.791   5.508  18.484  0.00  0.00    +0.000 NA
ATOM      4  C   UNL     1       4.970   5.173  17.470  0.00  0.00    +0.000 A 
ATOM      5  N   UNL     1       3.572   5.206  17.711  0.00  0.00    +0.000 N 
ATOM      6  C   UNL     1       5.452   4.801  16.208  0.00  0.00    +0.000 A 
ATOM      7  C   UNL     1       4.642   4.494  15.084  0.00  0.00    +0.000 A 
ATOM      8  C   UNL     1       5.221   4.204  13.850  0.00  0.00    +0.000 A 
ATOM      9  C   UNL     1       6.604   4.202  13.730  0.00  0.00    +0.000 A 
ATOM     10  C   UNL     1       7.398   4.494  14.842  0.00  0.00    +0.000 A 
ATOM     11  C   UNL     1       6.847   4.804  16.079  0.00  0.00    +0.000 A 
ATOM     12  N   UNL     1       7.668   5.122  17.085  0.00  0.00    +0.000 NA
ATOM     13  H   UNL     1       3.216   4.258  17.749  0.00  0.00    +0.000 HD
ENDROOT
BRANCH   5  14
ATOM     14  C   UNL     1       2.927   6.098  18.593  0.00  0.00    +0.000 A 
ATOM     15  C   UNL     1       2.529   5.682  19.866  0.00  0.00    +0.000 A 
ATOM     16  C   UNL     1       1.826   6.547  20.711  0.00  0.00    +0.000 A 
ATOM     17  C   UNL     1       1.483   7.829  20.278  0.00  0.00    +0.000 A 
ATOM     18  C   UNL     1       1.839   8.257  18.994  0.00  0.00    +0.000 A 
ATOM     19  C   UNL     1       2.558   7.383  18.169  0.00  0.00    +0.000 A 
BRANCH  18  20
ATOM     20  C   UNL     1       1.453   9.616  18.470  0.00  0.00    +0.000 C 
ATOM     21  F   UNL     1       0.347   9.598  17.673  0.00  0.00    +0.000 F 
ATOM     22  F   UNL     1       1.182  10.507  19.462  0.00  0.00    +0.000 F 
ATOM     23  F   UNL     1       2.439  10.183  17.718  0.00  0.00    +0.000 F 
ENDBRANCH  18  20
ENDBRANCH   5  14
TORSDOF 2
ENDMDL
MODEL 7
REMARK VINA RESULT:      -7.7      4.549      6.132
REMARK  Name = 
REMARK  3 active torsions:
REMARK  status: ('A' for Active; 'I' for Inactive)
REMARK    1  A    between atoms: C_1  and  C_2
REMARK    2  A    between atoms: N_5  and  C_6
REMARK    3  A    between atoms: C_10  and  C_11
REMARK                            x       y       z     vdW  Elec       q    Type
REMARK                         _______ _______ _______ _____ _____    ______ ____
ROOT
ATOM      1  C   UNL     1       1.398   3.414  18.227  0.00  0.00    +0.000 C 
ATOM      2  C   UNL     1       2.512   4.367  17.923  0.00  0.00    +0.000 A 
ATOM      3  N   UNL     1       2.248   5.674  18.013  0.00  0.00    +0.000 NA
ATOM      4  C   UNL     1       3.260   6.532  17.784  0.00  0.00    +0.000 A 
ATOM      5  N   UNL     1       2.986   7.921  17.876  0.00  0.00    +0.000 N 
ATOM      6  C   UNL     1       4.553   6.096  17.464  0.00  0.00    +0.000 A 
ATOM      7  C   UNL     1       5.675   6.943  17.270  0.00  0.00    +0.000 A 
ATOM      8  C   UNL     1       6.936   6.406  17.024  0.00  0.00    +0.000 A 
ATOM      9  C   UNL     1       7.088   5.028  16.956  0.00  0.00    +0.000 A 
ATOM     10  C   UNL     1       5.979   4.197  17.138  0.00  0.00    +0.000 A 
ATOM     11  C   UNL     1       4.713   4.706  17.401  0.00  0.00    +0.000 A 
ATOM     12  N   UNL     1       3.709   3.848  17.614  0.00  0.00    +0.000 NA
ATOM     13  H   UNL     1       2.996   8.327  16.949  0.00  0.00    +0.000 HD
ENDROOT
BRANCH   5  14
ATOM     14  C   UNL     1       2.038   8.499  18.746  0.00  0.00    +0.000 A 
ATOM     15  C   UNL     1       1.933   8.073  20.074  0.00  0.00    +0.000 A 
ATOM     16  C   UNL     1       0.944   8.597  20.913  0.00  0.00    +0.000 A 
ATOM     17  C   UNL     1       0.028   9.529  20.425  0.00  0.00    +0.000 A 
ATOM     18  C   UNL     1       0.089   9.945  19.090  0.00  0.00    +0.000 A 
ATOM     19  C   UNL     1       1.097   9.422  18.269  0.00  0.00    +0.000 A 
BRANCH  18  20
ATOM     20  C   UNL     1      -0.905  10.916  18.510  0.00  0.00    +0.000 C 
ATOM     21  F   UNL     1      -1.961  11.171  19.333  0.00  0.00    +0.000 F 
ATOM     22  F   UNL     1      -0.355  12.128  18.225  0.00  0.00    +0.000 F 
ATOM     23  F   UNL     1      -1.448  10.469  17.342  0.00  0.00    +0.000 F 
ENDBRANCH  18  20
ENDBRANCH   5  14
TORSDOF 2
ENDMDL
MODEL 8
REMARK VINA RESULT:      -7.6      3.688      5.448
REMARK  Name = 
REMARK  3 active torsions:
REMARK  status: ('A' for Active; 'I' for Inactive)
REMARK    1  A    between atoms: C_1  and  C_2
REMARK    2  A    between atoms: N_5  and  C_6
REMARK    3  A    between atoms: C_10  and  C_11
REMARK                            x       y       z     vdW  Elec       q    Type
REMARK                         _______ _______ _______ _____ _____    ______ ____
ROOT
ATOM      1  C   UNL     1       1.498   3.516  18.403  0.00  0.00    +0.000 C 
ATOM      2  C   UNL     1       2.608   4.487  18.146  0.00  0.00    +0.000 A 
ATOM      3  N   UNL     1       2.285   5.779  18.030  0.00  0.00    +0.000 NA
ATOM      4  C   UNL     1       3.288   6.658  17.845  0.00  0.00    +0.000 A 
ATOM      5  N   UNL     1       2.952   8.030  17.719  0.00  0.00    +0.000 N 
ATOM      6  C   UNL     1       4.630   6.259  17.775  0.00  0.00    +0.000 A 
ATOM      7  C   UNL     1       5.736   7.138  17.642  0.00  0.00    +0.000 A 
ATOM      8  C   UNL     1       7.040   6.646  17.653  0.00  0.00    +0.000 A 
ATOM      9  C   UNL     1       7.251   5.281  17.783  0.00  0.00    +0.000 A 
ATOM     10  C   UNL     1       6.159   4.417  17.905  0.00  0.00    +0.000 A 
ATOM     11  C   UNL     1       4.850   4.883  17.913  0.00  0.00    +0.000 A 
ATOM     12  N   UNL     1       3.858   4.002  18.084  0.00  0.00    +0.000 NA
ATOM     13  H   UNL     1       3.088   8.322  16.759  0.00  0.00    +0.000 HD
ENDROOT
BRANCH   5  14
ATOM     14  C   UNL     1       1.862   8.655  18.361  0.00  0.00    +0.000 A 
ATOM     15  C   UNL     1       0.976   9.463  17.642  0.00  0.00    +0.000 A 
ATOM     16  C   UNL     1      -0.061  10.138  18.294  0.00  0.00    +0.000 A 
ATOM     17  C   UNL     1      -0.204  10.039  19.679  0.00  0.00    +0.000 A 
ATOM     18  C   UNL     1       0.691   9.265  20.426  0.00  0.00    +0.000 A 
ATOM     19  C   UNL     1       1.713   8.582  19.753  0.00  0.00    +0.000 A 
BRANCH  18  20
ATOM     20  C   UNL     1       0.600   9.164  21.926  0.00  0.00    +0.000 C 
ATOM     21  F   UNL     1       1.750   8.728  22.513  0.00  0.00    +0.000 F 
ATOM     22  F   UNL     1       0.310  10.355  22.518  0.00  0.00    +0.000 F 
ATOM     23  F   UNL     1      -0.372   8.299  22.331  0.00  0.00    +0.000 F 
ENDBRANCH  18  20
ENDBRANCH   5  14
TORSDOF 2
ENDMDL
MODEL 9
REMARK VINA RESULT:      -7.6      1.502      2.003
REMARK  Name = 
REMARK  3 active torsions:
REMARK  status: ('A' for Active; 'I' for Inactive)
REMARK    1  A    between atoms: C_1  and  C_2
REMARK    2  A    between atoms: N_5  and  C_6
REMARK    3  A    between atoms: C_10  and  C_11
REMARK                            x       y       z     vdW  Elec       q    Type
REMARK                         _______ _______ _______ _____ _____    ______ ____
ROOT
ATOM      1  C   UNL     1       7.354   5.868  19.027  0.00  0.00    +0.000 C 
ATOM      2  C   UNL     1       6.878   5.188  17.782  0.00  0.00    +0.000 A 
ATOM      3  N   UNL     1       5.845   4.347  17.894  0.00  0.00    +0.000 NA
ATOM      4  C   UNL     1       5.387   3.769  16.767  0.00  0.00    +0.000 A 
ATOM      5  N   UNL     1       4.293   2.874  16.879  0.00  0.00    +0.000 N 
ATOM      6  C   UNL     1       5.953   4.025  15.510  0.00  0.00    +0.000 A 
ATOM      7  C   UNL     1       5.482   3.497  14.281  0.00  0.00    +0.000 A 
ATOM      8  C   UNL     1       6.072   3.869  13.075  0.00  0.00    +0.000 A 
ATOM      9  C   UNL     1       7.140   4.756  13.085  0.00  0.00    +0.000 A 
ATOM     10  C   UNL     1       7.607   5.267  14.299  0.00  0.00    +0.000 A 
ATOM     11  C   UNL     1       7.027   4.924  15.514  0.00  0.00    +0.000 A 
ATOM     12  N   UNL     1       7.496   5.492  16.631  0.00  0.00    +0.000 NA
ATOM     13  H   UNL     1       4.617   1.927  16.727  0.00  0.00    +0.000 HD
ENDROOT
BRANCH   5  14
ATOM     14  C   UNL     1       3.259   2.981  17.833  0.00  0.00    +0.000 A 
ATOM     15  C   UNL     1       2.206   2.062  17.853  0.00  0.00    +0.000 A 
ATOM     16  C   UNL     1       1.146   2.212  18.753  0.00  0.00    +0.000 A 
ATOM     17  C   UNL     1       1.110   3.303  19.622  0.00  0.00    +0.000 A 
ATOM     18  C   UNL     1       2.134   4.257  19.598  0.00  0.00    +0.000 A 
ATOM     19  C   UNL     1       3.196   4.080  18.702  0.00  0.00    +0.000 A 
BRANCH  18  20
ATOM     20  C   UNL     1       2.115   5.471  20.488  0.00  0.00    +0.000 C 
ATOM     21  F   UNL     1       2.551   5.224  21.756  0.00  0.00    +0.000 F 
ATOM     22  F   UNL     1       2.896   6.483  20.019  0.00  0.00    +0.000 F 
ATOM     23  F   UNL     1       0.865   5.997  20.625  0.00  0.00    +0.000 F 
ENDBRANCH  18  20
ENDBRANCH   5  14
TORSDOF 2
ENDMDL
