MODEL 1
REMARK VINA RESULT:      -8.8      0.000      0.000
REMARK  Name = 
REMARK  5 active torsions:
REMARK  status: ('A' for Active; 'I' for Inactive)
REMARK    1  A    between atoms: C_1  and  C_2
REMARK    2  A    between atoms: C_4  and  C_5
REMARK    3  A    between atoms: C_5  and  C_6
REMARK    4  A    between atoms: C_10  and  C_11
REMARK    5  A    between atoms: C_17  and  C_18
REMARK                            x       y       z     vdW  Elec       q    Type
REMARK                         _______ _______ _______ _____ _____    ______ ____
ROOT
ATOM      1  C   UNL     1       8.009   5.254  18.915  0.00  0.00    +0.000 C 
ATOM      2  C   UNL     1       6.982   5.615  17.880  0.00  0.00    +0.000 A 
ATOM      3  C   UNL     1       5.757   6.163  18.277  0.00  0.00    +0.000 A 
ATOM      4  C   UNL     1       4.826   6.508  17.299  0.00  0.00    +0.000 A 
ATOM      5  C   UNL     1       5.164   6.295  15.971  0.00  0.00    +0.000 A 
ATOM      6  C   UNL     1       6.373   5.671  15.645  0.00  0.00    +0.000 A 
ATOM      7  N   UNL     1       7.291   5.340  16.582  0.00  0.00    +0.000 NA
ENDROOT
BRANCH   6   8
ATOM      8  C   UNL     1       6.459   5.122  14.238  0.00  0.00    +0.000 C 
ATOM      9  C   UNL     1       7.748   5.284  13.435  0.00  0.00    +0.000 C 
ATOM     10  C   UNL     1       7.468   4.765  12.014  0.00  0.00    +0.000 C 
ATOM     11  C   UNL     1       6.890   3.342  12.009  0.00  0.00    +0.000 C 
ATOM     12  N   UNL     1       5.758   3.167  12.920  0.00  0.00    +0.000 NA
ATOM     13  C   UNL     1       6.083   3.629  14.271  0.00  0.00    +0.000 C 
ATOM     14  H   UNL     1       5.503   2.180  12.962  0.00  0.00    +0.000 HD
ENDBRANCH   6   8
BRANCH   4  15
ATOM     15  C   UNL     1       3.428   6.969  17.634  0.00  0.00    +0.000 C 
BRANCH  15  16
ATOM     16  C   UNL     1       2.730   6.042  18.610  0.00  0.00    +0.000 A 
ATOM     17  C   UNL     1       2.297   6.500  19.864  0.00  0.00    +0.000 A 
ATOM     18  C   UNL     1       1.610   5.653  20.735  0.00  0.00    +0.000 A 
ATOM     19  C   UNL     1       1.344   4.336  20.365  0.00  0.00    +0.000 A 
ATOM     20  C   UNL     1       1.757   3.855  19.114  0.00  0.00    +0.000 A 
ATOM     21  C   UNL     1       2.450   4.717  18.247  0.00  0.00    +0.000 A 
BRANCH  20  22
ATOM     22  C   UNL     1       1.467   2.439  18.681  0.00  0.00    +0.000 C 
ATOM     23  F   UNL     1       0.147   2.193  18.455  0.00  0.00    +0.000 F 
ATOM     24  F   UNL     1       2.111   2.105  17.529  0.00  0.00    +0.000 F 
ATOM     25  F   UNL     1       1.864   1.523  19.608  0.00  0.00    +0.000 F 
ENDBRANCH  20  22
ENDBRANCH  15  16
ENDBRANCH   4  15
TORSDOF 4
ENDMDL
MODEL 2
REMARK VINA RESULT:      -8.2      1.710      2.420
REMARK  Name = 
REMARK  5 active torsions:
REMARK  status: ('A' for Active; 'I' for Inactive)
REMARK    1  A    between atoms: C_1  and  C_2
REMARK    2  A    between atoms: C_4  and  C_5
REMARK    3  A    between atoms: C_5  and  C_6
REMARK    4  A    between atoms: C_10  and  C_11
REMARK    5  A    between atoms: C_17  and  C_18
REMARK                            x       y       z     vdW  Elec       q    Type
REMARK                         _______ _______ _______ _____ _____    ______ ____
ROOT
ATOM      1  C   UNL     1       8.071   6.916  18.452  0.00  0.00    +0.000 C 
ATOM      2  C   UNL     1       6.945   6.463  17.568  0.00  0.00    +0.000 A 
ATOM      3  C   UNL     1       5.625   6.550  18.026  0.00  0.00    +0.000 A 
ATOM      4  C   UNL     1       4.593   6.141  17.183  0.00  0.00    +0.000 A 
ATOM      5  C   UNL     1       4.926   5.671  15.922  0.00  0.00    +0.000 A 
ATOM      6  C   UNL     1       6.270   5.535  15.556  0.00  0.00    +0.000 A 
ATOM      7  N   UNL     1       7.282   5.938  16.358  0.00  0.00    +0.000 NA
ENDROOT
BRANCH   6   8
ATOM      8  C   UNL     1       6.528   4.649  14.357  0.00  0.00    +0.000 C 
ATOM      9  C   UNL     1       5.355   4.000  13.623  0.00  0.00    +0.000 C 
ATOM     10  C   UNL     1       5.947   3.054  12.565  0.00  0.00    +0.000 C 
ATOM     11  C   UNL     1       6.962   3.755  11.649  0.00  0.00    +0.000 C 
ATOM     12  N   UNL     1       7.980   4.514  12.377  0.00  0.00    +0.000 NA
ATOM     13  C   UNL     1       7.372   5.436  13.339  0.00  0.00    +0.000 C 
ATOM     14  H   UNL     1       8.542   5.050  11.717  0.00  0.00    +0.000 HD
ENDBRANCH   6   8
BRANCH   4  15
ATOM     15  C   UNL     1       3.155   6.062  17.637  0.00  0.00    +0.000 C 
BRANCH  15  16
ATOM     16  C   UNL     1       2.785   4.684  18.152  0.00  0.00    +0.000 A 
ATOM     17  C   UNL     1       2.662   3.592  17.278  0.00  0.00    +0.000 A 
ATOM     18  C   UNL     1       2.372   2.317  17.766  0.00  0.00    +0.000 A 
ATOM     19  C   UNL     1       2.202   2.114  19.135  0.00  0.00    +0.000 A 
ATOM     20  C   UNL     1       2.328   3.186  20.030  0.00  0.00    +0.000 A 
ATOM     21  C   UNL     1       2.618   4.466  19.525  0.00  0.00    +0.000 A 
BRANCH  20  22
ATOM     22  C   UNL     1       2.166   2.991  21.517  0.00  0.00    +0.000 C 
ATOM     23  F   UNL     1       2.423   4.111  22.249  0.00  0.00    +0.000 F 
ATOM     24  F   UNL     1       0.905   2.606  21.858  0.00  0.00    +0.000 F 
ATOM     25  F   UNL     1       2.994   2.027  22.007  0.00  0.00    +0.000 F 
ENDBRANCH  20  22
ENDBRANCH  15  16
ENDBRANCH   4  15
TORSDOF 4
ENDMDL
MODEL 3
REMARK VINA RESULT:      -8.2      4.356      5.689
REMARK  Name = 
REMARK  5 active torsions:
REMARK  status: ('A' for Active; 'I' for Inactive)
REMARK    1  A    between atoms: C_1  and  C_2
REMARK    2  A    between atoms: C_4  and  C_5
REMARK    3  A    between atoms: C_5  and  C_6
REMARK    4  A    between atoms: C_10  and  C_11
REMARK    5  A    between atoms: C_17  and  C_18
REMARK                            x       y       z     vdW  Elec       q    Type
REMARK                         _______ _______ _______ _____ _____    ______ ____
ROOT
ATOM      1  C   UNL     1       1.682   5.167  20.639  0.00  0.00    +0.000 C 
ATOM      2  C   UNL     1       2.431   5.940  19.591  0.00  0.00    +0.000 A 
ATOM      3  C   UNL     1       1.960   7.194  19.185  0.00  0.00    +0.000 A 
ATOM      4  C   UNL     1       2.679   7.903  18.225  0.00  0.00    +0.000 A 
ATOM      5  C   UNL     1       3.837   7.330  17.720  0.00  0.00    +0.000 A 
ATOM      6  C   UNL     1       4.209   6.039  18.110  0.00  0.00    +0.000 A 
ATOM      7  N   UNL     1       3.528   5.343  19.049  0.00  0.00    +0.000 NA
ENDROOT
BRANCH   6   8
ATOM      8  C   UNL     1       5.224   5.360  17.217  0.00  0.00    +0.000 C 
ATOM      9  C   UNL     1       4.759   4.366  16.154  0.00  0.00    +0.000 C 
ATOM     10  C   UNL     1       6.019   3.746  15.527  0.00  0.00    +0.000 C 
ATOM     11  C   UNL     1       7.008   4.806  15.019  0.00  0.00    +0.000 C 
ATOM     12  N   UNL     1       7.306   5.848  16.002  0.00  0.00    +0.000 NA
ATOM     13  C   UNL     1       6.080   6.444  16.537  0.00  0.00    +0.000 C 
ATOM     14  H   UNL     1       7.865   6.580  15.564  0.00  0.00    +0.000 HD
ENDBRANCH   6   8
BRANCH   4  15
ATOM     15  C   UNL     1       2.178   9.193  17.620  0.00  0.00    +0.000 C 
BRANCH  15  16
ATOM     16  C   UNL     1       0.945   9.722  18.327  0.00  0.00    +0.000 A 
ATOM     17  C   UNL     1       1.036  10.326  19.591  0.00  0.00    +0.000 A 
ATOM     18  C   UNL     1      -0.096  10.856  20.212  0.00  0.00    +0.000 A 
ATOM     19  C   UNL     1      -1.336  10.793  19.578  0.00  0.00    +0.000 A 
ATOM     20  C   UNL     1      -1.453  10.204  18.311  0.00  0.00    +0.000 A 
ATOM     21  C   UNL     1      -0.306   9.671  17.697  0.00  0.00    +0.000 A 
BRANCH  20  22
ATOM     22  C   UNL     1      -2.779  10.138  17.594  0.00  0.00    +0.000 C 
ATOM     23  F   UNL     1      -2.671  10.151  16.237  0.00  0.00    +0.000 F 
ATOM     24  F   UNL     1      -3.481   9.011  17.901  0.00  0.00    +0.000 F 
ATOM     25  F   UNL     1      -3.594  11.182  17.915  0.00  0.00    +0.000 F 
ENDBRANCH  20  22
ENDBRANCH  15  16
ENDBRANCH   4  15
TORSDOF 4
ENDMDL
MODEL 4
REMARK VINA RESULT:      -8.2      0.788      1.385
REMARK  Name = 
REMARK  5 active torsions:
REMARK  status: ('A' for Active; 'I' for Inactive)
REMARK    1  A    between atoms: C_1  and  C_2
REMARK    2  A    between atoms: C_4  and  C_5
REMARK    3  A    between atoms: C_5  and  C_6
REMARK    4  A    between atoms: C_10  and  C_11
REMARK    5  A    between atoms: C_17  and  C_18
REMARK                            x       y       z     vdW  Elec       q    Type
REMARK                         _______ _______ _______ _____ _____    ______ ____
ROOT
ATOM      1  C   UNL     1       8.146   6.743  18.666  0.00  0.00    +0.000 C 
ATOM      2  C   UNL     1       7.032   6.539  17.680  0.00  0.00    +0.000 A 
ATOM      3  C   UNL     1       5.733   6.949  18.003  0.00  0.00    +0.000 A 
ATOM      4  C   UNL     1       4.718   6.766  17.066  0.00  0.00    +0.000 A 
ATOM      5  C   UNL     1       5.047   6.190  15.849  0.00  0.00    +0.000 A 
ATOM      6  C   UNL     1       6.349   5.730  15.619  0.00  0.00    +0.000 A 
ATOM      7  N   UNL     1       7.347   5.910  16.514  0.00  0.00    +0.000 NA
ENDROOT
BRANCH   6   8
ATOM      8  C   UNL     1       6.501   4.769  14.460  0.00  0.00    +0.000 C 
ATOM      9  C   UNL     1       5.259   4.204  13.772  0.00  0.00    +0.000 C 
ATOM     10  C   UNL     1       5.740   3.157  12.752  0.00  0.00    +0.000 C 
ATOM     11  C   UNL     1       6.802   3.715  11.793  0.00  0.00    +0.000 C 
ATOM     12  N   UNL     1       7.900   4.405  12.471  0.00  0.00    +0.000 NA
ATOM     13  C   UNL     1       7.399   5.424  13.396  0.00  0.00    +0.000 C 
ATOM     14  H   UNL     1       8.500   4.854  11.779  0.00  0.00    +0.000 HD
ENDBRANCH   6   8
BRANCH   4  15
ATOM     15  C   UNL     1       3.266   7.043  17.376  0.00  0.00    +0.000 C 
BRANCH  15  16
ATOM     16  C   UNL     1       2.703   6.089  18.412  0.00  0.00    +0.000 A 
ATOM     17  C   UNL     1       2.375   6.532  19.703  0.00  0.00    +0.000 A 
ATOM     18  C   UNL     1       1.810   5.659  20.634  0.00  0.00    +0.000 A 
ATOM     19  C   UNL     1       1.563   4.332  20.289  0.00  0.00    +0.000 A 
ATOM     20  C   UNL     1       1.872   3.866  19.003  0.00  0.00    +0.000 A 
ATOM     21  C   UNL     1       2.443   4.754  18.075  0.00  0.00    +0.000 A 
BRANCH  20  22
ATOM     22  C   UNL     1       1.599   2.439  18.596  0.00  0.00    +0.000 C 
ATOM     23  F   UNL     1       2.133   1.515  19.442  0.00  0.00    +0.000 F 
ATOM     24  F   UNL     1       0.267   2.161  18.533  0.00  0.00    +0.000 F 
ATOM     25  F   UNL     1       2.098   2.148  17.362  0.00  0.00    +0.000 F 
ENDBRANCH  20  22
ENDBRANCH  15  16
ENDBRANCH   4  15
TORSDOF 4
ENDMDL
MODEL 5
REMARK VINA RESULT:      -8.2      1.580      2.183
REMARK  Name = 
REMARK  5 active torsions:
REMARK  status: ('A' for Active; 'I' for Inactive)
REMARK    1  A    between atoms: C_1  and  C_2
REMARK    2  A    between atoms: C_4  and  C_5
REMARK    3  A    between atoms: C_5  and  C_6
REMARK    4  A    between atoms: C_10  and  C_11
REMARK    5  A    between atoms: C_17  and  C_18
REMARK                            x       y       z     vdW  Elec       q    Type
REMARK                         _______ _______ _______ _____ _____    ______ ____
ROOT
ATOM      1  C   UNL     1       7.971   6.833  18.493  0.00  0.00    +0.000 C 
ATOM      2  C   UNL     1       6.831   6.531  17.562  0.00  0.00    +0.000 A 
ATOM      3  C   UNL     1       5.517   6.548  18.044  0.00  0.00    +0.000 A 
ATOM      4  C   UNL     1       4.474   6.282  17.159  0.00  0.00    +0.000 A 
ATOM      5  C   UNL     1       4.790   6.020  15.835  0.00  0.00    +0.000 A 
ATOM      6  C   UNL     1       6.128   5.941  15.435  0.00  0.00    +0.000 A 
ATOM      7  N   UNL     1       7.151   6.206  16.279  0.00  0.00    +0.000 NA
ENDROOT
BRANCH   6   8
ATOM      8  C   UNL     1       6.367   5.258  14.106  0.00  0.00    +0.000 C 
ATOM      9  C   UNL     1       7.721   5.396  13.412  0.00  0.00    +0.000 C 
ATOM     10  C   UNL     1       7.596   4.725  12.033  0.00  0.00    +0.000 C 
ATOM     11  C   UNL     1       7.071   3.284  12.124  0.00  0.00    +0.000 C 
ATOM     12  N   UNL     1       5.864   3.152  12.940  0.00  0.00    +0.000 NA
ATOM     13  C   UNL     1       6.042   3.761  14.260  0.00  0.00    +0.000 C 
ATOM     14  H   UNL     1       5.640   2.164  13.060  0.00  0.00    +0.000 HD
ENDBRANCH   6   8
BRANCH   4  15
ATOM     15  C   UNL     1       3.040   6.136  17.612  0.00  0.00    +0.000 C 
BRANCH  15  16
ATOM     16  C   UNL     1       2.739   4.746  18.138  0.00  0.00    +0.000 A 
ATOM     17  C   UNL     1       2.690   3.639  17.277  0.00  0.00    +0.000 A 
ATOM     18  C   UNL     1       2.462   2.356  17.777  0.00  0.00    +0.000 A 
ATOM     19  C   UNL     1       2.282   2.159  19.145  0.00  0.00    +0.000 A 
ATOM     20  C   UNL     1       2.335   3.247  20.028  0.00  0.00    +0.000 A 
ATOM     21  C   UNL     1       2.562   4.535  19.512  0.00  0.00    +0.000 A 
BRANCH  20  22
ATOM     22  C   UNL     1       2.160   3.062  21.515  0.00  0.00    +0.000 C 
ATOM     23  F   UNL     1       2.474   4.166  22.247  0.00  0.00    +0.000 F 
ATOM     24  F   UNL     1       0.880   2.742  21.853  0.00  0.00    +0.000 F 
ATOM     25  F   UNL     1       2.937   2.055  22.007  0.00  0.00    +0.000 F 
ENDBRANCH  20  22
ENDBRANCH  15  16
ENDBRANCH   4  15
TORSDOF 4
ENDMDL
MODEL 6
REMARK VINA RESULT:      -8.0      3.981      5.810
REMARK  Name = 
REMARK  5 active torsions:
REMARK  status: ('A' for Active; 'I' for Inactive)
REMARK    1  A    between atoms: C_1  and  C_2
REMARK    2  A    between atoms: C_4  and  C_5
REMARK    3  A    between atoms: C_5  and  C_6
REMARK    4  A    between atoms: C_10  and  C_11
REMARK    5  A    between atoms: C_17  and  C_18
REMARK                            x       y       z     vdW  Elec       q    Type
REMARK                         _______ _______ _______ _____ _____    ______ ____
ROOT
ATOM      1  C   UNL     1       0.483   2.151  18.686  0.00  0.00    +0.000 C 
ATOM      2  C   UNL     1       1.590   3.128  18.964  0.00  0.00    +0.000 A 
ATOM      3  C   UNL     1       1.353   4.227  19.798  0.00  0.00    +0.000 A 
ATOM      4  C   UNL     1       2.398   5.111  20.057  0.00  0.00    +0.000 A 
ATOM      5  C   UNL     1       3.631   4.854  19.477  0.00  0.00    +0.000 A 
ATOM      6  C   UNL     1       3.780   3.782  18.590  0.00  0.00    +0.000 A 
ATOM      7  N   UNL     1       2.778   2.909  18.337  0.00  0.00    +0.000 NA
ENDROOT
BRANCH   6   8
ATOM      8  C   UNL     1       5.013   3.833  17.714  0.00  0.00    +0.000 C 
ATOM      9  C   UNL     1       4.908   4.354  16.282  0.00  0.00    +0.000 C 
ATOM     10  C   UNL     1       6.279   4.138  15.617  0.00  0.00    +0.000 C 
ATOM     11  C   UNL     1       7.431   4.743  16.432  0.00  0.00    +0.000 C 
ATOM     12  N   UNL     1       7.411   4.364  17.846  0.00  0.00    +0.000 NA
ATOM     13  C   UNL     1       6.104   4.631  18.451  0.00  0.00    +0.000 C 
ATOM     14  H   UNL     1       8.122   4.893  18.351  0.00  0.00    +0.000 HD
ENDBRANCH   6   8
BRANCH   4  15
ATOM     15  C   UNL     1       2.205   6.398  20.824  0.00  0.00    +0.000 C 
BRANCH  15  16
ATOM     16  C   UNL     1       1.919   7.577  19.914  0.00  0.00    +0.000 A 
ATOM     17  C   UNL     1       2.413   7.616  18.601  0.00  0.00    +0.000 A 
ATOM     18  C   UNL     1       2.102   8.681  17.753  0.00  0.00    +0.000 A 
ATOM     19  C   UNL     1       1.292   9.720  18.204  0.00  0.00    +0.000 A 
ATOM     20  C   UNL     1       0.777   9.701  19.508  0.00  0.00    +0.000 A 
ATOM     21  C   UNL     1       1.099   8.624  20.353  0.00  0.00    +0.000 A 
BRANCH  20  22
ATOM     22  C   UNL     1      -0.117  10.805  20.018  0.00  0.00    +0.000 C 
ATOM     23  F   UNL     1       0.415  12.050  19.880  0.00  0.00    +0.000 F 
ATOM     24  F   UNL     1      -1.318  10.839  19.377  0.00  0.00    +0.000 F 
ATOM     25  F   UNL     1      -0.407  10.667  21.342  0.00  0.00    +0.000 F 
ENDBRANCH  20  22
ENDBRANCH  15  16
ENDBRANCH   4  15
TORSDOF 4
ENDMDL
MODEL 7
REMARK VINA RESULT:      -7.8      4.625      5.896
REMARK  Name = 
REMARK  5 active torsions:
REMARK  status: ('A' for Active; 'I' for Inactive)
REMARK    1  A    between atoms: C_1  and  C_2
REMARK    2  A    between atoms: C_4  and  C_5
REMARK    3  A    between atoms: C_5  and  C_6
REMARK    4  A    between atoms: C_10  and  C_11
REMARK    5  A    between atoms: C_17  and  C_18
REMARK                            x       y       z     vdW  Elec       q    Type
REMARK                         _______ _______ _______ _____ _____    ______ ____
ROOT
ATOM      1  C   UNL     1       1.643   5.714  20.943  0.00  0.00    +0.000 C 
ATOM      2  C   UNL     1       2.257   6.388  19.748  0.00  0.00    +0.000 A 
ATOM      3  C   UNL     1       1.884   7.697  19.421  0.00  0.00    +0.000 A 
ATOM      4  C   UNL     1       2.480   8.309  18.320  0.00  0.00    +0.000 A 
ATOM      5  C   UNL     1       3.422   7.590  17.602  0.00  0.00    +0.000 A 
ATOM      6  C   UNL     1       3.691   6.257  17.934  0.00  0.00    +0.000 A 
ATOM      7  N   UNL     1       3.130   5.653  19.006  0.00  0.00    +0.000 NA
ENDROOT
BRANCH   6   8
ATOM      8  C   UNL     1       4.402   5.455  16.866  0.00  0.00    +0.000 C 
ATOM      9  C   UNL     1       5.271   6.166  15.831  0.00  0.00    +0.000 C 
ATOM     10  C   UNL     1       5.722   5.108  14.810  0.00  0.00    +0.000 C 
ATOM     11  C   UNL     1       6.388   3.893  15.475  0.00  0.00    +0.000 C 
ATOM     12  N   UNL     1       5.611   3.333  16.581  0.00  0.00    +0.000 NA
ATOM     13  C   UNL     1       5.244   4.365  17.553  0.00  0.00    +0.000 C 
ATOM     14  H   UNL     1       6.161   2.615  17.054  0.00  0.00    +0.000 HD
ENDBRANCH   6   8
BRANCH   4  15
ATOM     15  C   UNL     1       2.041   9.660  17.805  0.00  0.00    +0.000 C 
BRANCH  15  16
ATOM     16  C   UNL     1       0.803  10.175  18.512  0.00  0.00    +0.000 A 
ATOM     17  C   UNL     1       0.891  10.805  19.763  0.00  0.00    +0.000 A 
ATOM     18  C   UNL     1      -0.247  11.322  20.384  0.00  0.00    +0.000 A 
ATOM     19  C   UNL     1      -1.490  11.219  19.763  0.00  0.00    +0.000 A 
ATOM     20  C   UNL     1      -1.605  10.603  18.508  0.00  0.00    +0.000 A 
ATOM     21  C   UNL     1      -0.452  10.084  17.895  0.00  0.00    +0.000 A 
BRANCH  20  22
ATOM     22  C   UNL     1      -2.936  10.493  17.805  0.00  0.00    +0.000 C 
ATOM     23  F   UNL     1      -3.049  11.301  16.715  0.00  0.00    +0.000 F 
ATOM     24  F   UNL     1      -3.187   9.230  17.361  0.00  0.00    +0.000 F 
ATOM     25  F   UNL     1      -3.980  10.816  18.619  0.00  0.00    +0.000 F 
ENDBRANCH  20  22
ENDBRANCH  15  16
ENDBRANCH   4  15
TORSDOF 4
ENDMDL
MODEL 8
REMARK VINA RESULT:      -7.7      3.137      6.634
REMARK  Name = 
REMARK  5 active torsions:
REMARK  status: ('A' for Active; 'I' for Inactive)
REMARK    1  A    between atoms: C_1  and  C_2
REMARK    2  A    between atoms: C_4  and  C_5
REMARK    3  A    between atoms: C_5  and  C_6
REMARK    4  A    between atoms: C_10  and  C_11
REMARK    5  A    between atoms: C_17  and  C_18
REMARK                            x       y       z     vdW  Elec       q    Type
REMARK                         _______ _______ _______ _____ _____    ______ ____
ROOT
ATOM      1  C   UNL     1       7.828   5.525  19.633  0.00  0.00    +0.000 C 
ATOM      2  C   UNL     1       6.664   5.202  18.741  0.00  0.00    +0.000 A 
ATOM      3  C   UNL     1       6.603   5.747  17.453  0.00  0.00    +0.000 A 
ATOM      4  C   UNL     1       5.523   5.419  16.636  0.00  0.00    +0.000 A 
ATOM      5  C   UNL     1       4.559   4.559  17.139  0.00  0.00    +0.000 A 
ATOM      6  C   UNL     1       4.638   4.112  18.463  0.00  0.00    +0.000 A 
ATOM      7  N   UNL     1       5.685   4.413  19.265  0.00  0.00    +0.000 NA
ENDROOT
BRANCH   6   8
ATOM      8  C   UNL     1       3.360   3.535  19.029  0.00  0.00    +0.000 C 
ATOM      9  C   UNL     1       2.187   4.457  19.357  0.00  0.00    +0.000 C 
ATOM     10  C   UNL     1       1.112   3.601  20.047  0.00  0.00    +0.000 C 
ATOM     11  C   UNL     1       0.735   2.356  19.229  0.00  0.00    +0.000 C 
ATOM     12  N   UNL     1       1.890   1.579  18.779  0.00  0.00    +0.000 NA
ATOM     13  C   UNL     1       2.865   2.424  18.085  0.00  0.00    +0.000 C 
ATOM     14  H   UNL     1       1.580   0.844  18.144  0.00  0.00    +0.000 HD
ENDBRANCH   6   8
BRANCH   4  15
ATOM     15  C   UNL     1       5.295   6.067  15.290  0.00  0.00    +0.000 C 
BRANCH  15  16
ATOM     16  C   UNL     1       5.799   5.211  14.144  0.00  0.00    +0.000 A 
ATOM     17  C   UNL     1       7.172   5.004  13.942  0.00  0.00    +0.000 A 
ATOM     18  C   UNL     1       7.626   4.174  12.915  0.00  0.00    +0.000 A 
ATOM     19  C   UNL     1       6.713   3.538  12.076  0.00  0.00    +0.000 A 
ATOM     20  C   UNL     1       5.335   3.720  12.261  0.00  0.00    +0.000 A 
ATOM     21  C   UNL     1       4.891   4.560  13.297  0.00  0.00    +0.000 A 
BRANCH  20  22
ATOM     22  C   UNL     1       4.325   3.030  11.379  0.00  0.00    +0.000 C 
ATOM     23  F   UNL     1       3.140   2.773  11.998  0.00  0.00    +0.000 F 
ATOM     24  F   UNL     1       4.016   3.760  10.271  0.00  0.00    +0.000 F 
ATOM     25  F   UNL     1       4.774   1.828  10.919  0.00  0.00    +0.000 F 
ENDBRANCH  20  22
ENDBRANCH  15  16
ENDBRANCH   4  15
TORSDOF 4
ENDMDL
MODEL 9
REMARK VINA RESULT:      -7.7      4.266      5.657
REMARK  Name = 
REMARK  5 active torsions:
REMARK  status: ('A' for Active; 'I' for Inactive)
REMARK    1  A    between atoms: C_1  and  C_2
REMARK    2  A    between atoms: C_4  and  C_5
REMARK    3  A    between atoms: C_5  and  C_6
REMARK    4  A    between atoms: C_10  and  C_11
REMARK    5  A    between atoms: C_17  and  C_18
REMARK                            x       y       z     vdW  Elec       q    Type
REMARK                         _______ _______ _______ _____ _____    ______ ____
ROOT
ATOM      1  C   UNL     1       1.959   5.038  21.030  0.00  0.00    +0.000 C 
ATOM      2  C   UNL     1       2.436   5.856  19.864  0.00  0.00    +0.000 A 
ATOM      3  C   UNL     1       1.811   7.073  19.567  0.00  0.00    +0.000 A 
ATOM      4  C   UNL     1       2.282   7.825  18.492  0.00  0.00    +0.000 A 
ATOM      5  C   UNL     1       3.356   7.330  17.769  0.00  0.00    +0.000 A 
ATOM      6  C   UNL     1       3.884   6.069  18.068  0.00  0.00    +0.000 A 
ATOM      7  N   UNL     1       3.445   5.333  19.115  0.00  0.00    +0.000 NA
ENDROOT
BRANCH   6   8
ATOM      8  C   UNL     1       4.750   5.458  16.989  0.00  0.00    +0.000 C 
ATOM      9  C   UNL     1       5.163   6.293  15.779  0.00  0.00    +0.000 C 
ATOM     10  C   UNL     1       5.899   5.355  14.807  0.00  0.00    +0.000 C 
ATOM     11  C   UNL     1       7.052   4.596  15.480  0.00  0.00    +0.000 C 
ATOM     12  N   UNL     1       6.671   3.944  16.733  0.00  0.00    +0.000 NA
ATOM     13  C   UNL     1       6.018   4.883  17.647  0.00  0.00    +0.000 C 
ATOM     14  H   UNL     1       7.503   3.566  17.188  0.00  0.00    +0.000 HD
ENDBRANCH   6   8
BRANCH   4  15
ATOM     15  C   UNL     1       1.586   9.075  18.008  0.00  0.00    +0.000 C 
BRANCH  15  16
ATOM     16  C   UNL     1       1.197   9.999  19.145  0.00  0.00    +0.000 A 
ATOM     17  C   UNL     1       1.285  11.393  19.009  0.00  0.00    +0.000 A 
ATOM     18  C   UNL     1       0.877  12.238  20.043  0.00  0.00    +0.000 A 
ATOM     19  C   UNL     1       0.374  11.702  21.227  0.00  0.00    +0.000 A 
ATOM     20  C   UNL     1       0.267  10.313  21.385  0.00  0.00    +0.000 A 
ATOM     21  C   UNL     1       0.684   9.473  20.338  0.00  0.00    +0.000 A 
BRANCH  20  22
ATOM     22  C   UNL     1      -0.289   9.706  22.650  0.00  0.00    +0.000 C 
ATOM     23  F   UNL     1      -0.951   8.533  22.450  0.00  0.00    +0.000 F 
ATOM     24  F   UNL     1       0.679   9.436  23.568  0.00  0.00    +0.000 F 
ATOM     25  F   UNL     1      -1.175  10.532  23.275  0.00  0.00    +0.000 F 
ENDBRANCH  20  22
ENDBRANCH  15  16
ENDBRANCH   4  15
TORSDOF 4
ENDMDL
