MODEL 1
REMARK VINA RESULT:      -7.7      0.000      0.000
REMARK  Name = 
REMARK  2 active torsions:
REMARK  status: ('A' for Active; 'I' for Inactive)
REMARK    1  A    between atoms: N_1  and  C_2
REMARK    2  A    between atoms: C_8  and  N_9
REMARK                            x       y       z     vdW  Elec       q    Type
REMARK                         _______ _______ _______ _____ _____    ______ ____
ROOT
ATOM      1  C   UNL     1       6.382   5.034  18.138  0.00  0.00    +0.000 A 
ATOM      2  C   UNL     1       7.418   4.738  17.229  0.00  0.00    +0.000 A 
ATOM      3  C   UNL     1       7.161   4.430  15.893  0.00  0.00    +0.000 A 
ATOM      4  C   UNL     1       5.850   4.406  15.441  0.00  0.00    +0.000 A 
ATOM      5 CL   UNL     1       5.518   4.009  13.801  0.00  0.00    +0.000 Cl
ATOM      6  C   UNL     1       4.801   4.689  16.313  0.00  0.00    +0.000 A 
ATOM      7  C   UNL     1       5.049   4.971  17.671  0.00  0.00    +0.000 A 
ENDROOT
BRANCH   7   8
ATOM      8  N   UNL     1       3.924   5.243  18.514  0.00  0.00    +0.000 N 
ATOM      9  C   UNL     1       3.451   6.509  18.814  0.00  0.00    +0.000 A 
ATOM     10  C   UNL     1       2.354   6.408  19.634  0.00  0.00    +0.000 A 
ATOM     11  C   UNL     1       2.078   5.031  19.807  0.00  0.00    +0.000 A 
ATOM     12  C   UNL     1       1.068   4.338  20.506  0.00  0.00    +0.000 A 
ATOM     13  C   UNL     1       1.056   2.940  20.499  0.00  0.00    +0.000 A 
ATOM     14  C   UNL     1       2.048   2.232  19.833  0.00  0.00    +0.000 A 
ATOM     15  C   UNL     1       3.072   2.900  19.155  0.00  0.00    +0.000 A 
ATOM     16  C   UNL     1       3.061   4.311  19.111  0.00  0.00    +0.000 A 
ENDBRANCH   7   8
BRANCH   1  17
ATOM     17  N   UNL     1       6.749   5.074  19.492  0.00  0.00    +0.000 N 
ATOM     18  H   UNL     1       6.652   5.986  19.929  0.00  0.00    +0.000 HD
ATOM     19  H   UNL     1       6.430   4.323  20.089  0.00  0.00    +0.000 HD
ENDBRANCH   1  17
TORSDOF 2
ENDMDL
MODEL 2
REMARK VINA RESULT:      -7.6      2.477      5.506
REMARK  Name = 
REMARK  2 active torsions:
REMARK  status: ('A' for Active; 'I' for Inactive)
REMARK    1  A    between atoms: N_1  and  C_2
REMARK    2  A    between atoms: C_8  and  N_9
REMARK                            x       y       z     vdW  Elec       q    Type
REMARK                         _______ _______ _______ _____ _____    ______ ____
ROOT
ATOM      1  C   UNL     1       3.972   3.188  19.761  0.00  0.00    +0.000 A 
ATOM      2  C   UNL     1       2.799   2.975  20.514  0.00  0.00    +0.000 A 
ATOM      3  C   UNL     1       1.945   4.023  20.858  0.00  0.00    +0.000 A 
ATOM      4  C   UNL     1       2.256   5.313  20.458  0.00  0.00    +0.000 A 
ATOM      5 CL   UNL     1       1.222   6.617  20.893  0.00  0.00    +0.000 Cl
ATOM      6  C   UNL     1       3.410   5.560  19.717  0.00  0.00    +0.000 A 
ATOM      7  C   UNL     1       4.294   4.514  19.391  0.00  0.00    +0.000 A 
ENDROOT
BRANCH   7   8
ATOM      8  N   UNL     1       5.468   4.839  18.637  0.00  0.00    +0.000 N 
ATOM      9  C   UNL     1       6.641   5.334  19.180  0.00  0.00    +0.000 A 
ATOM     10  C   UNL     1       7.567   5.520  18.184  0.00  0.00    +0.000 A 
ATOM     11  C   UNL     1       6.988   5.066  16.976  0.00  0.00    +0.000 A 
ATOM     12  C   UNL     1       7.474   4.980  15.654  0.00  0.00    +0.000 A 
ATOM     13  C   UNL     1       6.647   4.479  14.644  0.00  0.00    +0.000 A 
ATOM     14  C   UNL     1       5.344   4.093  14.929  0.00  0.00    +0.000 A 
ATOM     15  C   UNL     1       4.835   4.192  16.228  0.00  0.00    +0.000 A 
ATOM     16  C   UNL     1       5.680   4.647  17.263  0.00  0.00    +0.000 A 
ENDBRANCH   7   8
BRANCH   1  17
ATOM     17  N   UNL     1       4.865   2.106  19.702  0.00  0.00    +0.000 N 
ATOM     18  H   UNL     1       5.661   2.248  19.089  0.00  0.00    +0.000 HD
ATOM     19  H   UNL     1       5.122   1.661  20.573  0.00  0.00    +0.000 HD
ENDBRANCH   1  17
TORSDOF 2
ENDMDL
MODEL 3
REMARK VINA RESULT:      -7.4      0.818      2.123
REMARK  Name = 
REMARK  2 active torsions:
REMARK  status: ('A' for Active; 'I' for Inactive)
REMARK    1  A    between atoms: N_1  and  C_2
REMARK    2  A    between atoms: C_8  and  N_9
REMARK                            x       y       z     vdW  Elec       q    Type
REMARK                         _______ _______ _______ _____ _____    ______ ____
ROOT
ATOM      1  C   UNL     1       6.262   4.615  17.867  0.00  0.00    +0.000 A 
ATOM      2  C   UNL     1       7.300   4.927  16.965  0.00  0.00    +0.000 A 
ATOM      3  C   UNL     1       7.175   4.702  15.594  0.00  0.00    +0.000 A 
ATOM      4  C   UNL     1       6.004   4.153  15.098  0.00  0.00    +0.000 A 
ATOM      5 CL   UNL     1       5.845   3.854  13.412  0.00  0.00    +0.000 Cl
ATOM      6  C   UNL     1       4.959   3.829  15.961  0.00  0.00    +0.000 A 
ATOM      7  C   UNL     1       5.087   4.023  17.351  0.00  0.00    +0.000 A 
ENDROOT
BRANCH   7   8
ATOM      8  N   UNL     1       3.979   3.658  18.182  0.00  0.00    +0.000 N 
ATOM      9  C   UNL     1       3.558   2.359  18.409  0.00  0.00    +0.000 A 
ATOM     10  C   UNL     1       2.484   2.366  19.264  0.00  0.00    +0.000 A 
ATOM     11  C   UNL     1       2.255   3.708  19.648  0.00  0.00    +0.000 A 
ATOM     12  C   UNL     1       1.324   4.309  20.521  0.00  0.00    +0.000 A 
ATOM     13  C   UNL     1       1.337   5.696  20.700  0.00  0.00    +0.000 A 
ATOM     14  C   UNL     1       2.242   6.485  20.003  0.00  0.00    +0.000 A 
ATOM     15  C   UNL     1       3.157   5.912  19.114  0.00  0.00    +0.000 A 
ATOM     16  C   UNL     1       3.186   4.509  18.968  0.00  0.00    +0.000 A 
ENDBRANCH   7   8
BRANCH   1  17
ATOM     17  N   UNL     1       6.605   4.649  19.228  0.00  0.00    +0.000 N 
ATOM     18  H   UNL     1       6.286   5.476  19.723  0.00  0.00    +0.000 HD
ATOM     19  H   UNL     1       6.476   3.803  19.766  0.00  0.00    +0.000 HD
ENDBRANCH   1  17
TORSDOF 2
ENDMDL
MODEL 4
REMARK VINA RESULT:      -7.0      2.417      3.225
REMARK  Name = 
REMARK  2 active torsions:
REMARK  status: ('A' for Active; 'I' for Inactive)
REMARK    1  A    between atoms: N_1  and  C_2
REMARK    2  A    between atoms: C_8  and  N_9
REMARK                            x       y       z     vdW  Elec       q    Type
REMARK                         _______ _______ _______ _____ _____    ______ ____
ROOT
ATOM      1  C   UNL     1       5.722   6.376  17.102  0.00  0.00    +0.000 A 
ATOM      2  C   UNL     1       6.921   7.095  17.280  0.00  0.00    +0.000 A 
ATOM      3  C   UNL     1       7.818   6.788  18.304  0.00  0.00    +0.000 A 
ATOM      4  C   UNL     1       7.524   5.753  19.178  0.00  0.00    +0.000 A 
ATOM      5 CL   UNL     1       8.611   5.377  20.457  0.00  0.00    +0.000 Cl
ATOM      6  C   UNL     1       6.345   5.025  19.034  0.00  0.00    +0.000 A 
ATOM      7  C   UNL     1       5.419   5.347  18.022  0.00  0.00    +0.000 A 
ENDROOT
BRANCH   7   8
ATOM      8  N   UNL     1       4.222   4.565  17.937  0.00  0.00    +0.000 N 
ATOM      9  C   UNL     1       3.947   3.651  16.934  0.00  0.00    +0.000 A 
ATOM     10  C   UNL     1       2.726   3.068  17.164  0.00  0.00    +0.000 A 
ATOM     11  C   UNL     1       2.236   3.578  18.389  0.00  0.00    +0.000 A 
ATOM     12  C   UNL     1       1.066   3.321  19.134  0.00  0.00    +0.000 A 
ATOM     13  C   UNL     1       0.848   3.998  20.338  0.00  0.00    +0.000 A 
ATOM     14  C   UNL     1       1.761   4.943  20.787  0.00  0.00    +0.000 A 
ATOM     15  C   UNL     1       2.915   5.231  20.052  0.00  0.00    +0.000 A 
ATOM     16  C   UNL     1       3.169   4.513  18.864  0.00  0.00    +0.000 A 
ENDBRANCH   7   8
BRANCH   1  17
ATOM     17  N   UNL     1       4.799   6.941  16.207  0.00  0.00    +0.000 N 
ATOM     18  H   UNL     1       4.090   7.524  16.643  0.00  0.00    +0.000 HD
ATOM     19  H   UNL     1       5.159   7.344  15.353  0.00  0.00    +0.000 HD
ENDBRANCH   1  17
TORSDOF 2
ENDMDL
MODEL 5
REMARK VINA RESULT:      -7.0      2.377      5.558
REMARK  Name = 
REMARK  2 active torsions:
REMARK  status: ('A' for Active; 'I' for Inactive)
REMARK    1  A    between atoms: N_1  and  C_2
REMARK    2  A    between atoms: C_8  and  N_9
REMARK                            x       y       z     vdW  Elec       q    Type
REMARK                         _______ _______ _______ _____ _____    ______ ____
ROOT
ATOM      1  C   UNL     1       3.079   6.204  19.261  0.00  0.00    +0.000 A 
ATOM      2  C   UNL     1       1.847   6.067  19.932  0.00  0.00    +0.000 A 
ATOM      3  C   UNL     1       1.531   4.925  20.667  0.00  0.00    +0.000 A 
ATOM      4  C   UNL     1       2.448   3.888  20.740  0.00  0.00    +0.000 A 
ATOM      5 CL   UNL     1       2.064   2.466  21.628  0.00  0.00    +0.000 Cl
ATOM      6  C   UNL     1       3.675   3.987  20.086  0.00  0.00    +0.000 A 
ATOM      7  C   UNL     1       3.990   5.123  19.315  0.00  0.00    +0.000 A 
ENDROOT
BRANCH   7   8
ATOM      8  N   UNL     1       5.263   5.156  18.660  0.00  0.00    +0.000 N 
ATOM      9  C   UNL     1       6.467   5.419  19.290  0.00  0.00    +0.000 A 
ATOM     10  C   UNL     1       7.489   5.355  18.375  0.00  0.00    +0.000 A 
ATOM     11  C   UNL     1       6.925   4.974  17.134  0.00  0.00    +0.000 A 
ATOM     12  C   UNL     1       7.486   4.723  15.865  0.00  0.00    +0.000 A 
ATOM     13  C   UNL     1       6.655   4.357  14.801  0.00  0.00    +0.000 A 
ATOM     14  C   UNL     1       5.281   4.270  14.981  0.00  0.00    +0.000 A 
ATOM     15  C   UNL     1       4.703   4.539  16.225  0.00  0.00    +0.000 A 
ATOM     16  C   UNL     1       5.538   4.855  17.317  0.00  0.00    +0.000 A 
ENDBRANCH   7   8
BRANCH   1  17
ATOM     17  N   UNL     1       3.168   7.275  18.358  0.00  0.00    +0.000 N 
ATOM     18  H   UNL     1       3.452   7.014  17.419  0.00  0.00    +0.000 HD
ATOM     19  H   UNL     1       2.420   7.955  18.361  0.00  0.00    +0.000 HD
ENDBRANCH   1  17
TORSDOF 2
ENDMDL
MODEL 6
REMARK VINA RESULT:      -6.7      2.778      5.572
REMARK  Name = 
REMARK  2 active torsions:
REMARK  status: ('A' for Active; 'I' for Inactive)
REMARK    1  A    between atoms: N_1  and  C_2
REMARK    2  A    between atoms: C_8  and  N_9
REMARK                            x       y       z     vdW  Elec       q    Type
REMARK                         _______ _______ _______ _____ _____    ______ ____
ROOT
ATOM      1  C   UNL     1       2.164   6.336  20.108  0.00  0.00    +0.000 A 
ATOM      2  C   UNL     1       1.586   7.441  20.765  0.00  0.00    +0.000 A 
ATOM      3  C   UNL     1       1.396   8.663  20.121  0.00  0.00    +0.000 A 
ATOM      4  C   UNL     1       1.789   8.804  18.799  0.00  0.00    +0.000 A 
ATOM      5 CL   UNL     1       1.577  10.312  17.999  0.00  0.00    +0.000 Cl
ATOM      6  C   UNL     1       2.366   7.734  18.120  0.00  0.00    +0.000 A 
ATOM      7  C   UNL     1       2.591   6.505  18.771  0.00  0.00    +0.000 A 
ENDROOT
BRANCH   7   8
ATOM      8  N   UNL     1       3.199   5.450  18.017  0.00  0.00    +0.000 N 
ATOM      9  C   UNL     1       2.568   4.270  17.662  0.00  0.00    +0.000 A 
ATOM     10  C   UNL     1       3.430   3.489  16.932  0.00  0.00    +0.000 A 
ATOM     11  C   UNL     1       4.626   4.223  16.760  0.00  0.00    +0.000 A 
ATOM     12  C   UNL     1       5.830   3.945  16.079  0.00  0.00    +0.000 A 
ATOM     13  C   UNL     1       6.864   4.887  16.089  0.00  0.00    +0.000 A 
ATOM     14  C   UNL     1       6.723   6.078  16.788  0.00  0.00    +0.000 A 
ATOM     15  C   UNL     1       5.548   6.361  17.490  0.00  0.00    +0.000 A 
ATOM     16  C   UNL     1       4.479   5.441  17.441  0.00  0.00    +0.000 A 
ENDBRANCH   7   8
BRANCH   1  17
ATOM     17  N   UNL     1       2.530   5.259  20.930  0.00  0.00    +0.000 N 
ATOM     18  H   UNL     1       3.183   4.607  20.507  0.00  0.00    +0.000 HD
ATOM     19  H   UNL     1       2.756   5.460  21.895  0.00  0.00    +0.000 HD
ENDBRANCH   1  17
TORSDOF 2
ENDMDL
MODEL 7
REMARK VINA RESULT:      -6.7      2.390      5.301
REMARK  Name = 
REMARK  2 active torsions:
REMARK  status: ('A' for Active; 'I' for Inactive)
REMARK    1  A    between atoms: N_1  and  C_2
REMARK    2  A    between atoms: C_8  and  N_9
REMARK                            x       y       z     vdW  Elec       q    Type
REMARK                         _______ _______ _______ _____ _____    ______ ____
ROOT
ATOM      1  C   UNL     1       2.397   5.676  20.008  0.00  0.00    +0.000 A 
ATOM      2  C   UNL     1       1.406   4.939  20.688  0.00  0.00    +0.000 A 
ATOM      3  C   UNL     1       1.040   3.654  20.289  0.00  0.00    +0.000 A 
ATOM      4  C   UNL     1       1.661   3.080  19.190  0.00  0.00    +0.000 A 
ATOM      5 CL   UNL     1       1.205   1.503  18.676  0.00  0.00    +0.000 Cl
ATOM      6  C   UNL     1       2.642   3.781  18.491  0.00  0.00    +0.000 A 
ATOM      7  C   UNL     1       2.996   5.092  18.868  0.00  0.00    +0.000 A 
ENDROOT
BRANCH   7   8
ATOM      8  N   UNL     1       4.004   5.759  18.100  0.00  0.00    +0.000 N 
ATOM      9  C   UNL     1       3.765   6.478  16.941  0.00  0.00    +0.000 A 
ATOM     10  C   UNL     1       4.945   7.000  16.471  0.00  0.00    +0.000 A 
ATOM     11  C   UNL     1       5.959   6.658  17.397  0.00  0.00    +0.000 A 
ATOM     12  C   UNL     1       7.338   6.946  17.455  0.00  0.00    +0.000 A 
ATOM     13  C   UNL     1       8.104   6.456  18.518  0.00  0.00    +0.000 A 
ATOM     14  C   UNL     1       7.519   5.665  19.498  0.00  0.00    +0.000 A 
ATOM     15  C   UNL     1       6.159   5.348  19.446  0.00  0.00    +0.000 A 
ATOM     16  C   UNL     1       5.368   5.883  18.407  0.00  0.00    +0.000 A 
ENDBRANCH   7   8
BRANCH   1  17
ATOM     17  N   UNL     1       2.489   7.035  20.347  0.00  0.00    +0.000 N 
ATOM     18  H   UNL     1       3.336   7.494  20.026  0.00  0.00    +0.000 HD
ATOM     19  H   UNL     1       1.666   7.608  20.218  0.00  0.00    +0.000 HD
ENDBRANCH   1  17
TORSDOF 2
ENDMDL
MODEL 8
REMARK VINA RESULT:      -6.6      1.220      2.793
REMARK  Name = 
REMARK  2 active torsions:
REMARK  status: ('A' for Active; 'I' for Inactive)
REMARK    1  A    between atoms: N_1  and  C_2
REMARK    2  A    between atoms: C_8  and  N_9
REMARK                            x       y       z     vdW  Elec       q    Type
REMARK                         _______ _______ _______ _____ _____    ______ ____
ROOT
ATOM      1  C   UNL     1       6.505   5.044  18.062  0.00  0.00    +0.000 A 
ATOM      2  C   UNL     1       7.473   4.668  17.109  0.00  0.00    +0.000 A 
ATOM      3  C   UNL     1       7.128   4.343  15.797  0.00  0.00    +0.000 A 
ATOM      4  C   UNL     1       5.797   4.383  15.414  0.00  0.00    +0.000 A 
ATOM      5 CL   UNL     1       5.356   3.966  13.805  0.00  0.00    +0.000 Cl
ATOM      6  C   UNL     1       4.813   4.747  16.331  0.00  0.00    +0.000 A 
ATOM      7  C   UNL     1       5.147   5.047  17.666  0.00  0.00    +0.000 A 
ENDROOT
BRANCH   7   8
ATOM      8  N   UNL     1       4.085   5.402  18.559  0.00  0.00    +0.000 N 
ATOM      9  C   UNL     1       3.677   4.639  19.639  0.00  0.00    +0.000 A 
ATOM     10  C   UNL     1       2.649   5.277  20.291  0.00  0.00    +0.000 A 
ATOM     11  C   UNL     1       2.442   6.518  19.643  0.00  0.00    +0.000 A 
ATOM     12  C   UNL     1       1.559   7.590  19.890  0.00  0.00    +0.000 A 
ATOM     13  C   UNL     1       1.583   8.713  19.056  0.00  0.00    +0.000 A 
ATOM     14  C   UNL     1       2.450   8.764  17.972  0.00  0.00    +0.000 A 
ATOM     15  C   UNL     1       3.316   7.702  17.696  0.00  0.00    +0.000 A 
ATOM     16  C   UNL     1       3.336   6.589  18.564  0.00  0.00    +0.000 A 
ENDBRANCH   7   8
BRANCH   1  17
ATOM     17  N   UNL     1       6.945   5.097  19.394  0.00  0.00    +0.000 N 
ATOM     18  H   UNL     1       7.166   4.193  19.801  0.00  0.00    +0.000 HD
ATOM     19  H   UNL     1       7.624   5.806  19.637  0.00  0.00    +0.000 HD
ENDBRANCH   1  17
TORSDOF 2
ENDMDL
MODEL 9
REMARK VINA RESULT:      -6.5      1.376      2.594
REMARK  Name = 
REMARK  2 active torsions:
REMARK  status: ('A' for Active; 'I' for Inactive)
REMARK    1  A    between atoms: N_1  and  C_2
REMARK    2  A    between atoms: C_8  and  N_9
REMARK                            x       y       z     vdW  Elec       q    Type
REMARK                         _______ _______ _______ _____ _____    ______ ____
ROOT
ATOM      1  C   UNL     1       6.740   5.047  16.657  0.00  0.00    +0.000 A 
ATOM      2  C   UNL     1       7.529   5.065  15.489  0.00  0.00    +0.000 A 
ATOM      3  C   UNL     1       7.037   4.621  14.262  0.00  0.00    +0.000 A 
ATOM      4  C   UNL     1       5.739   4.140  14.182  0.00  0.00    +0.000 A 
ATOM      5 CL   UNL     1       5.127   3.571  12.679  0.00  0.00    +0.000 Cl
ATOM      6  C   UNL     1       4.933   4.104  15.318  0.00  0.00    +0.000 A 
ATOM      7  C   UNL     1       5.430   4.522  16.568  0.00  0.00    +0.000 A 
ENDROOT
BRANCH   7   8
ATOM      8  N   UNL     1       4.552   4.448  17.697  0.00  0.00    +0.000 N 
ATOM      9  C   UNL     1       4.395   3.332  18.501  0.00  0.00    +0.000 A 
ATOM     10  C   UNL     1       3.492   3.606  19.499  0.00  0.00    +0.000 A 
ATOM     11  C   UNL     1       3.111   4.962  19.365  0.00  0.00    +0.000 A 
ATOM     12  C   UNL     1       2.252   5.793  20.114  0.00  0.00    +0.000 A 
ATOM     13  C   UNL     1       2.066   7.124  19.728  0.00  0.00    +0.000 A 
ATOM     14  C   UNL     1       2.699   7.622  18.597  0.00  0.00    +0.000 A 
ATOM     15  C   UNL     1       3.535   6.809  17.827  0.00  0.00    +0.000 A 
ATOM     16  C   UNL     1       3.771   5.480  18.240  0.00  0.00    +0.000 A 
ENDBRANCH   7   8
BRANCH   1  17
ATOM     17  N   UNL     1       7.425   5.277  17.861  0.00  0.00    +0.000 N 
ATOM     18  H   UNL     1       6.857   5.176  18.696  0.00  0.00    +0.000 HD
ATOM     19  H   UNL     1       8.342   4.865  17.965  0.00  0.00    +0.000 HD
ENDBRANCH   1  17
TORSDOF 2
ENDMDL
