MODEL 1
REMARK VINA RESULT:      -7.8      0.000      0.000
REMARK  Name = 
REMARK  3 active torsions:
REMARK  status: ('A' for Active; 'I' for Inactive)
REMARK    1  A    between atoms: C_1  and  O_2
REMARK    2  A    between atoms: O_2  and  C_3
REMARK    3  A    between atoms: N_9  and  N_10
REMARK                            x       y       z     vdW  Elec       q    Type
REMARK                         _______ _______ _______ _____ _____    ______ ____
ROOT
ATOM      1  C   UNL     1      -0.817  10.682  22.630  0.00  0.00    +0.000 A 
ATOM      2  C   UNL     1       0.010   9.685  23.147  0.00  0.00    +0.000 A 
ATOM      3  C   UNL     1       0.849   8.954  22.301  0.00  0.00    +0.000 A 
ATOM      4  C   UNL     1       0.853   9.212  20.918  0.00  0.00    +0.000 A 
ATOM      5  N   UNL     1       1.650   8.573  19.995  0.00  0.00    +0.000 NA
ATOM      6  C   UNL     1       1.393   8.994  18.779  0.00  0.00    +0.000 A 
ATOM      7  N   UNL     1       1.981   8.513  17.648  0.00  0.00    +0.000 N 
ATOM      8  S   UNL     1       0.176  10.220  18.693  0.00  0.00    +0.000 S 
ATOM      9  C   UNL     1      -0.010  10.176  20.408  0.00  0.00    +0.000 A 
ATOM     10  C   UNL     1      -0.854  10.928  21.250  0.00  0.00    +0.000 A 
ATOM     11  H   UNL     1       1.614   8.851  16.764  0.00  0.00    +0.000 HD
ENDROOT
BRANCH   7  12
ATOM     12  N   UNL     1       3.265   8.037  17.664  0.00  0.00    +0.000 NA
ATOM     13  C   UNL     1       3.470   6.760  17.765  0.00  0.00    +0.000 C 
ATOM     14  C   UNL     1       2.370   5.717  17.904  0.00  0.00    +0.000 C 
ATOM     15  C   UNL     1       2.731   4.774  19.041  0.00  0.00    +0.000 C 
ATOM     16  C   UNL     1       4.009   4.010  18.717  0.00  0.00    +0.000 C 
ATOM     17  C   UNL     1       5.111   4.916  18.245  0.00  0.00    +0.000 A 
ATOM     18  C   UNL     1       6.432   4.454  18.224  0.00  0.00    +0.000 A 
ATOM     19  C   UNL     1       7.449   5.288  17.771  0.00  0.00    +0.000 A 
ATOM     20  C   UNL     1       7.111   6.559  17.341  0.00  0.00    +0.000 A 
ATOM     21  N   UNL     1       5.849   7.037  17.331  0.00  0.00    +0.000 NA
ATOM     22  C   UNL     1       4.872   6.214  17.782  0.00  0.00    +0.000 A 
ENDBRANCH   7  12
BRANCH   1  24
ATOM     23  C   UNL     1      -1.621  12.852  23.118  0.00  0.00    +0.000 C 
ATOM     24  O   UNL     1      -1.660  11.452  23.389  0.00  0.00    +0.000 OA
ENDBRANCH   1  24
TORSDOF 2
ENDMDL
MODEL 2
REMARK VINA RESULT:      -7.5      2.313      3.122
REMARK  Name = 
REMARK  3 active torsions:
REMARK  status: ('A' for Active; 'I' for Inactive)
REMARK    1  A    between atoms: C_1  and  O_2
REMARK    2  A    between atoms: O_2  and  C_3
REMARK    3  A    between atoms: N_9  and  N_10
REMARK                            x       y       z     vdW  Elec       q    Type
REMARK                         _______ _______ _______ _____ _____    ______ ____
ROOT
ATOM      1  C   UNL     1      -1.417  12.308  19.830  0.00  0.00    +0.000 A 
ATOM      2  C   UNL     1      -0.417  12.362  18.860  0.00  0.00    +0.000 A 
ATOM      3  C   UNL     1       0.555  11.360  18.790  0.00  0.00    +0.000 A 
ATOM      4  C   UNL     1       0.536  10.295  19.709  0.00  0.00    +0.000 A 
ATOM      5  N   UNL     1       1.425   9.244  19.722  0.00  0.00    +0.000 NA
ATOM      6  C   UNL     1       1.183   8.434  20.726  0.00  0.00    +0.000 A 
ATOM      7  N   UNL     1       1.924   7.333  21.035  0.00  0.00    +0.000 N 
ATOM      8  S   UNL     1      -0.167   8.898  21.703  0.00  0.00    +0.000 S 
ATOM      9  C   UNL     1      -0.438  10.276  20.702  0.00  0.00    +0.000 A 
ATOM     10  C   UNL     1      -1.430  11.275  20.779  0.00  0.00    +0.000 A 
ATOM     11  H   UNL     1       1.692   6.856  21.899  0.00  0.00    +0.000 HD
ENDROOT
BRANCH   7  12
ATOM     12  N   UNL     1       2.562   6.613  20.061  0.00  0.00    +0.000 NA
ATOM     13  C   UNL     1       2.208   5.383  19.844  0.00  0.00    +0.000 C 
ATOM     14  C   UNL     1       1.134   4.642  20.627  0.00  0.00    +0.000 C 
ATOM     15  C   UNL     1       1.676   3.282  21.035  0.00  0.00    +0.000 C 
ATOM     16  C   UNL     1       1.972   2.434  19.803  0.00  0.00    +0.000 C 
ATOM     17  C   UNL     1       2.779   3.178  18.778  0.00  0.00    +0.000 A 
ATOM     18  C   UNL     1       3.423   2.475  17.753  0.00  0.00    +0.000 A 
ATOM     19  C   UNL     1       4.156   3.168  16.795  0.00  0.00    +0.000 A 
ATOM     20  C   UNL     1       4.214   4.548  16.885  0.00  0.00    +0.000 A 
ATOM     21  N   UNL     1       3.596   5.263  17.848  0.00  0.00    +0.000 NA
ATOM     22  C   UNL     1       2.892   4.572  18.777  0.00  0.00    +0.000 A 
ENDBRANCH   7  12
BRANCH   1  24
ATOM     23  C   UNL     1      -3.729  12.715  20.124  0.00  0.00    +0.000 C 
ATOM     24  O   UNL     1      -2.412  13.241  19.963  0.00  0.00    +0.000 OA
ENDBRANCH   1  24
TORSDOF 2
ENDMDL
MODEL 3
REMARK VINA RESULT:      -6.9      1.835      2.272
REMARK  Name = 
REMARK  3 active torsions:
REMARK  status: ('A' for Active; 'I' for Inactive)
REMARK    1  A    between atoms: C_1  and  O_2
REMARK    2  A    between atoms: O_2  and  C_3
REMARK    3  A    between atoms: N_9  and  N_10
REMARK                            x       y       z     vdW  Elec       q    Type
REMARK                         _______ _______ _______ _____ _____    ______ ____
ROOT
ATOM      1  C   UNL     1      -1.094  12.561  21.797  0.00  0.00    +0.000 A 
ATOM      2  C   UNL     1       0.108  12.968  21.221  0.00  0.00    +0.000 A 
ATOM      3  C   UNL     1       1.054  12.023  20.817  0.00  0.00    +0.000 A 
ATOM      4  C   UNL     1       0.801  10.651  21.001  0.00  0.00    +0.000 A 
ATOM      5  N   UNL     1       1.647   9.632  20.622  0.00  0.00    +0.000 NA
ATOM      6  C   UNL     1       1.161   8.463  20.970  0.00  0.00    +0.000 A 
ATOM      7  N   UNL     1       1.791   7.270  20.779  0.00  0.00    +0.000 N 
ATOM      8  S   UNL     1      -0.376   8.538  21.759  0.00  0.00    +0.000 S 
ATOM      9  C   UNL     1      -0.381  10.258  21.618  0.00  0.00    +0.000 A 
ATOM     10  C   UNL     1      -1.348  11.200  22.023  0.00  0.00    +0.000 A 
ATOM     11  H   UNL     1       1.353   6.452  21.190  0.00  0.00    +0.000 HD
ENDROOT
BRANCH   7  12
ATOM     12  N   UNL     1       2.633   7.075  19.716  0.00  0.00    +0.000 NA
ATOM     13  C   UNL     1       2.680   5.909  19.148  0.00  0.00    +0.000 C 
ATOM     14  C   UNL     1       1.879   4.696  19.597  0.00  0.00    +0.000 C 
ATOM     15  C   UNL     1       2.812   3.498  19.681  0.00  0.00    +0.000 C 
ATOM     16  C   UNL     1       3.371   3.158  18.305  0.00  0.00    +0.000 C 
ATOM     17  C   UNL     1       3.919   4.365  17.598  0.00  0.00    +0.000 A 
ATOM     18  C   UNL     1       4.761   4.202  16.492  0.00  0.00    +0.000 A 
ATOM     19  C   UNL     1       5.254   5.321  15.827  0.00  0.00    +0.000 A 
ATOM     20  C   UNL     1       4.880   6.572  16.285  0.00  0.00    +0.000 A 
ATOM     21  N   UNL     1       4.060   6.772  17.338  0.00  0.00    +0.000 NA
ATOM     22  C   UNL     1       3.594   5.672  17.977  0.00  0.00    +0.000 A 
ENDBRANCH   7  12
BRANCH   1  24
ATOM     23  C   UNL     1      -3.349  12.820  22.467  0.00  0.00    +0.000 C 
ATOM     24  O   UNL     1      -2.079  13.420  22.212  0.00  0.00    +0.000 OA
ENDBRANCH   1  24
TORSDOF 2
ENDMDL
MODEL 4
REMARK VINA RESULT:      -6.9      3.650      8.263
REMARK  Name = 
REMARK  3 active torsions:
REMARK  status: ('A' for Active; 'I' for Inactive)
REMARK    1  A    between atoms: C_1  and  O_2
REMARK    2  A    between atoms: O_2  and  C_3
REMARK    3  A    between atoms: N_9  and  N_10
REMARK                            x       y       z     vdW  Elec       q    Type
REMARK                         _______ _______ _______ _____ _____    ______ ____
ROOT
ATOM      1  C   UNL     1       2.270   2.920  19.388  0.00  0.00    +0.000 A 
ATOM      2  C   UNL     1       2.026   3.149  20.741  0.00  0.00    +0.000 A 
ATOM      3  C   UNL     1       1.855   4.452  21.218  0.00  0.00    +0.000 A 
ATOM      4  C   UNL     1       1.941   5.542  20.334  0.00  0.00    +0.000 A 
ATOM      5  N   UNL     1       1.768   6.863  20.684  0.00  0.00    +0.000 NA
ATOM      6  C   UNL     1       1.957   7.653  19.654  0.00  0.00    +0.000 A 
ATOM      7  N   UNL     1       1.908   9.014  19.697  0.00  0.00    +0.000 N 
ATOM      8  S   UNL     1       2.333   6.824  18.183  0.00  0.00    +0.000 S 
ATOM      9  C   UNL     1       2.231   5.305  18.994  0.00  0.00    +0.000 A 
ATOM     10  C   UNL     1       2.396   3.996  18.498  0.00  0.00    +0.000 A 
ATOM     11  H   UNL     1       2.178   9.506  18.851  0.00  0.00    +0.000 HD
ENDROOT
BRANCH   7  12
ATOM     12  N   UNL     1       1.090   9.666  20.579  0.00  0.00    +0.000 NA
ATOM     13  C   UNL     1       0.042  10.289  20.134  0.00  0.00    +0.000 C 
ATOM     14  C   UNL     1      -0.347  10.386  18.666  0.00  0.00    +0.000 C 
ATOM     15  C   UNL     1      -0.678  11.834  18.342  0.00  0.00    +0.000 C 
ATOM     16  C   UNL     1      -1.891  12.297  19.140  0.00  0.00    +0.000 C 
ATOM     17  C   UNL     1      -1.775  11.964  20.601  0.00  0.00    +0.000 A 
ATOM     18  C   UNL     1      -2.614  12.592  21.527  0.00  0.00    +0.000 A 
ATOM     19  C   UNL     1      -2.517  12.270  22.878  0.00  0.00    +0.000 A 
ATOM     20  C   UNL     1      -1.588  11.319  23.259  0.00  0.00    +0.000 A 
ATOM     21  N   UNL     1      -0.771  10.680  22.396  0.00  0.00    +0.000 NA
ATOM     22  C   UNL     1      -0.874  11.010  21.086  0.00  0.00    +0.000 A 
ENDBRANCH   7  12
BRANCH   1  24
ATOM     23  C   UNL     1       3.749   1.396  18.345  0.00  0.00    +0.000 C 
ATOM     24  O   UNL     1       2.439   1.676  18.836  0.00  0.00    +0.000 OA
ENDBRANCH   1  24
TORSDOF 2
ENDMDL
MODEL 5
REMARK VINA RESULT:      -6.8      3.490      8.050
REMARK  Name = 
REMARK  3 active torsions:
REMARK  status: ('A' for Active; 'I' for Inactive)
REMARK    1  A    between atoms: C_1  and  O_2
REMARK    2  A    between atoms: O_2  and  C_3
REMARK    3  A    between atoms: N_9  and  N_10
REMARK                            x       y       z     vdW  Elec       q    Type
REMARK                         _______ _______ _______ _____ _____    ______ ____
ROOT
ATOM      1  C   UNL     1       4.048   3.350  19.781  0.00  0.00    +0.000 A 
ATOM      2  C   UNL     1       2.872   3.560  20.500  0.00  0.00    +0.000 A 
ATOM      3  C   UNL     1       2.125   4.727  20.309  0.00  0.00    +0.000 A 
ATOM      4  C   UNL     1       2.566   5.703  19.397  0.00  0.00    +0.000 A 
ATOM      5  N   UNL     1       1.904   6.876  19.111  0.00  0.00    +0.000 NA
ATOM      6  C   UNL     1       2.584   7.606  18.258  0.00  0.00    +0.000 A 
ATOM      7  N   UNL     1       2.214   8.843  17.823  0.00  0.00    +0.000 N 
ATOM      8  S   UNL     1       4.066   6.886  17.732  0.00  0.00    +0.000 S 
ATOM      9  C   UNL     1       3.764   5.504  18.719  0.00  0.00    +0.000 A 
ATOM     10  C   UNL     1       4.522   4.329  18.894  0.00  0.00    +0.000 A 
ATOM     11  H   UNL     1       2.884   9.342  17.247  0.00  0.00    +0.000 HD
ENDROOT
BRANCH   7  12
ATOM     12  N   UNL     1       0.894   9.189  17.711  0.00  0.00    +0.000 NA
ATOM     13  C   UNL     1       0.456  10.239  18.336  0.00  0.00    +0.000 C 
ATOM     14  C   UNL     1       1.305  11.126  19.234  0.00  0.00    +0.000 C 
ATOM     15  C   UNL     1       0.554  11.367  20.534  0.00  0.00    +0.000 C 
ATOM     16  C   UNL     1      -0.738  12.132  20.271  0.00  0.00    +0.000 C 
ATOM     17  C   UNL     1      -1.541  11.529  19.154  0.00  0.00    +0.000 A 
ATOM     18  C   UNL     1      -2.886  11.881  18.994  0.00  0.00    +0.000 A 
ATOM     19  C   UNL     1      -3.624  11.334  17.949  0.00  0.00    +0.000 A 
ATOM     20  C   UNL     1      -2.989  10.458  17.086  0.00  0.00    +0.000 A 
ATOM     21  N   UNL     1      -1.691  10.105  17.197  0.00  0.00    +0.000 NA
ATOM     22  C   UNL     1      -0.989  10.641  18.224  0.00  0.00    +0.000 A 
ENDBRANCH   7  12
BRANCH   1  24
ATOM     23  C   UNL     1       4.370   1.082  19.192  0.00  0.00    +0.000 C 
ATOM     24  O   UNL     1       4.832   2.232  19.898  0.00  0.00    +0.000 OA
ENDBRANCH   1  24
TORSDOF 2
ENDMDL
MODEL 6
REMARK VINA RESULT:      -6.8      2.484      3.718
REMARK  Name = 
REMARK  3 active torsions:
REMARK  status: ('A' for Active; 'I' for Inactive)
REMARK    1  A    between atoms: C_1  and  O_2
REMARK    2  A    between atoms: O_2  and  C_3
REMARK    3  A    between atoms: N_9  and  N_10
REMARK                            x       y       z     vdW  Elec       q    Type
REMARK                         _______ _______ _______ _____ _____    ______ ____
ROOT
ATOM      1  C   UNL     1      -1.636  12.481  19.923  0.00  0.00    +0.000 A 
ATOM      2  C   UNL     1      -1.676  11.757  18.732  0.00  0.00    +0.000 A 
ATOM      3  C   UNL     1      -1.000  10.539  18.622  0.00  0.00    +0.000 A 
ATOM      4  C   UNL     1      -0.262  10.042  19.712  0.00  0.00    +0.000 A 
ATOM      5  N   UNL     1       0.423   8.847  19.726  0.00  0.00    +0.000 NA
ATOM      6  C   UNL     1       1.055   8.680  20.864  0.00  0.00    +0.000 A 
ATOM      7  N   UNL     1       1.861   7.622  21.159  0.00  0.00    +0.000 N 
ATOM      8  S   UNL     1       0.826   9.965  21.999  0.00  0.00    +0.000 S 
ATOM      9  C   UNL     1      -0.190  10.794  20.879  0.00  0.00    +0.000 A 
ATOM     10  C   UNL     1      -0.875  12.020  21.008  0.00  0.00    +0.000 A 
ATOM     11  H   UNL     1       2.372   7.668  22.035  0.00  0.00    +0.000 HD
ENDROOT
BRANCH   7  12
ATOM     12  N   UNL     1       1.628   6.383  20.623  0.00  0.00    +0.000 NA
ATOM     13  C   UNL     1       2.464   5.898  19.756  0.00  0.00    +0.000 C 
ATOM     14  C   UNL     1       3.699   6.625  19.246  0.00  0.00    +0.000 C 
ATOM     15  C   UNL     1       3.735   6.525  17.730  0.00  0.00    +0.000 C 
ATOM     16  C   UNL     1       3.880   5.072  17.293  0.00  0.00    +0.000 C 
ATOM     17  C   UNL     1       2.901   4.167  17.986  0.00  0.00    +0.000 A 
ATOM     18  C   UNL     1       2.659   2.885  17.479  0.00  0.00    +0.000 A 
ATOM     19  C   UNL     1       1.764   2.042  18.131  0.00  0.00    +0.000 A 
ATOM     20  C   UNL     1       1.144   2.505  19.279  0.00  0.00    +0.000 A 
ATOM     21  N   UNL     1       1.361   3.728  19.807  0.00  0.00    +0.000 NA
ATOM     22  C   UNL     1       2.231   4.538  19.156  0.00  0.00    +0.000 A 
ENDBRANCH   7  12
BRANCH   1  24
ATOM     23  C   UNL     1      -2.583  13.991  21.478  0.00  0.00    +0.000 C 
ATOM     24  O   UNL     1      -2.278  13.676  20.120  0.00  0.00    +0.000 OA
ENDBRANCH   1  24
TORSDOF 2
ENDMDL
MODEL 7
REMARK VINA RESULT:      -6.8      3.915      8.354
REMARK  Name = 
REMARK  3 active torsions:
REMARK  status: ('A' for Active; 'I' for Inactive)
REMARK    1  A    between atoms: C_1  and  O_2
REMARK    2  A    between atoms: O_2  and  C_3
REMARK    3  A    between atoms: N_9  and  N_10
REMARK                            x       y       z     vdW  Elec       q    Type
REMARK                         _______ _______ _______ _____ _____    ______ ____
ROOT
ATOM      1  C   UNL     1       2.836   5.680  19.673  0.00  0.00    +0.000 A 
ATOM      2  C   UNL     1       2.125   6.005  20.827  0.00  0.00    +0.000 A 
ATOM      3  C   UNL     1       1.452   7.226  20.923  0.00  0.00    +0.000 A 
ATOM      4  C   UNL     1       1.498   8.141  19.855  0.00  0.00    +0.000 A 
ATOM      5  N   UNL     1       0.858   9.360  19.828  0.00  0.00    +0.000 NA
ATOM      6  C   UNL     1       1.129  10.010  18.720  0.00  0.00    +0.000 A 
ATOM      7  N   UNL     1       0.686  11.264  18.425  0.00  0.00    +0.000 N 
ATOM      8  S   UNL     1       2.166   9.156  17.631  0.00  0.00    +0.000 S 
ATOM      9  C   UNL     1       2.248   7.826  18.727  0.00  0.00    +0.000 A 
ATOM     10  C   UNL     1       2.925   6.595  18.613  0.00  0.00    +0.000 A 
ATOM     11  H   UNL     1       1.057  11.691  17.583  0.00  0.00    +0.000 HD
ENDROOT
BRANCH   7  12
ATOM     12  N   UNL     1      -0.517  11.719  18.894  0.00  0.00    +0.000 NA
ATOM     13  C   UNL     1      -1.615  11.292  18.348  0.00  0.00    +0.000 C 
ATOM     14  C   UNL     1      -1.677  10.324  17.176  0.00  0.00    +0.000 C 
ATOM     15  C   UNL     1      -2.645  10.873  16.140  0.00  0.00    +0.000 C 
ATOM     16  C   UNL     1      -4.056  10.947  16.712  0.00  0.00    +0.000 C 
ATOM     17  C   UNL     1      -4.092  11.614  18.058  0.00  0.00    +0.000 A 
ATOM     18  C   UNL     1      -5.309  12.067  18.578  0.00  0.00    +0.000 A 
ATOM     19  C   UNL     1      -5.343  12.669  19.832  0.00  0.00    +0.000 A 
ATOM     20  C   UNL     1      -4.156  12.790  20.533  0.00  0.00    +0.000 A 
ATOM     21  N   UNL     1      -2.966  12.353  20.074  0.00  0.00    +0.000 NA
ATOM     22  C   UNL     1      -2.949  11.775  18.848  0.00  0.00    +0.000 A 
ENDBRANCH   7  12
BRANCH   1  24
ATOM     23  C   UNL     1       3.069   3.700  18.399  0.00  0.00    +0.000 C 
ATOM     24  O   UNL     1       3.514   4.502  19.492  0.00  0.00    +0.000 OA
ENDBRANCH   1  24
TORSDOF 2
ENDMDL
MODEL 8
REMARK VINA RESULT:      -6.8      2.431      3.518
REMARK  Name = 
REMARK  3 active torsions:
REMARK  status: ('A' for Active; 'I' for Inactive)
REMARK    1  A    between atoms: C_1  and  O_2
REMARK    2  A    between atoms: O_2  and  C_3
REMARK    3  A    between atoms: N_9  and  N_10
REMARK                            x       y       z     vdW  Elec       q    Type
REMARK                         _______ _______ _______ _____ _____    ______ ____
ROOT
ATOM      1  C   UNL     1      -0.671  13.658  19.567  0.00  0.00    +0.000 A 
ATOM      2  C   UNL     1      -1.532  12.621  19.923  0.00  0.00    +0.000 A 
ATOM      3  C   UNL     1      -1.164  11.290  19.703  0.00  0.00    +0.000 A 
ATOM      4  C   UNL     1       0.075  10.991  19.108  0.00  0.00    +0.000 A 
ATOM      5  N   UNL     1       0.551   9.722  18.864  0.00  0.00    +0.000 NA
ATOM      6  C   UNL     1       1.713   9.764  18.255  0.00  0.00    +0.000 A 
ATOM      7  N   UNL     1       2.411   8.673  17.834  0.00  0.00    +0.000 N 
ATOM      8  S   UNL     1       2.307  11.363  17.966  0.00  0.00    +0.000 S 
ATOM      9  C   UNL     1       0.906  12.035  18.714  0.00  0.00    +0.000 A 
ATOM     10  C   UNL     1       0.552  13.381  18.938  0.00  0.00    +0.000 A 
ATOM     11  H   UNL     1       3.245   8.850  17.283  0.00  0.00    +0.000 HD
ENDROOT
BRANCH   7  12
ATOM     12  N   UNL     1       2.331   7.480  18.502  0.00  0.00    +0.000 NA
ATOM     13  C   UNL     1       3.276   6.602  18.353  0.00  0.00    +0.000 C 
ATOM     14  C   UNL     1       4.485   6.780  17.447  0.00  0.00    +0.000 C 
ATOM     15  C   UNL     1       4.660   5.522  16.612  0.00  0.00    +0.000 C 
ATOM     16  C   UNL     1       4.964   4.325  17.505  0.00  0.00    +0.000 C 
ATOM     17  C   UNL     1       4.008   4.216  18.660  0.00  0.00    +0.000 A 
ATOM     18  C   UNL     1       3.920   3.020  19.380  0.00  0.00    +0.000 A 
ATOM     19  C   UNL     1       3.046   2.926  20.460  0.00  0.00    +0.000 A 
ATOM     20  C   UNL     1       2.294   4.039  20.792  0.00  0.00    +0.000 A 
ATOM     21  N   UNL     1       2.361   5.214  20.132  0.00  0.00    +0.000 NA
ATOM     22  C   UNL     1       3.211   5.286  19.080  0.00  0.00    +0.000 A 
ENDBRANCH   7  12
BRANCH   1  24
ATOM     23  C   UNL     1      -0.254  15.887  18.894  0.00  0.00    +0.000 C 
ATOM     24  O   UNL     1      -0.948  14.987  19.757  0.00  0.00    +0.000 OA
ENDBRANCH   1  24
TORSDOF 2
ENDMDL
MODEL 9
REMARK VINA RESULT:      -6.7      2.122      3.047
REMARK  Name = 
REMARK  3 active torsions:
REMARK  status: ('A' for Active; 'I' for Inactive)
REMARK    1  A    between atoms: C_1  and  O_2
REMARK    2  A    between atoms: O_2  and  C_3
REMARK    3  A    between atoms: N_9  and  N_10
REMARK                            x       y       z     vdW  Elec       q    Type
REMARK                         _______ _______ _______ _____ _____    ______ ____
ROOT
ATOM      1  C   UNL     1      -0.558  11.113  20.147  0.00  0.00    +0.000 A 
ATOM      2  C   UNL     1       0.233  11.471  19.056  0.00  0.00    +0.000 A 
ATOM      3  C   UNL     1       1.221  10.602  18.584  0.00  0.00    +0.000 A 
ATOM      4  C   UNL     1       1.431   9.364  19.217  0.00  0.00    +0.000 A 
ATOM      5  N   UNL     1       2.357   8.421  18.828  0.00  0.00    +0.000 NA
ATOM      6  C   UNL     1       2.352   7.391  19.642  0.00  0.00    +0.000 A 
ATOM      7  N   UNL     1       3.191   6.322  19.549  0.00  0.00    +0.000 N 
ATOM      8  S   UNL     1       1.193   7.502  20.921  0.00  0.00    +0.000 S 
ATOM      9  C   UNL     1       0.667   9.036  20.333  0.00  0.00    +0.000 A 
ATOM     10  C   UNL     1      -0.339   9.898  20.814  0.00  0.00    +0.000 A 
ATOM     11  H   UNL     1       3.152   5.646  20.305  0.00  0.00    +0.000 HD
ENDROOT
BRANCH   7  12
ATOM     12  N   UNL     1       3.665   5.896  18.337  0.00  0.00    +0.000 NA
ATOM     13  C   UNL     1       4.851   5.373  18.265  0.00  0.00    +0.000 C 
ATOM     14  C   UNL     1       5.799   5.218  19.445  0.00  0.00    +0.000 C 
ATOM     15  C   UNL     1       7.173   5.725  19.037  0.00  0.00    +0.000 C 
ATOM     16  C   UNL     1       7.745   4.872  17.911  0.00  0.00    +0.000 C 
ATOM     17  C   UNL     1       6.763   4.672  16.791  0.00  0.00    +0.000 A 
ATOM     18  C   UNL     1       7.210   4.213  15.547  0.00  0.00    +0.000 A 
ATOM     19  C   UNL     1       6.297   4.012  14.516  0.00  0.00    +0.000 A 
ATOM     20  C   UNL     1       4.960   4.269  14.766  0.00  0.00    +0.000 A 
ATOM     21  N   UNL     1       4.488   4.698  15.954  0.00  0.00    +0.000 NA
ATOM     22  C   UNL     1       5.391   4.894  16.945  0.00  0.00    +0.000 A 
ENDBRANCH   7  12
BRANCH   1  24
ATOM     23  C   UNL     1      -2.593  12.253  19.754  0.00  0.00    +0.000 C 
ATOM     24  O   UNL     1      -1.554  11.898  20.666  0.00  0.00    +0.000 OA
ENDBRANCH   1  24
TORSDOF 2
ENDMDL
