MODEL 1
REMARK VINA RESULT:      -6.5      0.000      0.000
REMARK  Name = 
REMARK  6 active torsions:
REMARK  status: ('A' for Active; 'I' for Inactive)
REMARK    1  A    between atoms: C_1  and  O_2
REMARK    2  A    between atoms: O_2  and  C_3
REMARK    3  A    between atoms: C_3  and  C_5
REMARK    4  A    between atoms: C_5  and  C_7
REMARK    5  A    between atoms: C_8  and  O_9
REMARK    6  A    between atoms: C_8  and  C_10
REMARK                            x       y       z     vdW  Elec       q    Type
REMARK                         _______ _______ _______ _____ _____    ______ ____
ROOT
ATOM      1  C   UNL     1       5.608   4.634  15.113  0.00  0.00    +0.000 C 
ATOM      2  C   UNL     1       5.775   4.338  16.414  0.00  0.00    +0.000 C 
ENDROOT
BRANCH   2   3
ATOM      3  C   UNL     1       4.637   4.218  17.356  0.00  0.00    +0.000 A 
ATOM      4  C   UNL     1       3.411   3.643  16.976  0.00  0.00    +0.000 A 
ATOM      5  C   UNL     1       2.355   3.531  17.887  0.00  0.00    +0.000 A 
ATOM      6  C   UNL     1       2.518   3.982  19.193  0.00  0.00    +0.000 A 
ATOM      7 BR   UNL     1       1.094   3.821  20.425  0.00  0.00    +0.000 Br
ATOM      8  C   UNL     1       3.724   4.542  19.599  0.00  0.00    +0.000 A 
ATOM      9  C   UNL     1       4.777   4.655  18.684  0.00  0.00    +0.000 A 
ENDBRANCH   2   3
BRANCH   1  10
ATOM     10  C   UNL     1       6.757   4.756  14.178  0.00  0.00    +0.000 C 
ATOM     11  O   UNL     1       7.770   5.376  14.481  0.00  0.00    +0.000 OA
BRANCH  10  12
ATOM     12  C   UNL     1       6.600   4.054  12.817  0.00  0.00    +0.000 C 
ATOM     13  O   UNL     1       7.329   4.291  11.868  0.00  0.00    +0.000 OA
BRANCH  12  15
ATOM     14  C   UNL     1       4.697   3.260  11.726  0.00  0.00    +0.000 C 
ATOM     15  O   UNL     1       5.572   3.183  12.853  0.00  0.00    +0.000 OA
ENDBRANCH  12  15
ENDBRANCH  10  12
ENDBRANCH   1  10
BRANCH   2  16
ATOM     16  O   UNL     1       7.014   4.144  16.994  0.00  0.00    +0.000 OA
ATOM     17  H   UNL     1       7.026   4.580  17.874  0.00  0.00    +0.000 HD
ENDBRANCH   2  16
TORSDOF 5
ENDMDL
MODEL 2
REMARK VINA RESULT:      -6.5      1.073      1.448
REMARK  Name = 
REMARK  6 active torsions:
REMARK  status: ('A' for Active; 'I' for Inactive)
REMARK    1  A    between atoms: C_1  and  O_2
REMARK    2  A    between atoms: O_2  and  C_3
REMARK    3  A    between atoms: C_3  and  C_5
REMARK    4  A    between atoms: C_5  and  C_7
REMARK    5  A    between atoms: C_8  and  O_9
REMARK    6  A    between atoms: C_8  and  C_10
REMARK                            x       y       z     vdW  Elec       q    Type
REMARK                         _______ _______ _______ _____ _____    ______ ____
ROOT
ATOM      1  C   UNL     1       5.794   4.373  15.191  0.00  0.00    +0.000 C 
ATOM      2  C   UNL     1       5.248   5.334  15.958  0.00  0.00    +0.000 C 
ENDROOT
BRANCH   2   3
ATOM      3  C   UNL     1       4.260   5.038  17.023  0.00  0.00    +0.000 A 
ATOM      4  C   UNL     1       3.729   6.043  17.850  0.00  0.00    +0.000 A 
ATOM      5  C   UNL     1       2.790   5.739  18.841  0.00  0.00    +0.000 A 
ATOM      6  C   UNL     1       2.361   4.426  19.008  0.00  0.00    +0.000 A 
ATOM      7 BR   UNL     1       1.084   4.019  20.340  0.00  0.00    +0.000 Br
ATOM      8  C   UNL     1       2.859   3.415  18.194  0.00  0.00    +0.000 A 
ATOM      9  C   UNL     1       3.801   3.722  17.206  0.00  0.00    +0.000 A 
ENDBRANCH   2   3
BRANCH   1  10
ATOM     10  C   UNL     1       6.781   4.681  14.124  0.00  0.00    +0.000 C 
ATOM     11  O   UNL     1       7.730   5.432  14.322  0.00  0.00    +0.000 OA
BRANCH  10  12
ATOM     12  C   UNL     1       6.544   3.999  12.764  0.00  0.00    +0.000 C 
ATOM     13  O   UNL     1       7.294   4.150  11.815  0.00  0.00    +0.000 OA
BRANCH  12  15
ATOM     14  C   UNL     1       4.721   3.180  11.560  0.00  0.00    +0.000 C 
ATOM     15  O   UNL     1       5.422   3.252  12.803  0.00  0.00    +0.000 OA
ENDBRANCH  12  15
ENDBRANCH  10  12
ENDBRANCH   1  10
BRANCH   2  16
ATOM     16  O   UNL     1       5.539   6.676  15.811  0.00  0.00    +0.000 OA
ATOM     17  H   UNL     1       5.110   7.008  14.993  0.00  0.00    +0.000 HD
ENDBRANCH   2  16
TORSDOF 5
ENDMDL
MODEL 3
REMARK VINA RESULT:      -6.4      0.154      1.204
REMARK  Name = 
REMARK  6 active torsions:
REMARK  status: ('A' for Active; 'I' for Inactive)
REMARK    1  A    between atoms: C_1  and  O_2
REMARK    2  A    between atoms: O_2  and  C_3
REMARK    3  A    between atoms: C_3  and  C_5
REMARK    4  A    between atoms: C_5  and  C_7
REMARK    5  A    between atoms: C_8  and  O_9
REMARK    6  A    between atoms: C_8  and  C_10
REMARK                            x       y       z     vdW  Elec       q    Type
REMARK                         _______ _______ _______ _____ _____    ______ ____
ROOT
ATOM      1  C   UNL     1       5.651   4.683  15.177  0.00  0.00    +0.000 C 
ATOM      2  C   UNL     1       5.814   4.353  16.471  0.00  0.00    +0.000 C 
ENDROOT
BRANCH   2   3
ATOM      3  C   UNL     1       4.676   4.247  17.415  0.00  0.00    +0.000 A 
ATOM      4  C   UNL     1       4.674   4.901  18.659  0.00  0.00    +0.000 A 
ATOM      5  C   UNL     1       3.583   4.794  19.528  0.00  0.00    +0.000 A 
ATOM      6  C   UNL     1       2.474   4.041  19.156  0.00  0.00    +0.000 A 
ATOM      7 BR   UNL     1       0.996   3.907  20.327  0.00  0.00    +0.000 Br
ATOM      8  C   UNL     1       2.443   3.396  17.925  0.00  0.00    +0.000 A 
ATOM      9  C   UNL     1       3.538   3.503  17.060  0.00  0.00    +0.000 A 
ENDBRANCH   2   3
BRANCH   1  10
ATOM     10  C   UNL     1       6.799   4.790  14.240  0.00  0.00    +0.000 C 
ATOM     11  O   UNL     1       7.823   5.392  14.542  0.00  0.00    +0.000 OA
BRANCH  10  12
ATOM     12  C   UNL     1       6.627   4.096  12.876  0.00  0.00    +0.000 C 
ATOM     13  O   UNL     1       7.350   4.334  11.924  0.00  0.00    +0.000 OA
BRANCH  12  15
ATOM     14  C   UNL     1       4.886   3.105  11.680  0.00  0.00    +0.000 C 
ATOM     15  O   UNL     1       5.592   3.232  12.915  0.00  0.00    +0.000 OA
ENDBRANCH  12  15
ENDBRANCH  10  12
ENDBRANCH   1  10
BRANCH   2  16
ATOM     16  O   UNL     1       7.048   4.106  17.040  0.00  0.00    +0.000 OA
ATOM     17  H   UNL     1       7.076   3.174  17.347  0.00  0.00    +0.000 HD
ENDBRANCH   2  16
TORSDOF 5
ENDMDL
MODEL 4
REMARK VINA RESULT:      -6.4      1.079      1.144
REMARK  Name = 
REMARK  6 active torsions:
REMARK  status: ('A' for Active; 'I' for Inactive)
REMARK    1  A    between atoms: C_1  and  O_2
REMARK    2  A    between atoms: O_2  and  C_3
REMARK    3  A    between atoms: C_3  and  C_5
REMARK    4  A    between atoms: C_5  and  C_7
REMARK    5  A    between atoms: C_8  and  O_9
REMARK    6  A    between atoms: C_8  and  C_10
REMARK                            x       y       z     vdW  Elec       q    Type
REMARK                         _______ _______ _______ _____ _____    ______ ____
ROOT
ATOM      1  C   UNL     1       5.901   4.420  15.257  0.00  0.00    +0.000 C 
ATOM      2  C   UNL     1       5.230   5.373  15.929  0.00  0.00    +0.000 C 
ENDROOT
BRANCH   2   3
ATOM      3  C   UNL     1       4.242   5.054  16.987  0.00  0.00    +0.000 A 
ATOM      4  C   UNL     1       3.650   3.784  17.099  0.00  0.00    +0.000 A 
ATOM      5  C   UNL     1       2.728   3.505  18.113  0.00  0.00    +0.000 A 
ATOM      6  C   UNL     1       2.396   4.492  19.036  0.00  0.00    +0.000 A 
ATOM      7 BR   UNL     1       1.158   4.110  20.412  0.00  0.00    +0.000 Br
ATOM      8  C   UNL     1       2.978   5.752  18.958  0.00  0.00    +0.000 A 
ATOM      9  C   UNL     1       3.897   6.028  17.940  0.00  0.00    +0.000 A 
ENDBRANCH   2   3
BRANCH   1  10
ATOM     10  C   UNL     1       6.887   4.751  14.195  0.00  0.00    +0.000 C 
ATOM     11  O   UNL     1       7.845   5.484  14.412  0.00  0.00    +0.000 OA
BRANCH  10  12
ATOM     12  C   UNL     1       6.636   4.114  12.816  0.00  0.00    +0.000 C 
ATOM     13  O   UNL     1       7.375   4.299  11.864  0.00  0.00    +0.000 OA
BRANCH  12  15
ATOM     14  C   UNL     1       5.286   2.613  11.648  0.00  0.00    +0.000 C 
ATOM     15  O   UNL     1       5.517   3.363  12.842  0.00  0.00    +0.000 OA
ENDBRANCH  12  15
ENDBRANCH  10  12
ENDBRANCH   1  10
BRANCH   2  16
ATOM     16  O   UNL     1       5.382   6.723  15.683  0.00  0.00    +0.000 OA
ATOM     17  H   UNL     1       5.512   6.859  14.720  0.00  0.00    +0.000 HD
ENDBRANCH   2  16
TORSDOF 5
ENDMDL
MODEL 5
REMARK VINA RESULT:      -6.3      1.027      1.485
REMARK  Name = 
REMARK  6 active torsions:
REMARK  status: ('A' for Active; 'I' for Inactive)
REMARK    1  A    between atoms: C_1  and  O_2
REMARK    2  A    between atoms: O_2  and  C_3
REMARK    3  A    between atoms: C_3  and  C_5
REMARK    4  A    between atoms: C_5  and  C_7
REMARK    5  A    between atoms: C_8  and  O_9
REMARK    6  A    between atoms: C_8  and  C_10
REMARK                            x       y       z     vdW  Elec       q    Type
REMARK                         _______ _______ _______ _____ _____    ______ ____
ROOT
ATOM      1  C   UNL     1       5.778   3.922  15.476  0.00  0.00    +0.000 C 
ATOM      2  C   UNL     1       5.073   4.752  16.266  0.00  0.00    +0.000 C 
ENDROOT
BRANCH   2   3
ATOM      3  C   UNL     1       4.246   4.264  17.395  0.00  0.00    +0.000 A 
ATOM      4  C   UNL     1       4.812   3.856  18.615  0.00  0.00    +0.000 A 
ATOM      5  C   UNL     1       4.008   3.410  19.670  0.00  0.00    +0.000 A 
ATOM      6  C   UNL     1       2.626   3.378  19.519  0.00  0.00    +0.000 A 
ATOM      7 BR   UNL     1       1.541   2.784  20.948  0.00  0.00    +0.000 Br
ATOM      8  C   UNL     1       2.039   3.789  18.327  0.00  0.00    +0.000 A 
ATOM      9  C   UNL     1       2.846   4.231  17.274  0.00  0.00    +0.000 A 
ENDBRANCH   2   3
BRANCH   1  10
ATOM     10  C   UNL     1       6.602   4.422  14.344  0.00  0.00    +0.000 C 
ATOM     11  O   UNL     1       7.515   5.223  14.517  0.00  0.00    +0.000 OA
BRANCH  10  12
ATOM     12  C   UNL     1       6.246   3.871  12.952  0.00  0.00    +0.000 C 
ATOM     13  O   UNL     1       7.079   3.709  12.077  0.00  0.00    +0.000 OA
BRANCH  12  15
ATOM     14  C   UNL     1       4.482   3.206  11.577  0.00  0.00    +0.000 C 
ATOM     15  O   UNL     1       4.924   3.618  12.871  0.00  0.00    +0.000 OA
ENDBRANCH  12  15
ENDBRANCH  10  12
ENDBRANCH   1  10
BRANCH   2  16
ATOM     16  O   UNL     1       5.037   6.121  16.086  0.00  0.00    +0.000 OA
ATOM     17  H   UNL     1       4.744   6.315  15.170  0.00  0.00    +0.000 HD
ENDBRANCH   2  16
TORSDOF 5
ENDMDL
MODEL 6
REMARK VINA RESULT:      -6.2      1.011      1.011
REMARK  Name = 
REMARK  6 active torsions:
REMARK  status: ('A' for Active; 'I' for Inactive)
REMARK    1  A    between atoms: C_1  and  O_2
REMARK    2  A    between atoms: O_2  and  C_3
REMARK    3  A    between atoms: C_3  and  C_5
REMARK    4  A    between atoms: C_5  and  C_7
REMARK    5  A    between atoms: C_8  and  O_9
REMARK    6  A    between atoms: C_8  and  C_10
REMARK                            x       y       z     vdW  Elec       q    Type
REMARK                         _______ _______ _______ _____ _____    ______ ____
ROOT
ATOM      1  C   UNL     1       5.835   4.003  15.455  0.00  0.00    +0.000 C 
ATOM      2  C   UNL     1       5.077   4.827  16.201  0.00  0.00    +0.000 C 
ENDROOT
BRANCH   2   3
ATOM      3  C   UNL     1       4.227   4.337  17.312  0.00  0.00    +0.000 A 
ATOM      4  C   UNL     1       2.830   4.231  17.193  0.00  0.00    +0.000 A 
ATOM      5  C   UNL     1       2.051   3.756  18.254  0.00  0.00    +0.000 A 
ATOM      6  C   UNL     1       2.662   3.370  19.443  0.00  0.00    +0.000 A 
ATOM      7 BR   UNL     1       1.609   2.719  20.870  0.00  0.00    +0.000 Br
ATOM      8  C   UNL     1       4.043   3.452  19.581  0.00  0.00    +0.000 A 
ATOM      9  C   UNL     1       4.819   3.930  18.520  0.00  0.00    +0.000 A 
ENDBRANCH   2   3
BRANCH   1  10
ATOM     10  C   UNL     1       6.681   4.504  14.340  0.00  0.00    +0.000 C 
ATOM     11  O   UNL     1       7.575   5.322  14.528  0.00  0.00    +0.000 OA
BRANCH  10  12
ATOM     12  C   UNL     1       6.372   3.931  12.945  0.00  0.00    +0.000 C 
ATOM     13  O   UNL     1       7.155   4.014  12.014  0.00  0.00    +0.000 OA
BRANCH  12  15
ATOM     14  C   UNL     1       4.543   3.300  11.642  0.00  0.00    +0.000 C 
ATOM     15  O   UNL     1       5.152   3.357  12.933  0.00  0.00    +0.000 OA
ENDBRANCH  12  15
ENDBRANCH  10  12
ENDBRANCH   1  10
BRANCH   2  16
ATOM     16  O   UNL     1       5.004   6.190  15.988  0.00  0.00    +0.000 OA
ATOM     17  H   UNL     1       5.345   6.655  16.782  0.00  0.00    +0.000 HD
ENDBRANCH   2  16
TORSDOF 5
ENDMDL
MODEL 7
REMARK VINA RESULT:      -6.1      1.698      2.115
REMARK  Name = 
REMARK  6 active torsions:
REMARK  status: ('A' for Active; 'I' for Inactive)
REMARK    1  A    between atoms: C_1  and  O_2
REMARK    2  A    between atoms: O_2  and  C_3
REMARK    3  A    between atoms: C_3  and  C_5
REMARK    4  A    between atoms: C_5  and  C_7
REMARK    5  A    between atoms: C_8  and  O_9
REMARK    6  A    between atoms: C_8  and  C_10
REMARK                            x       y       z     vdW  Elec       q    Type
REMARK                         _______ _______ _______ _____ _____    ______ ____
ROOT
ATOM      1  C   UNL     1       5.828   5.065  16.832  0.00  0.00    +0.000 C 
ATOM      2  C   UNL     1       5.835   5.157  18.173  0.00  0.00    +0.000 C 
ENDROOT
BRANCH   2   3
ATOM      3  C   UNL     1       4.752   4.594  19.015  0.00  0.00    +0.000 A 
ATOM      4  C   UNL     1       3.745   5.400  19.574  0.00  0.00    +0.000 A 
ATOM      5  C   UNL     1       2.727   4.842  20.357  0.00  0.00    +0.000 A 
ATOM      6  C   UNL     1       2.700   3.470  20.579  0.00  0.00    +0.000 A 
ATOM      7 BR   UNL     1       1.319   2.717  21.628  0.00  0.00    +0.000 Br
ATOM      8  C   UNL     1       3.676   2.648  20.026  0.00  0.00    +0.000 A 
ATOM      9  C   UNL     1       4.693   3.209  19.247  0.00  0.00    +0.000 A 
ENDBRANCH   2   3
BRANCH   1  10
ATOM     10  C   UNL     1       6.917   5.636  15.997  0.00  0.00    +0.000 C 
ATOM     11  O   UNL     1       7.612   6.565  16.392  0.00  0.00    +0.000 OA
BRANCH  10  12
ATOM     12  C   UNL     1       7.122   4.989  14.615  0.00  0.00    +0.000 C 
ATOM     13  O   UNL     1       7.905   5.431  13.793  0.00  0.00    +0.000 OA
BRANCH  12  15
ATOM     14  C   UNL     1       5.942   3.628  13.132  0.00  0.00    +0.000 C 
ATOM     15  O   UNL     1       6.325   3.909  14.479  0.00  0.00    +0.000 OA
ENDBRANCH  12  15
ENDBRANCH  10  12
ENDBRANCH   1  10
BRANCH   2  16
ATOM     16  O   UNL     1       6.830   5.800  18.884  0.00  0.00    +0.000 OA
ATOM     17  H   UNL     1       6.560   6.730  19.040  0.00  0.00    +0.000 HD
ENDBRANCH   2  16
TORSDOF 5
ENDMDL
MODEL 8
REMARK VINA RESULT:      -6.1      1.605      2.015
REMARK  Name = 
REMARK  6 active torsions:
REMARK  status: ('A' for Active; 'I' for Inactive)
REMARK    1  A    between atoms: C_1  and  O_2
REMARK    2  A    between atoms: O_2  and  C_3
REMARK    3  A    between atoms: C_3  and  C_5
REMARK    4  A    between atoms: C_5  and  C_7
REMARK    5  A    between atoms: C_8  and  O_9
REMARK    6  A    between atoms: C_8  and  C_10
REMARK                            x       y       z     vdW  Elec       q    Type
REMARK                         _______ _______ _______ _____ _____    ______ ____
ROOT
ATOM      1  C   UNL     1       6.124   4.897  16.981  0.00  0.00    +0.000 C 
ATOM      2  C   UNL     1       5.104   5.508  17.609  0.00  0.00    +0.000 C 
ENDROOT
BRANCH   2   3
ATOM      3  C   UNL     1       4.212   4.797  18.556  0.00  0.00    +0.000 A 
ATOM      4  C   UNL     1       4.101   3.396  18.569  0.00  0.00    +0.000 A 
ATOM      5  C   UNL     1       3.260   2.748  19.480  0.00  0.00    +0.000 A 
ATOM      6  C   UNL     1       2.529   3.495  20.398  0.00  0.00    +0.000 A 
ATOM      7 BR   UNL     1       1.401   2.618  21.635  0.00  0.00    +0.000 Br
ATOM      8  C   UNL     1       2.631   4.882  20.416  0.00  0.00    +0.000 A 
ATOM      9  C   UNL     1       3.471   5.526  19.501  0.00  0.00    +0.000 A 
ENDBRANCH   2   3
BRANCH   1  10
ATOM     10  C   UNL     1       7.010   5.619  16.030  0.00  0.00    +0.000 C 
ATOM     11  O   UNL     1       7.618   6.631  16.359  0.00  0.00    +0.000 OA
BRANCH  10  12
ATOM     12  C   UNL     1       7.121   5.017  14.618  0.00  0.00    +0.000 C 
ATOM     13  O   UNL     1       7.880   5.461  13.773  0.00  0.00    +0.000 OA
BRANCH  12  15
ATOM     14  C   UNL     1       6.003   3.610  13.130  0.00  0.00    +0.000 C 
ATOM     15  O   UNL     1       6.278   3.973  14.484  0.00  0.00    +0.000 OA
ENDBRANCH  12  15
ENDBRANCH  10  12
ENDBRANCH   1  10
BRANCH   2  16
ATOM     16  O   UNL     1       4.780   6.837  17.413  0.00  0.00    +0.000 OA
ATOM     17  H   UNL     1       5.232   7.378  18.096  0.00  0.00    +0.000 HD
ENDBRANCH   2  16
TORSDOF 5
ENDMDL
MODEL 9
REMARK VINA RESULT:      -6.0      1.731      2.334
REMARK  Name = 
REMARK  6 active torsions:
REMARK  status: ('A' for Active; 'I' for Inactive)
REMARK    1  A    between atoms: C_1  and  O_2
REMARK    2  A    between atoms: O_2  and  C_3
REMARK    3  A    between atoms: C_3  and  C_5
REMARK    4  A    between atoms: C_5  and  C_7
REMARK    5  A    between atoms: C_8  and  O_9
REMARK    6  A    between atoms: C_8  and  C_10
REMARK                            x       y       z     vdW  Elec       q    Type
REMARK                         _______ _______ _______ _____ _____    ______ ____
ROOT
ATOM      1  C   UNL     1       4.927   4.963  16.397  0.00  0.00    +0.000 C 
ATOM      2  C   UNL     1       4.289   5.609  17.389  0.00  0.00    +0.000 C 
ENDROOT
BRANCH   2   3
ATOM      3  C   UNL     1       3.613   4.894  18.498  0.00  0.00    +0.000 A 
ATOM      4  C   UNL     1       2.912   5.575  19.509  0.00  0.00    +0.000 A 
ATOM      5  C   UNL     1       2.274   4.876  20.539  0.00  0.00    +0.000 A 
ATOM      6  C   UNL     1       2.320   3.486  20.564  0.00  0.00    +0.000 A 
ATOM      7 BR   UNL     1       1.448   2.543  21.951  0.00  0.00    +0.000 Br
ATOM      8  C   UNL     1       2.994   2.787  19.568  0.00  0.00    +0.000 A 
ATOM      9  C   UNL     1       3.633   3.489  18.541  0.00  0.00    +0.000 A 
ENDBRANCH   2   3
BRANCH   1  10
ATOM     10  C   UNL     1       5.598   5.690  15.287  0.00  0.00    +0.000 C 
ATOM     11  O   UNL     1       5.283   6.836  14.985  0.00  0.00    +0.000 OA
BRANCH  10  12
ATOM     12  C   UNL     1       6.710   4.923  14.549  0.00  0.00    +0.000 C 
ATOM     13  O   UNL     1       7.823   5.388  14.374  0.00  0.00    +0.000 OA
BRANCH  12  15
ATOM     14  C   UNL     1       6.195   3.553  12.733  0.00  0.00    +0.000 C 
ATOM     15  O   UNL     1       6.262   3.715  14.150  0.00  0.00    +0.000 OA
ENDBRANCH  12  15
ENDBRANCH  10  12
ENDBRANCH   1  10
BRANCH   2  16
ATOM     16  O   UNL     1       4.184   6.985  17.454  0.00  0.00    +0.000 OA
ATOM     17  H   UNL     1       4.560   7.293  18.307  0.00  0.00    +0.000 HD
ENDBRANCH   2  16
TORSDOF 5
ENDMDL
