MODEL 1
REMARK VINA RESULT:      -8.6      0.000      0.000
REMARK  Name = 
REMARK  12 active torsions:
REMARK  status: ('A' for Active; 'I' for Inactive)
REMARK    1  A    between atoms: C_1  and  C_2
REMARK    2  A    between atoms: C_7  and  N_8
REMARK    3  A    between atoms: N_8  and  C_9
REMARK    4  A    between atoms: N_8  and  S_29
REMARK    5  A    between atoms: C_9  and  C_10
REMARK    6  A    between atoms: N_12  and  N_13
REMARK    7  A    between atoms: C_14  and  C_15
REMARK    8  A    between atoms: C_17  and  C_18
REMARK    9  A    between atoms: N_19  and  C_20
REMARK   10  A    between atoms: C_25  and  C_26
REMARK   11  A    between atoms: C_27  and  C_28
REMARK   12  A    between atoms: S_29  and  C_30
REMARK                            x       y       z     vdW  Elec       q    Type
REMARK                         _______ _______ _______ _____ _____    ______ ____
ROOT
ATOM      1  C   UNL     1       0.182   9.555  21.072  0.00  0.00    +0.000 C 
ATOM      2  O   UNL     1      -0.651  10.254  21.659  0.00  0.00    +0.000 OA
ATOM      3  N   UNL     1       0.821   8.536  21.748  0.00  0.00    +0.000 N 
ATOM      4  H   UNL     1       0.573   8.399  22.722  0.00  0.00    +0.000 HD
ENDROOT
BRANCH   3   5
ATOM      5  N   UNL     1       1.725   7.721  21.135  0.00  0.00    +0.000 NA
ATOM      6  C   UNL     1       1.352   6.509  20.894  0.00  0.00    +0.000 C 
BRANCH   6   7
ATOM      7  C   UNL     1       2.267   5.637  20.180  0.00  0.00    +0.000 A 
ATOM      8  C   UNL     1       2.565   4.293  20.463  0.00  0.00    +0.000 A 
ATOM      9  C   UNL     1       3.517   3.851  19.568  0.00  0.00    +0.000 A 
ATOM     10  C   UNL     1       4.133   2.489  19.597  0.00  0.00    +0.000 C 
ATOM     11  N   UNL     1       3.868   4.922  18.727  0.00  0.00    +0.000 N 
ATOM     12  C   UNL     1       2.994   5.976  19.043  0.00  0.00    +0.000 A 
ATOM     13  C   UNL     1       2.796   7.212  18.235  0.00  0.00    +0.000 C 
BRANCH  11  14
ATOM     14  C   UNL     1       4.884   4.900  17.694  0.00  0.00    +0.000 A 
ATOM     15  C   UNL     1       4.502   4.475  16.404  0.00  0.00    +0.000 A 
ATOM     16  C   UNL     1       5.411   4.402  15.346  0.00  0.00    +0.000 A 
ATOM     17  C   UNL     1       6.715   4.823  15.531  0.00  0.00    +0.000 A 
ATOM     18  C   UNL     1       7.117   5.267  16.787  0.00  0.00    +0.000 A 
ATOM     19  C   UNL     1       6.239   5.264  17.898  0.00  0.00    +0.000 A 
ATOM     20  C   UNL     1       6.889   5.572  19.220  0.00  0.00    +0.000 C 
ENDBRANCH  11  14
ENDBRANCH   6   7
ENDBRANCH   3   5
BRANCH   1  21
ATOM     21  C   UNL     1       0.597   9.830  19.647  0.00  0.00    +0.000 C 
BRANCH  21  22
ATOM     22  N   UNL     1      -0.044  10.933  18.913  0.00  0.00    +0.000 N 
BRANCH  22  29
ATOM     23  C   UNL     1      -2.434  12.463  20.123  0.00  0.00    +0.000 C 
ATOM     24  C   UNL     1      -2.482  11.588  18.903  0.00  0.00    +0.000 A 
ATOM     25  C   UNL     1      -3.739  11.461  18.271  0.00  0.00    +0.000 A 
ATOM     26  C   UNL     1      -3.913  10.652  17.150  0.00  0.00    +0.000 A 
ATOM     27  C   UNL     1      -2.827   9.956  16.638  0.00  0.00    +0.000 A 
ATOM     28  C   UNL     1      -1.575  10.069  17.250  0.00  0.00    +0.000 A 
ATOM     29  C   UNL     1      -1.386  10.869  18.390  0.00  0.00    +0.000 A 
ENDBRANCH  22  29
BRANCH  22  30
ATOM     30  S   UNL     1       0.745  12.435  18.974  0.00  0.00    +0.000 S 
ATOM     31  C   UNL     1       2.324  12.058  18.252  0.00  0.00    +0.000 C 
ATOM     32  O   UNL     1       0.079  13.339  18.051  0.00  0.00    +0.000 OA
ATOM     33  O   UNL     1       0.968  12.828  20.347  0.00  0.00    +0.000 OA
ENDBRANCH  22  30
ENDBRANCH  21  22
ENDBRANCH   1  21
TORSDOF 7
ENDMDL
MODEL 2
REMARK VINA RESULT:      -8.1      6.773      9.795
REMARK  Name = 
REMARK  12 active torsions:
REMARK  status: ('A' for Active; 'I' for Inactive)
REMARK    1  A    between atoms: C_1  and  C_2
REMARK    2  A    between atoms: C_7  and  N_8
REMARK    3  A    between atoms: N_8  and  C_9
REMARK    4  A    between atoms: N_8  and  S_29
REMARK    5  A    between atoms: C_9  and  C_10
REMARK    6  A    between atoms: N_12  and  N_13
REMARK    7  A    between atoms: C_14  and  C_15
REMARK    8  A    between atoms: C_17  and  C_18
REMARK    9  A    between atoms: N_19  and  C_20
REMARK   10  A    between atoms: C_25  and  C_26
REMARK   11  A    between atoms: C_27  and  C_28
REMARK   12  A    between atoms: S_29  and  C_30
REMARK                            x       y       z     vdW  Elec       q    Type
REMARK                         _______ _______ _______ _____ _____    ______ ____
ROOT
ATOM      1  C   UNL     1       7.798   6.500  18.479  0.00  0.00    +0.000 C 
ATOM      2  O   UNL     1       8.006   5.312  18.750  0.00  0.00    +0.000 OA
ATOM      3  N   UNL     1       8.624   7.477  18.995  0.00  0.00    +0.000 N 
ATOM      4  H   UNL     1       9.387   7.173  19.590  0.00  0.00    +0.000 HD
ENDROOT
BRANCH   3   5
ATOM      5  N   UNL     1       8.450   8.796  18.700  0.00  0.00    +0.000 NA
ATOM      6  C   UNL     1       9.383   9.608  19.073  0.00  0.00    +0.000 C 
BRANCH   6   7
ATOM      7  C   UNL     1       9.260  11.008  18.712  0.00  0.00    +0.000 A 
ATOM      8  C   UNL     1       8.173  11.636  18.079  0.00  0.00    +0.000 A 
ATOM      9  C   UNL     1       8.482  12.966  17.880  0.00  0.00    +0.000 A 
ATOM     10  C   UNL     1       7.596  13.941  17.175  0.00  0.00    +0.000 C 
ATOM     11  N   UNL     1       9.789  13.193  18.348  0.00  0.00    +0.000 N 
ATOM     12  C   UNL     1      10.200  12.001  18.969  0.00  0.00    +0.000 A 
ATOM     13  C   UNL     1      11.392  11.846  19.849  0.00  0.00    +0.000 C 
BRANCH  11  14
ATOM     14  C   UNL     1      10.523  14.439  18.261  0.00  0.00    +0.000 A 
ATOM     15  C   UNL     1      11.438  14.591  17.198  0.00  0.00    +0.000 A 
ATOM     16  C   UNL     1      12.205  15.747  17.038  0.00  0.00    +0.000 A 
ATOM     17  C   UNL     1      12.026  16.816  17.896  0.00  0.00    +0.000 A 
ATOM     18  C   UNL     1      11.115  16.704  18.942  0.00  0.00    +0.000 A 
ATOM     19  C   UNL     1      10.392  15.510  19.181  0.00  0.00    +0.000 A 
ATOM     20  C   UNL     1       9.615  15.486  20.470  0.00  0.00    +0.000 C 
ENDBRANCH  11  14
ENDBRANCH   6   7
ENDBRANCH   3   5
BRANCH   1  21
ATOM     21  C   UNL     1       6.607   6.938  17.660  0.00  0.00    +0.000 C 
BRANCH  21  22
ATOM     22  N   UNL     1       5.540   5.966  17.369  0.00  0.00    +0.000 N 
BRANCH  22  29
ATOM     23  C   UNL     1       3.043   7.730  17.778  0.00  0.00    +0.000 C 
ATOM     24  C   UNL     1       3.311   6.421  18.464  0.00  0.00    +0.000 A 
ATOM     25  C   UNL     1       2.327   5.976  19.375  0.00  0.00    +0.000 A 
ATOM     26  C   UNL     1       2.481   4.792  20.093  0.00  0.00    +0.000 A 
ATOM     27  C   UNL     1       3.624   4.027  19.908  0.00  0.00    +0.000 A 
ATOM     28  C   UNL     1       4.608   4.451  19.010  0.00  0.00    +0.000 A 
ATOM     29  C   UNL     1       4.476   5.650  18.289  0.00  0.00    +0.000 A 
ENDBRANCH  22  29
BRANCH  22  30
ATOM     30  S   UNL     1       5.416   5.447  15.758  0.00  0.00    +0.000 S 
ATOM     31  C   UNL     1       7.035   4.780  15.454  0.00  0.00    +0.000 C 
ATOM     32  O   UNL     1       4.495   4.323  15.709  0.00  0.00    +0.000 OA
ATOM     33  O   UNL     1       5.231   6.580  14.879  0.00  0.00    +0.000 OA
ENDBRANCH  22  30
ENDBRANCH  21  22
ENDBRANCH   1  21
TORSDOF 7
ENDMDL
MODEL 3
REMARK VINA RESULT:      -8.1      6.845      9.858
REMARK  Name = 
REMARK  12 active torsions:
REMARK  status: ('A' for Active; 'I' for Inactive)
REMARK    1  A    between atoms: C_1  and  C_2
REMARK    2  A    between atoms: C_7  and  N_8
REMARK    3  A    between atoms: N_8  and  C_9
REMARK    4  A    between atoms: N_8  and  S_29
REMARK    5  A    between atoms: C_9  and  C_10
REMARK    6  A    between atoms: N_12  and  N_13
REMARK    7  A    between atoms: C_14  and  C_15
REMARK    8  A    between atoms: C_17  and  C_18
REMARK    9  A    between atoms: N_19  and  C_20
REMARK   10  A    between atoms: C_25  and  C_26
REMARK   11  A    between atoms: C_27  and  C_28
REMARK   12  A    between atoms: S_29  and  C_30
REMARK                            x       y       z     vdW  Elec       q    Type
REMARK                         _______ _______ _______ _____ _____    ______ ____
ROOT
ATOM      1  C   UNL     1       7.817   6.609  18.395  0.00  0.00    +0.000 C 
ATOM      2  O   UNL     1       7.990   5.426  18.706  0.00  0.00    +0.000 OA
ATOM      3  N   UNL     1       8.605   7.590  18.959  0.00  0.00    +0.000 N 
ATOM      4  H   UNL     1       9.314   7.292  19.621  0.00  0.00    +0.000 HD
ENDROOT
BRANCH   3   5
ATOM      5  N   UNL     1       8.469   8.905  18.625  0.00  0.00    +0.000 NA
ATOM      6  C   UNL     1       9.275   9.740  19.190  0.00  0.00    +0.000 C 
BRANCH   6   7
ATOM      7  C   UNL     1       9.201  11.136  18.802  0.00  0.00    +0.000 A 
ATOM      8  C   UNL     1       8.125  11.796  18.184  0.00  0.00    +0.000 A 
ATOM      9  C   UNL     1       8.484  13.107  17.949  0.00  0.00    +0.000 A 
ATOM     10  C   UNL     1       7.620  14.105  17.246  0.00  0.00    +0.000 C 
ATOM     11  N   UNL     1       9.811  13.289  18.378  0.00  0.00    +0.000 N 
ATOM     12  C   UNL     1      10.188  12.094  19.014  0.00  0.00    +0.000 A 
ATOM     13  C   UNL     1      11.396  11.907  19.866  0.00  0.00    +0.000 C 
BRANCH  11  14
ATOM     14  C   UNL     1      10.593  14.502  18.246  0.00  0.00    +0.000 A 
ATOM     15  C   UNL     1      11.520  14.574  17.185  0.00  0.00    +0.000 A 
ATOM     16  C   UNL     1      12.333  15.691  16.983  0.00  0.00    +0.000 A 
ATOM     17  C   UNL     1      12.189  16.801  17.795  0.00  0.00    +0.000 A 
ATOM     18  C   UNL     1      11.267  16.769  18.837  0.00  0.00    +0.000 A 
ATOM     19  C   UNL     1      10.497  15.614  19.119  0.00  0.00    +0.000 A 
ATOM     20  C   UNL     1       9.711  15.675  20.401  0.00  0.00    +0.000 C 
ENDBRANCH  11  14
ENDBRANCH   6   7
ENDBRANCH   3   5
BRANCH   1  21
ATOM     21  C   UNL     1       6.701   7.039  17.473  0.00  0.00    +0.000 C 
BRANCH  21  22
ATOM     22  N   UNL     1       5.549   6.144  17.274  0.00  0.00    +0.000 N 
BRANCH  22  29
ATOM     23  C   UNL     1       5.082   3.881  19.319  0.00  0.00    +0.000 C 
ATOM     24  C   UNL     1       4.206   5.086  19.132  0.00  0.00    +0.000 A 
ATOM     25  C   UNL     1       3.071   5.173  19.969  0.00  0.00    +0.000 A 
ATOM     26  C   UNL     1       2.168   6.230  19.866  0.00  0.00    +0.000 A 
ATOM     27  C   UNL     1       2.388   7.224  18.923  0.00  0.00    +0.000 A 
ATOM     28  C   UNL     1       3.506   7.155  18.086  0.00  0.00    +0.000 A 
ATOM     29  C   UNL     1       4.418   6.089  18.166  0.00  0.00    +0.000 A 
ENDBRANCH  22  29
BRANCH  22  30
ATOM     30  S   UNL     1       5.440   5.386  15.759  0.00  0.00    +0.000 S 
ATOM     31  C   UNL     1       7.080   4.738  15.545  0.00  0.00    +0.000 C 
ATOM     32  O   UNL     1       4.559   4.237  15.885  0.00  0.00    +0.000 OA
ATOM     33  O   UNL     1       5.213   6.369  14.723  0.00  0.00    +0.000 OA
ENDBRANCH  22  30
ENDBRANCH  21  22
ENDBRANCH   1  21
TORSDOF 7
ENDMDL
MODEL 4
REMARK VINA RESULT:      -8.1      3.595      9.585
REMARK  Name = 
REMARK  12 active torsions:
REMARK  status: ('A' for Active; 'I' for Inactive)
REMARK    1  A    between atoms: C_1  and  C_2
REMARK    2  A    between atoms: C_7  and  N_8
REMARK    3  A    between atoms: N_8  and  C_9
REMARK    4  A    between atoms: N_8  and  S_29
REMARK    5  A    between atoms: C_9  and  C_10
REMARK    6  A    between atoms: N_12  and  N_13
REMARK    7  A    between atoms: C_14  and  C_15
REMARK    8  A    between atoms: C_17  and  C_18
REMARK    9  A    between atoms: N_19  and  C_20
REMARK   10  A    between atoms: C_25  and  C_26
REMARK   11  A    between atoms: C_27  and  C_28
REMARK   12  A    between atoms: S_29  and  C_30
REMARK                            x       y       z     vdW  Elec       q    Type
REMARK                         _______ _______ _______ _____ _____    ______ ____
ROOT
ATOM      1  C   UNL     1       2.444   5.575  20.298  0.00  0.00    +0.000 C 
ATOM      2  O   UNL     1       2.771   4.486  20.782  0.00  0.00    +0.000 OA
ATOM      3  N   UNL     1       1.842   6.528  21.094  0.00  0.00    +0.000 N 
ATOM      4  H   UNL     1       1.690   6.288  22.069  0.00  0.00    +0.000 HD
ENDROOT
BRANCH   3   5
ATOM      5  N   UNL     1       1.490   7.753  20.611  0.00  0.00    +0.000 NA
ATOM      6  C   UNL     1       0.863   8.542  21.418  0.00  0.00    +0.000 C 
BRANCH   6   7
ATOM      7  C   UNL     1       0.537   9.879  20.956  0.00  0.00    +0.000 A 
ATOM      8  C   UNL     1       0.821  10.442  19.700  0.00  0.00    +0.000 A 
ATOM      9  C   UNL     1       0.379  11.749  19.689  0.00  0.00    +0.000 A 
ATOM     10  C   UNL     1       0.564  12.692  18.544  0.00  0.00    +0.000 C 
ATOM     11  N   UNL     1      -0.157  12.048  20.955  0.00  0.00    +0.000 N 
ATOM     12  C   UNL     1      -0.161  10.842  21.677  0.00  0.00    +0.000 A 
ATOM     13  C   UNL     1      -0.885  10.599  22.956  0.00  0.00    +0.000 C 
BRANCH  11  14
ATOM     14  C   UNL     1      -0.666  13.334  21.385  0.00  0.00    +0.000 A 
ATOM     15  C   UNL     1       0.196  14.166  22.131  0.00  0.00    +0.000 A 
ATOM     16  C   UNL     1      -0.205  15.417  22.606  0.00  0.00    +0.000 A 
ATOM     17  C   UNL     1      -1.459  15.903  22.286  0.00  0.00    +0.000 A 
ATOM     18  C   UNL     1      -2.325  15.114  21.534  0.00  0.00    +0.000 A 
ATOM     19  C   UNL     1      -1.976  13.806  21.118  0.00  0.00    +0.000 A 
ATOM     20  C   UNL     1      -3.099  13.016  20.502  0.00  0.00    +0.000 C 
ENDBRANCH  11  14
ENDBRANCH   6   7
ENDBRANCH   3   5
BRANCH   1  21
ATOM     21  C   UNL     1       2.601   5.878  18.827  0.00  0.00    +0.000 C 
BRANCH  21  22
ATOM     22  N   UNL     1       3.677   5.218  18.070  0.00  0.00    +0.000 N 
BRANCH  22  29
ATOM     23  C   UNL     1       5.078   6.877  15.878  0.00  0.00    +0.000 C 
ATOM     24  C   UNL     1       5.707   6.412  17.159  0.00  0.00    +0.000 A 
ATOM     25  C   UNL     1       7.059   6.769  17.361  0.00  0.00    +0.000 A 
ATOM     26  C   UNL     1       7.758   6.368  18.497  0.00  0.00    +0.000 A 
ATOM     27  C   UNL     1       7.112   5.603  19.459  0.00  0.00    +0.000 A 
ATOM     28  C   UNL     1       5.774   5.240  19.277  0.00  0.00    +0.000 A 
ATOM     29  C   UNL     1       5.059   5.623  18.130  0.00  0.00    +0.000 A 
ENDBRANCH  22  29
BRANCH  22  30
ATOM     30  S   UNL     1       3.286   3.730  17.351  0.00  0.00    +0.000 S 
ATOM     31  C   UNL     1       3.770   2.570  18.606  0.00  0.00    +0.000 C 
ATOM     32  O   UNL     1       1.839   3.640  17.245  0.00  0.00    +0.000 OA
ATOM     33  O   UNL     1       4.118   3.501  16.191  0.00  0.00    +0.000 OA
ENDBRANCH  22  30
ENDBRANCH  21  22
ENDBRANCH   1  21
TORSDOF 7
ENDMDL
MODEL 5
REMARK VINA RESULT:      -8.0      0.470      1.321
REMARK  Name = 
REMARK  12 active torsions:
REMARK  status: ('A' for Active; 'I' for Inactive)
REMARK    1  A    between atoms: C_1  and  C_2
REMARK    2  A    between atoms: C_7  and  N_8
REMARK    3  A    between atoms: N_8  and  C_9
REMARK    4  A    between atoms: N_8  and  S_29
REMARK    5  A    between atoms: C_9  and  C_10
REMARK    6  A    between atoms: N_12  and  N_13
REMARK    7  A    between atoms: C_14  and  C_15
REMARK    8  A    between atoms: C_17  and  C_18
REMARK    9  A    between atoms: N_19  and  C_20
REMARK   10  A    between atoms: C_25  and  C_26
REMARK   11  A    between atoms: C_27  and  C_28
REMARK   12  A    between atoms: S_29  and  C_30
REMARK                            x       y       z     vdW  Elec       q    Type
REMARK                         _______ _______ _______ _____ _____    ______ ____
ROOT
ATOM      1  C   UNL     1       0.107   9.460  21.114  0.00  0.00    +0.000 C 
ATOM      2  O   UNL     1      -0.650  10.122  21.832  0.00  0.00    +0.000 OA
ATOM      3  N   UNL     1       0.852   8.436  21.661  0.00  0.00    +0.000 N 
ATOM      4  H   UNL     1       0.744   8.265  22.656  0.00  0.00    +0.000 HD
ENDROOT
BRANCH   3   5
ATOM      5  N   UNL     1       1.678   7.661  20.903  0.00  0.00    +0.000 NA
ATOM      6  C   UNL     1       1.479   6.386  20.937  0.00  0.00    +0.000 C 
BRANCH   6   7
ATOM      7  C   UNL     1       2.296   5.540  20.087  0.00  0.00    +0.000 A 
ATOM      8  C   UNL     1       2.427   4.142  20.145  0.00  0.00    +0.000 A 
ATOM      9  C   UNL     1       3.335   3.741  19.187  0.00  0.00    +0.000 A 
ATOM     10  C   UNL     1       3.784   2.328  18.990  0.00  0.00    +0.000 C 
ATOM     11  N   UNL     1       3.825   4.884  18.532  0.00  0.00    +0.000 N 
ATOM     12  C   UNL     1       3.077   5.970  19.019  0.00  0.00    +0.000 A 
ATOM     13  C   UNL     1       3.041   7.336  18.426  0.00  0.00    +0.000 C 
BRANCH  11  14
ATOM     14  C   UNL     1       4.849   4.910  17.507  0.00  0.00    +0.000 A 
ATOM     15  C   UNL     1       4.483   4.518  16.202  0.00  0.00    +0.000 A 
ATOM     16  C   UNL     1       5.400   4.492  15.149  0.00  0.00    +0.000 A 
ATOM     17  C   UNL     1       6.696   4.927  15.356  0.00  0.00    +0.000 A 
ATOM     18  C   UNL     1       7.082   5.339  16.628  0.00  0.00    +0.000 A 
ATOM     19  C   UNL     1       6.197   5.288  17.732  0.00  0.00    +0.000 A 
ATOM     20  C   UNL     1       6.832   5.566  19.068  0.00  0.00    +0.000 C 
ENDBRANCH  11  14
ENDBRANCH   6   7
ENDBRANCH   3   5
BRANCH   1  21
ATOM     21  C   UNL     1       0.315   9.787  19.655  0.00  0.00    +0.000 C 
BRANCH  21  22
ATOM     22  N   UNL     1      -0.203  11.058  19.123  0.00  0.00    +0.000 N 
BRANCH  22  29
ATOM     23  C   UNL     1      -1.892   9.836  16.849  0.00  0.00    +0.000 C 
ATOM     24  C   UNL     1      -2.403  10.753  17.922  0.00  0.00    +0.000 A 
ATOM     25  C   UNL     1      -3.776  11.079  17.868  0.00  0.00    +0.000 A 
ATOM     26  C   UNL     1      -4.357  11.946  18.792  0.00  0.00    +0.000 A 
ATOM     27  C   UNL     1      -3.571  12.501  19.792  0.00  0.00    +0.000 A 
ATOM     28  C   UNL     1      -2.210  12.189  19.862  0.00  0.00    +0.000 A 
ATOM     29  C   UNL     1      -1.605  11.329  18.930  0.00  0.00    +0.000 A 
ENDBRANCH  22  29
BRANCH  22  30
ATOM     30  S   UNL     1       0.904  12.343  19.038  0.00  0.00    +0.000 S 
ATOM     31  C   UNL     1       2.258  11.613  18.149  0.00  0.00    +0.000 C 
ATOM     32  O   UNL     1       0.348  13.368  18.168  0.00  0.00    +0.000 OA
ATOM     33  O   UNL     1       1.375  12.687  20.361  0.00  0.00    +0.000 OA
ENDBRANCH  22  30
ENDBRANCH  21  22
ENDBRANCH   1  21
TORSDOF 7
ENDMDL
MODEL 6
REMARK VINA RESULT:      -7.9      3.681      9.022
REMARK  Name = 
REMARK  12 active torsions:
REMARK  status: ('A' for Active; 'I' for Inactive)
REMARK    1  A    between atoms: C_1  and  C_2
REMARK    2  A    between atoms: C_7  and  N_8
REMARK    3  A    between atoms: N_8  and  C_9
REMARK    4  A    between atoms: N_8  and  S_29
REMARK    5  A    between atoms: C_9  and  C_10
REMARK    6  A    between atoms: N_12  and  N_13
REMARK    7  A    between atoms: C_14  and  C_15
REMARK    8  A    between atoms: C_17  and  C_18
REMARK    9  A    between atoms: N_19  and  C_20
REMARK   10  A    between atoms: C_25  and  C_26
REMARK   11  A    between atoms: C_27  and  C_28
REMARK   12  A    between atoms: S_29  and  C_30
REMARK                            x       y       z     vdW  Elec       q    Type
REMARK                         _______ _______ _______ _____ _____    ______ ____
ROOT
ATOM      1  C   UNL     1       4.027   7.199  17.090  0.00  0.00    +0.000 C 
ATOM      2  O   UNL     1       4.585   6.867  16.039  0.00  0.00    +0.000 OA
ATOM      3  N   UNL     1       2.871   7.951  17.046  0.00  0.00    +0.000 N 
ATOM      4  H   UNL     1       2.518   8.206  16.129  0.00  0.00    +0.000 HD
ENDROOT
BRANCH   3   5
ATOM      5  N   UNL     1       2.206   8.317  18.178  0.00  0.00    +0.000 NA
ATOM      6  C   UNL     1       1.865   9.558  18.281  0.00  0.00    +0.000 C 
BRANCH   6   7
ATOM      7  C   UNL     1       1.094   9.964  19.442  0.00  0.00    +0.000 A 
ATOM      8  C   UNL     1       0.776   9.189  20.571  0.00  0.00    +0.000 A 
ATOM      9  C   UNL     1      -0.009   9.942  21.420  0.00  0.00    +0.000 A 
ATOM     10  C   UNL     1      -0.599   9.434  22.696  0.00  0.00    +0.000 C 
ATOM     11  N   UNL     1      -0.235  11.195  20.823  0.00  0.00    +0.000 N 
ATOM     12  C   UNL     1       0.558  11.229  19.662  0.00  0.00    +0.000 A 
ATOM     13  C   UNL     1       0.865  12.443  18.855  0.00  0.00    +0.000 C 
BRANCH  11  14
ATOM     14  C   UNL     1      -1.068  12.257  21.351  0.00  0.00    +0.000 A 
ATOM     15  C   UNL     1      -0.673  12.860  22.564  0.00  0.00    +0.000 A 
ATOM     16  C   UNL     1      -1.416  13.879  23.164  0.00  0.00    +0.000 A 
ATOM     17  C   UNL     1      -2.540  14.374  22.529  0.00  0.00    +0.000 A 
ATOM     18  C   UNL     1      -2.943  13.813  21.321  0.00  0.00    +0.000 A 
ATOM     19  C   UNL     1      -2.259  12.719  20.738  0.00  0.00    +0.000 A 
ATOM     20  C   UNL     1      -2.947  12.101  19.550  0.00  0.00    +0.000 C 
ENDBRANCH  11  14
ENDBRANCH   6   7
ENDBRANCH   3   5
BRANCH   1  21
ATOM     21  C   UNL     1       4.615   6.883  18.445  0.00  0.00    +0.000 C 
BRANCH  21  22
ATOM     22  N   UNL     1       4.460   5.526  18.995  0.00  0.00    +0.000 N 
BRANCH  22  29
ATOM     23  C   UNL     1       3.195   3.678  16.872  0.00  0.00    +0.000 C 
ATOM     24  C   UNL     1       2.608   3.996  18.217  0.00  0.00    +0.000 A 
ATOM     25  C   UNL     1       1.367   3.393  18.519  0.00  0.00    +0.000 A 
ATOM     26  C   UNL     1       0.711   3.637  19.724  0.00  0.00    +0.000 A 
ATOM     27  C   UNL     1       1.290   4.490  20.653  0.00  0.00    +0.000 A 
ATOM     28  C   UNL     1       2.518   5.096  20.373  0.00  0.00    +0.000 A 
ATOM     29  C   UNL     1       3.186   4.872  19.156  0.00  0.00    +0.000 A 
ENDBRANCH  22  29
BRANCH  22  30
ATOM     30  S   UNL     1       5.881   4.609  19.144  0.00  0.00    +0.000 S 
ATOM     31  C   UNL     1       6.450   4.525  17.463  0.00  0.00    +0.000 C 
ATOM     32  O   UNL     1       6.861   5.400  19.869  0.00  0.00    +0.000 OA
ATOM     33  O   UNL     1       5.566   3.265  19.574  0.00  0.00    +0.000 OA
ENDBRANCH  22  30
ENDBRANCH  21  22
ENDBRANCH   1  21
TORSDOF 7
ENDMDL
MODEL 7
REMARK VINA RESULT:      -7.9      0.887      1.553
REMARK  Name = 
REMARK  12 active torsions:
REMARK  status: ('A' for Active; 'I' for Inactive)
REMARK    1  A    between atoms: C_1  and  C_2
REMARK    2  A    between atoms: C_7  and  N_8
REMARK    3  A    between atoms: N_8  and  C_9
REMARK    4  A    between atoms: N_8  and  S_29
REMARK    5  A    between atoms: C_9  and  C_10
REMARK    6  A    between atoms: N_12  and  N_13
REMARK    7  A    between atoms: C_14  and  C_15
REMARK    8  A    between atoms: C_17  and  C_18
REMARK    9  A    between atoms: N_19  and  C_20
REMARK   10  A    between atoms: C_25  and  C_26
REMARK   11  A    between atoms: C_27  and  C_28
REMARK   12  A    between atoms: S_29  and  C_30
REMARK                            x       y       z     vdW  Elec       q    Type
REMARK                         _______ _______ _______ _____ _____    ______ ____
ROOT
ATOM      1  C   UNL     1       0.079   9.893  21.250  0.00  0.00    +0.000 C 
ATOM      2  O   UNL     1      -0.795  10.655  21.676  0.00  0.00    +0.000 OA
ATOM      3  N   UNL     1       0.457   8.796  21.996  0.00  0.00    +0.000 N 
ATOM      4  H   UNL     1      -0.010   8.657  22.886  0.00  0.00    +0.000 HD
ENDROOT
BRANCH   3   5
ATOM      5  N   UNL     1       1.397   7.913  21.553  0.00  0.00    +0.000 NA
ATOM      6  C   UNL     1       0.968   6.786  21.090  0.00  0.00    +0.000 C 
BRANCH   6   7
ATOM      7  C   UNL     1       1.938   5.854  20.546  0.00  0.00    +0.000 A 
ATOM      8  C   UNL     1       2.137   4.513  20.919  0.00  0.00    +0.000 A 
ATOM      9  C   UNL     1       3.188   4.000  20.186  0.00  0.00    +0.000 A 
ATOM     10  C   UNL     1       3.736   2.619  20.352  0.00  0.00    +0.000 C 
ATOM     11  N   UNL     1       3.699   5.021  19.365  0.00  0.00    +0.000 N 
ATOM     12  C   UNL     1       2.833   6.119  19.514  0.00  0.00    +0.000 A 
ATOM     13  C   UNL     1       2.804   7.326  18.642  0.00  0.00    +0.000 C 
BRANCH  11  14
ATOM     14  C   UNL     1       4.850   4.919  18.491  0.00  0.00    +0.000 A 
ATOM     15  C   UNL     1       6.073   5.453  18.950  0.00  0.00    +0.000 A 
ATOM     16  C   UNL     1       7.235   5.420  18.176  0.00  0.00    +0.000 A 
ATOM     17  C   UNL     1       7.224   4.785  16.947  0.00  0.00    +0.000 A 
ATOM     18  C   UNL     1       6.038   4.231  16.477  0.00  0.00    +0.000 A 
ATOM     19  C   UNL     1       4.825   4.332  17.202  0.00  0.00    +0.000 A 
ATOM     20  C   UNL     1       3.601   3.868  16.457  0.00  0.00    +0.000 C 
ENDBRANCH  11  14
ENDBRANCH   6   7
ENDBRANCH   3   5
BRANCH   1  21
ATOM     21  C   UNL     1       0.822  10.166  19.964  0.00  0.00    +0.000 C 
BRANCH  21  22
ATOM     22  N   UNL     1       0.244  11.103  18.987  0.00  0.00    +0.000 N 
BRANCH  22  29
ATOM     23  C   UNL     1      -2.153  12.770  19.982  0.00  0.00    +0.000 C 
ATOM     24  C   UNL     1      -2.191  11.759  18.873  0.00  0.00    +0.000 A 
ATOM     25  C   UNL     1      -3.441  11.562  18.245  0.00  0.00    +0.000 A 
ATOM     26  C   UNL     1      -3.606  10.628  17.224  0.00  0.00    +0.000 A 
ATOM     27  C   UNL     1      -2.517   9.874  16.809  0.00  0.00    +0.000 A 
ATOM     28  C   UNL     1      -1.272  10.055  17.419  0.00  0.00    +0.000 A 
ATOM     29  C   UNL     1      -1.092  10.982  18.459  0.00  0.00    +0.000 A 
ENDBRANCH  22  29
BRANCH  22  30
ATOM     30  S   UNL     1       1.103  12.544  18.729  0.00  0.00    +0.000 S 
ATOM     31  C   UNL     1       1.387  13.112  20.389  0.00  0.00    +0.000 C 
ATOM     32  O   UNL     1       2.408  12.208  18.183  0.00  0.00    +0.000 OA
ATOM     33  O   UNL     1       0.263  13.516  18.066  0.00  0.00    +0.000 OA
ENDBRANCH  22  30
ENDBRANCH  21  22
ENDBRANCH   1  21
TORSDOF 7
ENDMDL
MODEL 8
REMARK VINA RESULT:      -7.9      3.774      9.424
REMARK  Name = 
REMARK  12 active torsions:
REMARK  status: ('A' for Active; 'I' for Inactive)
REMARK    1  A    between atoms: C_1  and  C_2
REMARK    2  A    between atoms: C_7  and  N_8
REMARK    3  A    between atoms: N_8  and  C_9
REMARK    4  A    between atoms: N_8  and  S_29
REMARK    5  A    between atoms: C_9  and  C_10
REMARK    6  A    between atoms: N_12  and  N_13
REMARK    7  A    between atoms: C_14  and  C_15
REMARK    8  A    between atoms: C_17  and  C_18
REMARK    9  A    between atoms: N_19  and  C_20
REMARK   10  A    between atoms: C_25  and  C_26
REMARK   11  A    between atoms: C_27  and  C_28
REMARK   12  A    between atoms: S_29  and  C_30
REMARK                            x       y       z     vdW  Elec       q    Type
REMARK                         _______ _______ _______ _____ _____    ______ ____
ROOT
ATOM      1  C   UNL     1       2.477   5.405  20.279  0.00  0.00    +0.000 C 
ATOM      2  O   UNL     1       2.734   4.294  20.755  0.00  0.00    +0.000 OA
ATOM      3  N   UNL     1       1.885   6.370  21.066  0.00  0.00    +0.000 N 
ATOM      4  H   UNL     1       1.681   6.122  22.029  0.00  0.00    +0.000 HD
ENDROOT
BRANCH   3   5
ATOM      5  N   UNL     1       1.609   7.618  20.591  0.00  0.00    +0.000 NA
ATOM      6  C   UNL     1       0.845   8.364  21.317  0.00  0.00    +0.000 C 
BRANCH   6   7
ATOM      7  C   UNL     1       0.590   9.722  20.873  0.00  0.00    +0.000 A 
ATOM      8  C   UNL     1       0.859  10.273  19.608  0.00  0.00    +0.000 A 
ATOM      9  C   UNL     1       0.504  11.606  19.619  0.00  0.00    +0.000 A 
ATOM     10  C   UNL     1       0.704  12.542  18.470  0.00  0.00    +0.000 C 
ATOM     11  N   UNL     1       0.041  11.933  20.906  0.00  0.00    +0.000 N 
ATOM     12  C   UNL     1      -0.014  10.726  21.624  0.00  0.00    +0.000 A 
ATOM     13  C   UNL     1      -0.699  10.523  22.931  0.00  0.00    +0.000 C 
BRANCH  11  14
ATOM     14  C   UNL     1      -0.364  13.247  21.361  0.00  0.00    +0.000 A 
ATOM     15  C   UNL     1      -1.746  13.518  21.445  0.00  0.00    +0.000 A 
ATOM     16  C   UNL     1      -2.237  14.759  21.856  0.00  0.00    +0.000 A 
ATOM     17  C   UNL     1      -1.357  15.744  22.265  0.00  0.00    +0.000 A 
ATOM     18  C   UNL     1       0.012  15.501  22.212  0.00  0.00    +0.000 A 
ATOM     19  C   UNL     1       0.537  14.284  21.714  0.00  0.00    +0.000 A 
ATOM     20  C   UNL     1       2.031  14.267  21.528  0.00  0.00    +0.000 C 
ENDBRANCH  11  14
ENDBRANCH   6   7
ENDBRANCH   3   5
BRANCH   1  21
ATOM     21  C   UNL     1       2.710   5.724  18.821  0.00  0.00    +0.000 C 
BRANCH  21  22
ATOM     22  N   UNL     1       3.844   5.098  18.122  0.00  0.00    +0.000 N 
BRANCH  22  29
ATOM     23  C   UNL     1       4.992   7.029  16.007  0.00  0.00    +0.000 C 
ATOM     24  C   UNL     1       5.719   6.530  17.222  0.00  0.00    +0.000 A 
ATOM     25  C   UNL     1       7.044   6.989  17.395  0.00  0.00    +0.000 A 
ATOM     26  C   UNL     1       7.828   6.570  18.468  0.00  0.00    +0.000 A 
ATOM     27  C   UNL     1       7.296   5.684  19.394  0.00  0.00    +0.000 A 
ATOM     28  C   UNL     1       5.987   5.218  19.240  0.00  0.00    +0.000 A 
ATOM     29  C   UNL     1       5.188   5.619  18.156  0.00  0.00    +0.000 A 
ENDBRANCH  22  29
BRANCH  22  30
ATOM     30  S   UNL     1       3.583   3.532  17.520  0.00  0.00    +0.000 S 
ATOM     31  C   UNL     1       4.772   3.435  16.203  0.00  0.00    +0.000 C 
ATOM     32  O   UNL     1       4.011   2.577  18.529  0.00  0.00    +0.000 OA
ATOM     33  O   UNL     1       2.265   3.434  16.935  0.00  0.00    +0.000 OA
ENDBRANCH  22  30
ENDBRANCH  21  22
ENDBRANCH   1  21
TORSDOF 7
ENDMDL
MODEL 9
REMARK VINA RESULT:      -7.8      6.721      9.707
REMARK  Name = 
REMARK  12 active torsions:
REMARK  status: ('A' for Active; 'I' for Inactive)
REMARK    1  A    between atoms: C_1  and  C_2
REMARK    2  A    between atoms: C_7  and  N_8
REMARK    3  A    between atoms: N_8  and  C_9
REMARK    4  A    between atoms: N_8  and  S_29
REMARK    5  A    between atoms: C_9  and  C_10
REMARK    6  A    between atoms: N_12  and  N_13
REMARK    7  A    between atoms: C_14  and  C_15
REMARK    8  A    between atoms: C_17  and  C_18
REMARK    9  A    between atoms: N_19  and  C_20
REMARK   10  A    between atoms: C_25  and  C_26
REMARK   11  A    between atoms: C_27  and  C_28
REMARK   12  A    between atoms: S_29  and  C_30
REMARK                            x       y       z     vdW  Elec       q    Type
REMARK                         _______ _______ _______ _____ _____    ______ ____
ROOT
ATOM      1  C   UNL     1       7.594   6.232  18.618  0.00  0.00    +0.000 C 
ATOM      2  O   UNL     1       7.812   5.040  18.863  0.00  0.00    +0.000 OA
ATOM      3  N   UNL     1       8.534   7.185  18.952  0.00  0.00    +0.000 N 
ATOM      4  H   UNL     1       9.387   6.859  19.396  0.00  0.00    +0.000 HD
ENDROOT
BRANCH   3   5
ATOM      5  N   UNL     1       8.349   8.507  18.675  0.00  0.00    +0.000 NA
ATOM      6  C   UNL     1       9.294   9.315  19.023  0.00  0.00    +0.000 C 
BRANCH   6   7
ATOM      7  C   UNL     1       9.159  10.719  18.679  0.00  0.00    +0.000 A 
ATOM      8  C   UNL     1       8.106  11.329  17.976  0.00  0.00    +0.000 A 
ATOM      9  C   UNL     1       8.390  12.670  17.825  0.00  0.00    +0.000 A 
ATOM     10  C   UNL     1       7.532  13.635  17.072  0.00  0.00    +0.000 C 
ATOM     11  N   UNL     1       9.650  12.924  18.396  0.00  0.00    +0.000 N 
ATOM     12  C   UNL     1      10.047  11.732  19.025  0.00  0.00    +0.000 A 
ATOM     13  C   UNL     1      11.172  11.592  19.992  0.00  0.00    +0.000 C 
BRANCH  11  14
ATOM     14  C   UNL     1      10.352  14.192  18.389  0.00  0.00    +0.000 A 
ATOM     15  C   UNL     1       9.873  15.213  19.236  0.00  0.00    +0.000 A 
ATOM     16  C   UNL     1      10.469  16.475  19.290  0.00  0.00    +0.000 A 
ATOM     17  C   UNL     1      11.608  16.729  18.548  0.00  0.00    +0.000 A 
ATOM     18  C   UNL     1      12.117  15.734  17.719  0.00  0.00    +0.000 A 
ATOM     19  C   UNL     1      11.479  14.478  17.578  0.00  0.00    +0.000 A 
ATOM     20  C   UNL     1      12.035  13.603  16.487  0.00  0.00    +0.000 C 
ENDBRANCH  11  14
ENDBRANCH   6   7
ENDBRANCH   3   5
BRANCH   1  21
ATOM     21  C   UNL     1       6.283   6.703  18.034  0.00  0.00    +0.000 C 
BRANCH  21  22
ATOM     22  N   UNL     1       5.524   5.800  17.155  0.00  0.00    +0.000 N 
BRANCH  22  29
ATOM     23  C   UNL     1       2.824   7.199  17.675  0.00  0.00    +0.000 C 
ATOM     24  C   UNL     1       3.076   5.722  17.769  0.00  0.00    +0.000 A 
ATOM     25  C   UNL     1       1.973   4.919  18.134  0.00  0.00    +0.000 A 
ATOM     26  C   UNL     1       2.093   3.539  18.284  0.00  0.00    +0.000 A 
ATOM     27  C   UNL     1       3.324   2.935  18.066  0.00  0.00    +0.000 A 
ATOM     28  C   UNL     1       4.427   3.714  17.704  0.00  0.00    +0.000 A 
ATOM     29  C   UNL     1       4.327   5.109  17.563  0.00  0.00    +0.000 A 
ENDBRANCH  22  29
BRANCH  22  30
ATOM     30  S   UNL     1       5.928   5.841  15.506  0.00  0.00    +0.000 S 
ATOM     31  C   UNL     1       5.248   4.309  14.916  0.00  0.00    +0.000 C 
ATOM     32  O   UNL     1       5.161   6.901  14.873  0.00  0.00    +0.000 OA
ATOM     33  O   UNL     1       7.363   5.781  15.341  0.00  0.00    +0.000 OA
ENDBRANCH  22  30
ENDBRANCH  21  22
ENDBRANCH   1  21
TORSDOF 7
ENDMDL
