MODEL 1
REMARK VINA RESULT:      -9.0      0.000      0.000
REMARK  Name = 
REMARK  4 active torsions:
REMARK  status: ('A' for Active; 'I' for Inactive)
REMARK    1  A    between atoms: C_1  and  C_2
REMARK    2  A    between atoms: C_2  and  C_3
REMARK    3  A    between atoms: C_18  and  S_19
REMARK    4  A    between atoms: S_19  and  C_22
REMARK                            x       y       z     vdW  Elec       q    Type
REMARK                         _______ _______ _______ _____ _____    ______ ____
ROOT
ATOM      1  C   UNL     1       2.542   2.654  21.496  0.00  0.00    +0.000 C 
ATOM      2  C   UNL     1       2.345   3.811  20.498  0.00  0.00    +0.000 C 
ATOM      3  C   UNL     1       3.729   4.361  20.122  0.00  0.00    +0.000 C 
ATOM      4  N   UNL     1       3.597   5.550  19.259  0.00  0.00    +0.000 N 
ATOM      5  C   UNL     1       4.524   5.673  18.184  0.00  0.00    +0.000 A 
ATOM      6  C   UNL     1       4.104   6.274  16.973  0.00  0.00    +0.000 A 
ATOM      7  C   UNL     1       4.978   6.489  15.912  0.00  0.00    +0.000 A 
ATOM      8  C   UNL     1       6.291   6.063  16.008  0.00  0.00    +0.000 A 
ATOM      9  C   UNL     1       6.707   5.417  17.168  0.00  0.00    +0.000 A 
ATOM     10  N   UNL     1       5.859   5.212  18.255  0.00  0.00    +0.000 N 
ATOM     11  O   UNL     1       6.336   4.625  19.288  0.00  0.00    +0.000 OA
ATOM     12  C   UNL     1       2.596   6.454  19.694  0.00  0.00    +0.000 A 
ATOM     13  C   UNL     1       2.523   7.766  19.202  0.00  0.00    +0.000 A 
ATOM     14  C   UNL     1       1.485   8.627  19.585  0.00  0.00    +0.000 A 
ATOM     15  C   UNL     1       0.555   8.237  20.545  0.00  0.00    +0.000 A 
ATOM     16  C   UNL     1       0.646   6.957  21.090  0.00  0.00    +0.000 A 
ATOM     17  C   UNL     1       1.635   6.067  20.650  0.00  0.00    +0.000 A 
ATOM     18  O   UNL     1       1.584   4.813  21.215  0.00  0.00    +0.000 OA
ENDROOT
BRANCH   2  19
ATOM     19  C   UNL     1       1.589   3.283  19.252  0.00  0.00    +0.000 C 
ATOM     20  F   UNL     1       2.243   2.248  18.664  0.00  0.00    +0.000 F 
ATOM     21  F   UNL     1       0.354   2.821  19.560  0.00  0.00    +0.000 F 
ATOM     22  F   UNL     1       1.427   4.216  18.286  0.00  0.00    +0.000 F 
ENDBRANCH   2  19
BRANCH  14  23
ATOM     23  S   UNL     1       1.381  10.225  18.804  0.00  0.00    +0.000 S 
ATOM     24  O   UNL     1       1.761  11.224  19.785  0.00  0.00    +0.000 OA
ATOM     25  O   UNL     1       2.088  10.107  17.545  0.00  0.00    +0.000 OA
BRANCH  23  26
ATOM     26  C   UNL     1      -0.343  10.509  18.436  0.00  0.00    +0.000 A 
ATOM     27  C   UNL     1      -1.022  11.538  19.095  0.00  0.00    +0.000 A 
ATOM     28  C   UNL     1      -2.381  11.735  18.841  0.00  0.00    +0.000 A 
ATOM     29  C   UNL     1      -3.050  10.917  17.930  0.00  0.00    +0.000 A 
ATOM     30  C   UNL     1      -2.361   9.910  17.254  0.00  0.00    +0.000 A 
ATOM     31  C   UNL     1      -1.002   9.701  17.504  0.00  0.00    +0.000 A 
ENDBRANCH  23  26
ENDBRANCH  14  23
TORSDOF 3
ENDMDL
MODEL 2
REMARK VINA RESULT:      -8.7      2.395      4.291
REMARK  Name = 
REMARK  4 active torsions:
REMARK  status: ('A' for Active; 'I' for Inactive)
REMARK    1  A    between atoms: C_1  and  C_2
REMARK    2  A    between atoms: C_2  and  C_3
REMARK    3  A    between atoms: C_18  and  S_19
REMARK    4  A    between atoms: S_19  and  C_22
REMARK                            x       y       z     vdW  Elec       q    Type
REMARK                         _______ _______ _______ _____ _____    ______ ____
ROOT
ATOM      1  C   UNL     1       5.384   5.370  15.628  0.00  0.00    +0.000 C 
ATOM      2  C   UNL     1       4.766   5.817  16.967  0.00  0.00    +0.000 C 
ATOM      3  C   UNL     1       3.626   4.849  17.317  0.00  0.00    +0.000 C 
ATOM      4  N   UNL     1       2.918   5.298  18.531  0.00  0.00    +0.000 N 
ATOM      5  C   UNL     1       2.519   4.290  19.455  0.00  0.00    +0.000 A 
ATOM      6  C   UNL     1       2.516   4.583  20.841  0.00  0.00    +0.000 A 
ATOM      7  C   UNL     1       2.070   3.668  21.789  0.00  0.00    +0.000 A 
ATOM      8  C   UNL     1       1.658   2.409  21.386  0.00  0.00    +0.000 A 
ATOM      9  C   UNL     1       1.711   2.083  20.036  0.00  0.00    +0.000 A 
ATOM     10  N   UNL     1       2.129   2.989  19.063  0.00  0.00    +0.000 N 
ATOM     11  O   UNL     1       2.124   2.605  17.841  0.00  0.00    +0.000 OA
ATOM     12  C   UNL     1       2.663   6.692  18.551  0.00  0.00    +0.000 A 
ATOM     13  C   UNL     1       1.749   7.262  19.451  0.00  0.00    +0.000 A 
ATOM     14  C   UNL     1       1.560   8.649  19.511  0.00  0.00    +0.000 A 
ATOM     15  C   UNL     1       2.199   9.494  18.606  0.00  0.00    +0.000 A 
ATOM     16  C   UNL     1       3.067   8.941  17.666  0.00  0.00    +0.000 A 
ATOM     17  C   UNL     1       3.318   7.563  17.656  0.00  0.00    +0.000 A 
ATOM     18  O   UNL     1       4.240   7.145  16.724  0.00  0.00    +0.000 OA
ENDROOT
BRANCH   2  19
ATOM     19  C   UNL     1       5.865   5.814  18.060  0.00  0.00    +0.000 C 
ATOM     20  F   UNL     1       6.704   4.754  17.931  0.00  0.00    +0.000 F 
ATOM     21  F   UNL     1       6.646   6.920  18.004  0.00  0.00    +0.000 F 
ATOM     22  F   UNL     1       5.372   5.747  19.318  0.00  0.00    +0.000 F 
ENDBRANCH   2  19
BRANCH  14  23
ATOM     23  S   UNL     1       0.492   9.303  20.778  0.00  0.00    +0.000 S 
ATOM     24  O   UNL     1      -0.262   8.197  21.338  0.00  0.00    +0.000 OA
ATOM     25  O   UNL     1       1.326  10.139  21.617  0.00  0.00    +0.000 OA
BRANCH  23  26
ATOM     26  C   UNL     1      -0.692  10.360  19.961  0.00  0.00    +0.000 A 
ATOM     27  C   UNL     1      -1.062  11.565  20.564  0.00  0.00    +0.000 A 
ATOM     28  C   UNL     1      -2.019  12.374  19.948  0.00  0.00    +0.000 A 
ATOM     29  C   UNL     1      -2.593  11.985  18.737  0.00  0.00    +0.000 A 
ATOM     30  C   UNL     1      -2.199  10.794  18.126  0.00  0.00    +0.000 A 
ATOM     31  C   UNL     1      -1.244   9.975  18.735  0.00  0.00    +0.000 A 
ENDBRANCH  23  26
ENDBRANCH  14  23
TORSDOF 3
ENDMDL
MODEL 3
REMARK VINA RESULT:      -8.6      2.382      4.355
REMARK  Name = 
REMARK  4 active torsions:
REMARK  status: ('A' for Active; 'I' for Inactive)
REMARK    1  A    between atoms: C_1  and  C_2
REMARK    2  A    between atoms: C_2  and  C_3
REMARK    3  A    between atoms: C_18  and  S_19
REMARK    4  A    between atoms: S_19  and  C_22
REMARK                            x       y       z     vdW  Elec       q    Type
REMARK                         _______ _______ _______ _____ _____    ______ ____
ROOT
ATOM      1  C   UNL     1       5.499   5.145  15.651  0.00  0.00    +0.000 C 
ATOM      2  C   UNL     1       4.868   5.639  16.966  0.00  0.00    +0.000 C 
ATOM      3  C   UNL     1       3.702   4.704  17.320  0.00  0.00    +0.000 C 
ATOM      4  N   UNL     1       2.982   5.200  18.509  0.00  0.00    +0.000 N 
ATOM      5  C   UNL     1       2.545   4.225  19.452  0.00  0.00    +0.000 A 
ATOM      6  C   UNL     1       2.525   4.554  20.829  0.00  0.00    +0.000 A 
ATOM      7  C   UNL     1       2.042   3.673  21.792  0.00  0.00    +0.000 A 
ATOM      8  C   UNL     1       1.611   2.414  21.415  0.00  0.00    +0.000 A 
ATOM      9  C   UNL     1       1.680   2.051  20.074  0.00  0.00    +0.000 A 
ATOM     10  N   UNL     1       2.134   2.923  19.086  0.00  0.00    +0.000 N 
ATOM     11  O   UNL     1       2.143   2.507  17.875  0.00  0.00    +0.000 OA
ATOM     12  C   UNL     1       2.757   6.599  18.489  0.00  0.00    +0.000 A 
ATOM     13  C   UNL     1       1.840   7.211  19.357  0.00  0.00    +0.000 A 
ATOM     14  C   UNL     1       1.679   8.603  19.378  0.00  0.00    +0.000 A 
ATOM     15  C   UNL     1       2.352   9.410  18.464  0.00  0.00    +0.000 A 
ATOM     16  C   UNL     1       3.224   8.816  17.554  0.00  0.00    +0.000 A 
ATOM     17  C   UNL     1       3.446   7.432  17.584  0.00  0.00    +0.000 A 
ATOM     18  O   UNL     1       4.375   6.971  16.679  0.00  0.00    +0.000 OA
ENDROOT
BRANCH   2  19
ATOM     19  C   UNL     1       5.947   5.641  18.078  0.00  0.00    +0.000 C 
ATOM     20  F   UNL     1       5.398   5.555  19.317  0.00  0.00    +0.000 F 
ATOM     21  F   UNL     1       6.796   4.591  17.970  0.00  0.00    +0.000 F 
ATOM     22  F   UNL     1       6.709   6.759  18.086  0.00  0.00    +0.000 F 
ENDBRANCH   2  19
BRANCH  14  23
ATOM     23  S   UNL     1       0.604   9.312  20.608  0.00  0.00    +0.000 S 
ATOM     24  O   UNL     1      -0.104   8.225  21.260  0.00  0.00    +0.000 OA
ATOM     25  O   UNL     1       1.416  10.238  21.371  0.00  0.00    +0.000 OA
BRANCH  23  26
ATOM     26  C   UNL     1      -0.628  10.263  19.733  0.00  0.00    +0.000 A 
ATOM     27  C   UNL     1      -1.042   9.842  18.466  0.00  0.00    +0.000 A 
ATOM     28  C   UNL     1      -1.973  10.606  17.760  0.00  0.00    +0.000 A 
ATOM     29  C   UNL     1      -2.492  11.774  18.321  0.00  0.00    +0.000 A 
ATOM     30  C   UNL     1      -2.096  12.174  19.598  0.00  0.00    +0.000 A 
ATOM     31  C   UNL     1      -1.161  11.418  20.311  0.00  0.00    +0.000 A 
ENDBRANCH  23  26
ENDBRANCH  14  23
TORSDOF 3
ENDMDL
MODEL 4
REMARK VINA RESULT:      -8.0      2.459      4.388
REMARK  Name = 
REMARK  4 active torsions:
REMARK  status: ('A' for Active; 'I' for Inactive)
REMARK    1  A    between atoms: C_1  and  C_2
REMARK    2  A    between atoms: C_2  and  C_3
REMARK    3  A    between atoms: C_18  and  S_19
REMARK    4  A    between atoms: S_19  and  C_22
REMARK                            x       y       z     vdW  Elec       q    Type
REMARK                         _______ _______ _______ _____ _____    ______ ____
ROOT
ATOM      1  C   UNL     1       5.234   4.939  15.523  0.00  0.00    +0.000 C 
ATOM      2  C   UNL     1       4.703   5.445  16.878  0.00  0.00    +0.000 C 
ATOM      3  C   UNL     1       3.541   4.537  17.308  0.00  0.00    +0.000 C 
ATOM      4  N   UNL     1       2.914   5.047  18.541  0.00  0.00    +0.000 N 
ATOM      5  C   UNL     1       2.517   4.081  19.511  0.00  0.00    +0.000 A 
ATOM      6  C   UNL     1       2.595   4.407  20.886  0.00  0.00    +0.000 A 
ATOM      7  C   UNL     1       2.157   3.535  21.878  0.00  0.00    +0.000 A 
ATOM      8  C   UNL     1       1.672   2.287  21.530  0.00  0.00    +0.000 A 
ATOM      9  C   UNL     1       1.643   1.926  20.187  0.00  0.00    +0.000 A 
ATOM     10  N   UNL     1       2.052   2.789  19.171  0.00  0.00    +0.000 N 
ATOM     11  O   UNL     1       1.971   2.376  17.963  0.00  0.00    +0.000 OA
ATOM     12  C   UNL     1       2.721   6.451  18.537  0.00  0.00    +0.000 A 
ATOM     13  C   UNL     1       1.878   7.083  19.464  0.00  0.00    +0.000 A 
ATOM     14  C   UNL     1       1.752   8.478  19.497  0.00  0.00    +0.000 A 
ATOM     15  C   UNL     1       2.382   9.271  18.541  0.00  0.00    +0.000 A 
ATOM     16  C   UNL     1       3.177   8.658  17.575  0.00  0.00    +0.000 A 
ATOM     17  C   UNL     1       3.368   7.270  17.590  0.00  0.00    +0.000 A 
ATOM     18  O   UNL     1       4.224   6.789  16.625  0.00  0.00    +0.000 OA
ENDROOT
BRANCH   2  19
ATOM     19  C   UNL     1       5.853   5.420  17.916  0.00  0.00    +0.000 C 
ATOM     20  F   UNL     1       5.869   6.540  18.682  0.00  0.00    +0.000 F 
ATOM     21  F   UNL     1       5.744   4.378  18.776  0.00  0.00    +0.000 F 
ATOM     22  F   UNL     1       7.082   5.335  17.356  0.00  0.00    +0.000 F 
ENDBRANCH   2  19
BRANCH  14  23
ATOM     23  S   UNL     1       0.777   9.209  20.796  0.00  0.00    +0.000 S 
ATOM     24  O   UNL     1      -0.327   8.312  21.082  0.00  0.00    +0.000 OA
ATOM     25  O   UNL     1       1.711   9.598  21.833  0.00  0.00    +0.000 OA
BRANCH  23  26
ATOM     26  C   UNL     1       0.056  10.699  20.126  0.00  0.00    +0.000 A 
ATOM     27  C   UNL     1       0.635  11.934  20.429  0.00  0.00    +0.000 A 
ATOM     28  C   UNL     1       0.049  13.104  19.941  0.00  0.00    +0.000 A 
ATOM     29  C   UNL     1      -1.098  13.037  19.149  0.00  0.00    +0.000 A 
ATOM     30  C   UNL     1      -1.655  11.799  18.827  0.00  0.00    +0.000 A 
ATOM     31  C   UNL     1      -1.079  10.622  19.313  0.00  0.00    +0.000 A 
ENDBRANCH  23  26
ENDBRANCH  14  23
TORSDOF 3
ENDMDL
MODEL 5
REMARK VINA RESULT:      -7.9      1.609      2.109
REMARK  Name = 
REMARK  4 active torsions:
REMARK  status: ('A' for Active; 'I' for Inactive)
REMARK    1  A    between atoms: C_1  and  C_2
REMARK    2  A    between atoms: C_2  and  C_3
REMARK    3  A    between atoms: C_18  and  S_19
REMARK    4  A    between atoms: S_19  and  C_22
REMARK                            x       y       z     vdW  Elec       q    Type
REMARK                         _______ _______ _______ _____ _____    ______ ____
ROOT
ATOM      1  C   UNL     1       4.383   1.709  20.928  0.00  0.00    +0.000 C 
ATOM      2  C   UNL     1       3.866   2.789  19.959  0.00  0.00    +0.000 C 
ATOM      3  C   UNL     1       5.079   3.531  19.377  0.00  0.00    +0.000 C 
ATOM      4  N   UNL     1       4.641   4.658  18.533  0.00  0.00    +0.000 N 
ATOM      5  C   UNL     1       5.371   4.887  17.331  0.00  0.00    +0.000 A 
ATOM      6  C   UNL     1       4.691   5.378  16.190  0.00  0.00    +0.000 A 
ATOM      7  C   UNL     1       5.359   5.688  15.009  0.00  0.00    +0.000 A 
ATOM      8  C   UNL     1       6.722   5.471  14.914  0.00  0.00    +0.000 A 
ATOM      9  C   UNL     1       7.397   4.933  16.005  0.00  0.00    +0.000 A 
ATOM     10  N   UNL     1       6.757   4.637  17.208  0.00  0.00    +0.000 N 
ATOM     11  O   UNL     1       7.465   4.163  18.164  0.00  0.00    +0.000 OA
ATOM     12  C   UNL     1       3.585   5.413  19.103  0.00  0.00    +0.000 A 
ATOM     13  C   UNL     1       3.237   6.682  18.615  0.00  0.00    +0.000 A 
ATOM     14  C   UNL     1       2.145   7.386  19.138  0.00  0.00    +0.000 A 
ATOM     15  C   UNL     1       1.436   6.890  20.230  0.00  0.00    +0.000 A 
ATOM     16  C   UNL     1       1.803   5.657  20.767  0.00  0.00    +0.000 A 
ATOM     17  C   UNL     1       2.844   4.915  20.194  0.00  0.00    +0.000 A 
ATOM     18  O   UNL     1       3.071   3.686  20.772  0.00  0.00    +0.000 OA
ENDROOT
BRANCH   2  19
ATOM     19  C   UNL     1       3.030   2.113  18.844  0.00  0.00    +0.000 C 
ATOM     20  F   UNL     1       3.633   0.994  18.366  0.00  0.00    +0.000 F 
ATOM     21  F   UNL     1       1.809   1.723  19.284  0.00  0.00    +0.000 F 
ATOM     22  F   UNL     1       2.821   2.909  17.770  0.00  0.00    +0.000 F 
ENDBRANCH   2  19
BRANCH  14  23
ATOM     23  S   UNL     1       1.682   8.924  18.367  0.00  0.00    +0.000 S 
ATOM     24  O   UNL     1       2.892   9.693  18.146  0.00  0.00    +0.000 OA
ATOM     25  O   UNL     1       0.806   8.576  17.267  0.00  0.00    +0.000 OA
BRANCH  23  26
ATOM     26  C   UNL     1       0.718   9.832  19.564  0.00  0.00    +0.000 A 
ATOM     27  C   UNL     1       1.123   9.842  20.902  0.00  0.00    +0.000 A 
ATOM     28  C   UNL     1       0.349  10.517  21.848  0.00  0.00    +0.000 A 
ATOM     29  C   UNL     1      -0.814  11.183  21.457  0.00  0.00    +0.000 A 
ATOM     30  C   UNL     1      -1.198  11.193  20.115  0.00  0.00    +0.000 A 
ATOM     31  C   UNL     1      -0.432  10.518  19.161  0.00  0.00    +0.000 A 
ENDBRANCH  23  26
ENDBRANCH  14  23
TORSDOF 3
ENDMDL
MODEL 6
REMARK VINA RESULT:      -7.9      1.248      1.746
REMARK  Name = 
REMARK  4 active torsions:
REMARK  status: ('A' for Active; 'I' for Inactive)
REMARK    1  A    between atoms: C_1  and  C_2
REMARK    2  A    between atoms: C_2  and  C_3
REMARK    3  A    between atoms: C_18  and  S_19
REMARK    4  A    between atoms: S_19  and  C_22
REMARK                            x       y       z     vdW  Elec       q    Type
REMARK                         _______ _______ _______ _____ _____    ______ ____
ROOT
ATOM      1  C   UNL     1       3.603   2.117  21.220  0.00  0.00    +0.000 C 
ATOM      2  C   UNL     1       3.235   3.201  20.189  0.00  0.00    +0.000 C 
ATOM      3  C   UNL     1       4.538   3.821  19.659  0.00  0.00    +0.000 C 
ATOM      4  N   UNL     1       4.245   4.949  18.756  0.00  0.00    +0.000 N 
ATOM      5  C   UNL     1       5.061   5.075  17.594  0.00  0.00    +0.000 A 
ATOM      6  C   UNL     1       4.492   5.579  16.400  0.00  0.00    +0.000 A 
ATOM      7  C   UNL     1       5.251   5.792  15.253  0.00  0.00    +0.000 A 
ATOM      8  C   UNL     1       6.594   5.461  15.248  0.00  0.00    +0.000 A 
ATOM      9  C   UNL     1       7.157   4.909  16.393  0.00  0.00    +0.000 A 
ATOM     10  N   UNL     1       6.426   4.708  17.563  0.00  0.00    +0.000 N 
ATOM     11  O   UNL     1       7.035   4.213  18.575  0.00  0.00    +0.000 OA
ATOM     12  C   UNL     1       3.225   5.807  19.238  0.00  0.00    +0.000 A 
ATOM     13  C   UNL     1       3.014   7.083  18.691  0.00  0.00    +0.000 A 
ATOM     14  C   UNL     1       1.956   7.891  19.126  0.00  0.00    +0.000 A 
ATOM     15  C   UNL     1       1.146   7.493  20.187  0.00  0.00    +0.000 A 
ATOM     16  C   UNL     1       1.376   6.255  20.783  0.00  0.00    +0.000 A 
ATOM     17  C   UNL     1       2.383   5.410  20.296  0.00  0.00    +0.000 A 
ATOM     18  O   UNL     1       2.472   4.188  20.924  0.00  0.00    +0.000 OA
ENDROOT
BRANCH   2  19
ATOM     19  C   UNL     1       2.412   2.557  19.046  0.00  0.00    +0.000 C 
ATOM     20  F   UNL     1       3.199   2.173  18.008  0.00  0.00    +0.000 F 
ATOM     21  F   UNL     1       1.757   1.442  19.452  0.00  0.00    +0.000 F 
ATOM     22  F   UNL     1       1.481   3.386  18.519  0.00  0.00    +0.000 F 
ENDBRANCH   2  19
BRANCH  14  23
ATOM     23  S   UNL     1       1.668   9.433  18.281  0.00  0.00    +0.000 S 
ATOM     24  O   UNL     1       2.928  10.151  18.225  0.00  0.00    +0.000 OA
ATOM     25  O   UNL     1       0.941   9.103  17.072  0.00  0.00    +0.000 OA
BRANCH  23  26
ATOM     26  C   UNL     1       0.584  10.398  19.322  0.00  0.00    +0.000 A 
ATOM     27  C   UNL     1      -0.748  10.577  18.940  0.00  0.00    +0.000 A 
ATOM     28  C   UNL     1      -1.588  11.366  19.729  0.00  0.00    +0.000 A 
ATOM     29  C   UNL     1      -1.101  11.961  20.894  0.00  0.00    +0.000 A 
ATOM     30  C   UNL     1       0.223  11.754  21.286  0.00  0.00    +0.000 A 
ATOM     31  C   UNL     1       1.072  10.970  20.501  0.00  0.00    +0.000 A 
ENDBRANCH  23  26
ENDBRANCH  14  23
TORSDOF 3
ENDMDL
MODEL 7
REMARK VINA RESULT:      -7.7      5.393      9.873
REMARK  Name = 
REMARK  4 active torsions:
REMARK  status: ('A' for Active; 'I' for Inactive)
REMARK    1  A    between atoms: C_1  and  C_2
REMARK    2  A    between atoms: C_2  and  C_3
REMARK    3  A    between atoms: C_18  and  S_19
REMARK    4  A    between atoms: S_19  and  C_22
REMARK                            x       y       z     vdW  Elec       q    Type
REMARK                         _______ _______ _______ _____ _____    ______ ____
ROOT
ATOM      1  C   UNL     1      -6.975  12.361  17.370  0.00  0.00    +0.000 C 
ATOM      2  C   UNL     1      -5.830  11.936  18.309  0.00  0.00    +0.000 C 
ATOM      3  C   UNL     1      -5.516  13.112  19.246  0.00  0.00    +0.000 C 
ATOM      4  N   UNL     1      -4.345  12.806  20.089  0.00  0.00    +0.000 N 
ATOM      5  C   UNL     1      -4.399  13.230  21.448  0.00  0.00    +0.000 A 
ATOM      6  C   UNL     1      -3.773  12.443  22.445  0.00  0.00    +0.000 A 
ATOM      7  C   UNL     1      -3.729  12.837  23.778  0.00  0.00    +0.000 A 
ATOM      8  C   UNL     1      -4.353  14.009  24.168  0.00  0.00    +0.000 A 
ATOM      9  C   UNL     1      -5.025  14.765  23.213  0.00  0.00    +0.000 A 
ATOM     10  N   UNL     1      -5.063  14.406  21.867  0.00  0.00    +0.000 N 
ATOM     11  O   UNL     1      -5.689  15.175  21.057  0.00  0.00    +0.000 OA
ATOM     12  C   UNL     1      -3.283  12.195  19.377  0.00  0.00    +0.000 A 
ATOM     13  C   UNL     1      -1.989  12.105  19.915  0.00  0.00    +0.000 A 
ATOM     14  C   UNL     1      -0.966  11.434  19.233  0.00  0.00    +0.000 A 
ATOM     15  C   UNL     1      -1.177  10.926  17.954  0.00  0.00    +0.000 A 
ATOM     16  C   UNL     1      -2.440  11.056  17.378  0.00  0.00    +0.000 A 
ATOM     17  C   UNL     1      -3.486  11.656  18.091  0.00  0.00    +0.000 A 
ATOM     18  O   UNL     1      -4.700  11.669  17.442  0.00  0.00    +0.000 OA
ENDROOT
BRANCH   2  19
ATOM     19  C   UNL     1      -6.266  10.681  19.106  0.00  0.00    +0.000 C 
ATOM     20  F   UNL     1      -7.473  10.215  18.697  0.00  0.00    +0.000 F 
ATOM     21  F   UNL     1      -5.396   9.652  18.957  0.00  0.00    +0.000 F 
ATOM     22  F   UNL     1      -6.384  10.902  20.436  0.00  0.00    +0.000 F 
ENDBRANCH   2  19
BRANCH  14  23
ATOM     23  S   UNL     1       0.607  11.240  20.048  0.00  0.00    +0.000 S 
ATOM     24  O   UNL     1       1.494  12.277  19.555  0.00  0.00    +0.000 OA
ATOM     25  O   UNL     1       0.317  11.114  21.462  0.00  0.00    +0.000 OA
BRANCH  23  26
ATOM     26  C   UNL     1       1.288   9.686  19.492  0.00  0.00    +0.000 A 
ATOM     27  C   UNL     1       1.343   8.607  20.378  0.00  0.00    +0.000 A 
ATOM     28  C   UNL     1       1.914   7.404  19.960  0.00  0.00    +0.000 A 
ATOM     29  C   UNL     1       2.416   7.279  18.663  0.00  0.00    +0.000 A 
ATOM     30  C   UNL     1       2.333   8.350  17.774  0.00  0.00    +0.000 A 
ATOM     31  C   UNL     1       1.767   9.561  18.184  0.00  0.00    +0.000 A 
ENDBRANCH  23  26
ENDBRANCH  14  23
TORSDOF 3
ENDMDL
MODEL 8
REMARK VINA RESULT:      -7.6      5.385      9.869
REMARK  Name = 
REMARK  4 active torsions:
REMARK  status: ('A' for Active; 'I' for Inactive)
REMARK    1  A    between atoms: C_1  and  C_2
REMARK    2  A    between atoms: C_2  and  C_3
REMARK    3  A    between atoms: C_18  and  S_19
REMARK    4  A    between atoms: S_19  and  C_22
REMARK                            x       y       z     vdW  Elec       q    Type
REMARK                         _______ _______ _______ _____ _____    ______ ____
ROOT
ATOM      1  C   UNL     1      -6.714  12.534  17.185  0.00  0.00    +0.000 C 
ATOM      2  C   UNL     1      -5.667  12.043  18.203  0.00  0.00    +0.000 C 
ATOM      3  C   UNL     1      -5.317  13.215  19.134  0.00  0.00    +0.000 C 
ATOM      4  N   UNL     1      -4.229  12.838  20.055  0.00  0.00    +0.000 N 
ATOM      5  C   UNL     1      -4.332  13.299  21.399  0.00  0.00    +0.000 A 
ATOM      6  C   UNL     1      -3.833  12.490  22.449  0.00  0.00    +0.000 A 
ATOM      7  C   UNL     1      -3.839  12.914  23.774  0.00  0.00    +0.000 A 
ATOM      8  C   UNL     1      -4.389  14.141  24.100  0.00  0.00    +0.000 A 
ATOM      9  C   UNL     1      -4.938  14.923  23.090  0.00  0.00    +0.000 A 
ATOM     10  N   UNL     1      -4.922  14.534  21.751  0.00  0.00    +0.000 N 
ATOM     11  O   UNL     1      -5.433  15.330  20.888  0.00  0.00    +0.000 OA
ATOM     12  C   UNL     1      -3.178  12.126  19.424  0.00  0.00    +0.000 A 
ATOM     13  C   UNL     1      -1.931  11.947  20.044  0.00  0.00    +0.000 A 
ATOM     14  C   UNL     1      -0.925  11.180  19.442  0.00  0.00    +0.000 A 
ATOM     15  C   UNL     1      -1.099  10.657  18.163  0.00  0.00    +0.000 A 
ATOM     16  C   UNL     1      -2.309  10.872  17.505  0.00  0.00    +0.000 A 
ATOM     17  C   UNL     1      -3.345  11.572  18.138  0.00  0.00    +0.000 A 
ATOM     18  O   UNL     1      -4.512  11.666  17.415  0.00  0.00    +0.000 OA
ENDROOT
BRANCH   2  19
ATOM     19  C   UNL     1      -6.251  10.848  18.997  0.00  0.00    +0.000 C 
ATOM     20  F   UNL     1      -5.471   9.741  18.892  0.00  0.00    +0.000 F 
ATOM     21  F   UNL     1      -6.352  11.113  20.322  0.00  0.00    +0.000 F 
ATOM     22  F   UNL     1      -7.483  10.475  18.578  0.00  0.00    +0.000 F 
ENDBRANCH   2  19
BRANCH  14  23
ATOM     23  S   UNL     1       0.573  10.881  20.358  0.00  0.00    +0.000 S 
ATOM     24  O   UNL     1       1.460  12.008  20.139  0.00  0.00    +0.000 OA
ATOM     25  O   UNL     1       0.162  10.504  21.695  0.00  0.00    +0.000 OA
BRANCH  23  26
ATOM     26  C   UNL     1       1.362   9.465  19.611  0.00  0.00    +0.000 A 
ATOM     27  C   UNL     1       1.800   9.546  18.287  0.00  0.00    +0.000 A 
ATOM     28  C   UNL     1       2.379   8.427  17.686  0.00  0.00    +0.000 A 
ATOM     29  C   UNL     1       2.527   7.241  18.407  0.00  0.00    +0.000 A 
ATOM     30  C   UNL     1       2.113   7.174  19.738  0.00  0.00    +0.000 A 
ATOM     31  C   UNL     1       1.529   8.288  20.348  0.00  0.00    +0.000 A 
ENDBRANCH  23  26
ENDBRANCH  14  23
TORSDOF 3
ENDMDL
MODEL 9
REMARK VINA RESULT:      -7.6      1.033      1.475
REMARK  Name = 
REMARK  4 active torsions:
REMARK  status: ('A' for Active; 'I' for Inactive)
REMARK    1  A    between atoms: C_1  and  C_2
REMARK    2  A    between atoms: C_2  and  C_3
REMARK    3  A    between atoms: C_18  and  S_19
REMARK    4  A    between atoms: S_19  and  C_22
REMARK                            x       y       z     vdW  Elec       q    Type
REMARK                         _______ _______ _______ _____ _____    ______ ____
ROOT
ATOM      1  C   UNL     1       3.009   2.410  21.508  0.00  0.00    +0.000 C 
ATOM      2  C   UNL     1       2.728   3.498  20.453  0.00  0.00    +0.000 C 
ATOM      3  C   UNL     1       4.073   4.082  19.997  0.00  0.00    +0.000 C 
ATOM      4  N   UNL     1       3.861   5.213  19.074  0.00  0.00    +0.000 N 
ATOM      5  C   UNL     1       4.744   5.312  17.961  0.00  0.00    +0.000 A 
ATOM      6  C   UNL     1       4.257   5.825  16.734  0.00  0.00    +0.000 A 
ATOM      7  C   UNL     1       5.084   6.014  15.631  0.00  0.00    +0.000 A 
ATOM      8  C   UNL     1       6.417   5.650  15.704  0.00  0.00    +0.000 A 
ATOM      9  C   UNL     1       6.900   5.089  16.881  0.00  0.00    +0.000 A 
ATOM     10  N   UNL     1       6.099   4.912  18.009  0.00  0.00    +0.000 N 
ATOM     11  O   UNL     1       6.637   4.407  19.055  0.00  0.00    +0.000 OA
ATOM     12  C   UNL     1       2.837   6.098  19.494  0.00  0.00    +0.000 A 
ATOM     13  C   UNL     1       2.689   7.376  18.932  0.00  0.00    +0.000 A 
ATOM     14  C   UNL     1       1.629   8.213  19.303  0.00  0.00    +0.000 A 
ATOM     15  C   UNL     1       0.750   7.840  20.318  0.00  0.00    +0.000 A 
ATOM     16  C   UNL     1       0.914   6.599  20.930  0.00  0.00    +0.000 A 
ATOM     17  C   UNL     1       1.926   5.727  20.505  0.00  0.00    +0.000 A 
ATOM     18  O   UNL     1       1.949   4.507  21.141  0.00  0.00    +0.000 OA
ENDROOT
BRANCH   2  19
ATOM     19  C   UNL     1       1.954   2.868  19.267  0.00  0.00    +0.000 C 
ATOM     20  F   UNL     1       2.238   1.548  19.122  0.00  0.00    +0.000 F 
ATOM     21  F   UNL     1       0.612   2.948  19.431  0.00  0.00    +0.000 F 
ATOM     22  F   UNL     1       2.237   3.442  18.076  0.00  0.00    +0.000 F 
ENDBRANCH   2  19
BRANCH  14  23
ATOM     23  S   UNL     1       1.428   9.757  18.439  0.00  0.00    +0.000 S 
ATOM     24  O   UNL     1       2.730  10.391  18.352  0.00  0.00    +0.000 OA
ATOM     25  O   UNL     1       0.662   9.457  17.245  0.00  0.00    +0.000 OA
BRANCH  23  26
ATOM     26  C   UNL     1       0.425  10.806  19.479  0.00  0.00    +0.000 A 
ATOM     27  C   UNL     1       1.017  11.461  20.562  0.00  0.00    +0.000 A 
ATOM     28  C   UNL     1       0.227  12.248  21.403  0.00  0.00    +0.000 A 
ATOM     29  C   UNL     1      -1.140  12.385  21.156  0.00  0.00    +0.000 A 
ATOM     30  C   UNL     1      -1.720  11.751  20.056  0.00  0.00    +0.000 A 
ATOM     31  C   UNL     1      -0.939  10.958  19.211  0.00  0.00    +0.000 A 
ENDBRANCH  23  26
ENDBRANCH  14  23
TORSDOF 3
ENDMDL
