MODEL 1
REMARK VINA RESULT:      -7.7      0.000      0.000
REMARK  Name = 
REMARK  9 active torsions:
REMARK  status: ('A' for Active; 'I' for Inactive)
REMARK    1  A    between atoms: C_1  and  C_2
REMARK    2  A    between atoms: C_2  and  N_3
REMARK    3  A    between atoms: N_6  and  C_7
REMARK    4  A    between atoms: C_7  and  C_8
REMARK    5  A    between atoms: C_8  and  C_9
REMARK    6  A    between atoms: C_9  and  N_10
REMARK    7  A    between atoms: C_11  and  C_13
REMARK    8  A    between atoms: C_13  and  N_14
REMARK    9  A    between atoms: C_15  and  C_16
REMARK                            x       y       z     vdW  Elec       q    Type
REMARK                         _______ _______ _______ _____ _____    ______ ____
ROOT
ATOM      1  C   UNL     1       5.410   6.925  16.843  0.00  0.00    +0.000 C 
ENDROOT
BRANCH   1   2
ATOM      2  N   UNL     1       4.877   5.580  16.974  0.00  0.00    +0.000 N 
ATOM      3  C   UNL     1       5.111   4.496  16.140  0.00  0.00    +0.000 A 
ATOM      4  C   UNL     1       4.359   3.447  16.652  0.00  0.00    +0.000 A 
ATOM      5  C   UNL     1       3.616   3.902  17.769  0.00  0.00    +0.000 A 
ATOM      6  C   UNL     1       2.668   3.296  18.618  0.00  0.00    +0.000 A 
ATOM      7  C   UNL     1       2.081   4.053  19.633  0.00  0.00    +0.000 A 
ATOM      8 CL   UNL     1       0.901   3.332  20.659  0.00  0.00    +0.000 Cl
ATOM      9  C   UNL     1       2.432   5.384  19.827  0.00  0.00    +0.000 A 
ATOM     10  C   UNL     1       3.389   5.993  19.010  0.00  0.00    +0.000 A 
ATOM     11  C   UNL     1       3.960   5.238  17.967  0.00  0.00    +0.000 A 
BRANCH   3  12
ATOM     12  C   UNL     1       5.916   4.474  14.935  0.00  0.00    +0.000 A 
ATOM     13  C   UNL     1       7.170   5.003  14.686  0.00  0.00    +0.000 A 
ATOM     14  C   UNL     1       7.602   4.823  13.336  0.00  0.00    +0.000 A 
ATOM     15  C   UNL     1       6.699   4.096  12.602  0.00  0.00    +0.000 A 
ATOM     16  S   UNL     1       5.330   3.665  13.523  0.00  0.00    +0.000 S 
ENDBRANCH   3  12
ENDBRANCH   1   2
BRANCH   1  18
ATOM     17  N   UNL     1       7.281   8.346  17.450  0.00  0.00    +0.000 N 
ATOM     18  C   UNL     1       6.714   7.095  17.587  0.00  0.00    +0.000 C 
ATOM     19  O   UNL     1       7.206   6.207  18.277  0.00  0.00    +0.000 OA
ATOM     20  H   UNL     1       6.840   9.040  16.865  0.00  0.00    +0.000 HD
BRANCH  17  21
ATOM     21  C   UNL     1       8.517   8.718  18.100  0.00  0.00    +0.000 C 
BRANCH  21  22
ATOM     22  C   UNL     1       8.690  10.234  18.145  0.00  0.00    +0.000 C 
BRANCH  22  23
ATOM     23  C   UNL     1       9.488  10.688  19.377  0.00  0.00    +0.000 C 
BRANCH  23  27
ATOM     24  N   UNL     1      10.753  14.225  19.122  0.00  0.00    +0.000 NA
ATOM     25  C   UNL     1      10.175  13.433  18.010  0.00  0.00    +0.000 C 
ATOM     26  C   UNL     1      10.795  12.018  17.828  0.00  0.00    +0.000 C 
ATOM     27  N   UNL     1      10.839  11.189  19.054  0.00  0.00    +0.000 NA
ATOM     28  C   UNL     1      11.437  12.001  20.136  0.00  0.00    +0.000 C 
ATOM     29  C   UNL     1      10.773  13.382  20.335  0.00  0.00    +0.000 C 
BRANCH  24  31
ATOM     30  C   UNL     1      12.046  15.712  17.555  0.00  0.00    +0.000 C 
ATOM     31  C   UNL     1      12.073  14.751  18.740  0.00  0.00    +0.000 C 
ENDBRANCH  24  31
ENDBRANCH  23  27
ENDBRANCH  22  23
ENDBRANCH  21  22
ENDBRANCH  17  21
ENDBRANCH   1  18
TORSDOF 8
ENDMDL
MODEL 2
REMARK VINA RESULT:      -7.5      2.594      3.955
REMARK  Name = 
REMARK  9 active torsions:
REMARK  status: ('A' for Active; 'I' for Inactive)
REMARK    1  A    between atoms: C_1  and  C_2
REMARK    2  A    between atoms: C_2  and  N_3
REMARK    3  A    between atoms: N_6  and  C_7
REMARK    4  A    between atoms: C_7  and  C_8
REMARK    5  A    between atoms: C_8  and  C_9
REMARK    6  A    between atoms: C_9  and  N_10
REMARK    7  A    between atoms: C_11  and  C_13
REMARK    8  A    between atoms: C_13  and  N_14
REMARK    9  A    between atoms: C_15  and  C_16
REMARK                            x       y       z     vdW  Elec       q    Type
REMARK                         _______ _______ _______ _____ _____    ______ ____
ROOT
ATOM      1  C   UNL     1       4.468   6.049  17.035  0.00  0.00    +0.000 C 
ENDROOT
BRANCH   1   2
ATOM      2  N   UNL     1       3.529   6.252  18.124  0.00  0.00    +0.000 N 
ATOM      3  C   UNL     1       3.081   5.310  19.038  0.00  0.00    +0.000 A 
ATOM      4  C   UNL     1       2.171   5.967  19.856  0.00  0.00    +0.000 A 
ATOM      5  C   UNL     1       2.015   7.302  19.408  0.00  0.00    +0.000 A 
ATOM      6  C   UNL     1       1.199   8.376  19.817  0.00  0.00    +0.000 A 
ATOM      7  C   UNL     1       1.266   9.584  19.123  0.00  0.00    +0.000 A 
ATOM      8 CL   UNL     1       0.254  10.895  19.596  0.00  0.00    +0.000 Cl
ATOM      9  C   UNL     1       2.134   9.747  18.050  0.00  0.00    +0.000 A 
ATOM     10  C   UNL     1       2.969   8.700  17.647  0.00  0.00    +0.000 A 
ATOM     11  C   UNL     1       2.882   7.471  18.329  0.00  0.00    +0.000 A 
BRANCH   3  12
ATOM     12  C   UNL     1       3.429   3.903  19.090  0.00  0.00    +0.000 A 
ATOM     13  C   UNL     1       4.304   3.228  19.922  0.00  0.00    +0.000 A 
ATOM     14  C   UNL     1       4.419   1.838  19.613  0.00  0.00    +0.000 A 
ATOM     15  C   UNL     1       3.573   1.467  18.598  0.00  0.00    +0.000 A 
ATOM     16  S   UNL     1       2.676   2.789  18.002  0.00  0.00    +0.000 S 
ENDBRANCH   3  12
ENDBRANCH   1   2
BRANCH   1  18
ATOM     17  N   UNL     1       6.441   7.454  17.193  0.00  0.00    +0.000 N 
ATOM     18  C   UNL     1       5.902   6.217  17.483  0.00  0.00    +0.000 C 
ATOM     19  O   UNL     1       6.518   5.339  18.080  0.00  0.00    +0.000 OA
ATOM     20  H   UNL     1       5.894   8.140  16.693  0.00  0.00    +0.000 HD
BRANCH  17  21
ATOM     21  C   UNL     1       7.790   7.822  17.557  0.00  0.00    +0.000 C 
BRANCH  21  22
ATOM     22  C   UNL     1       7.935   9.334  17.705  0.00  0.00    +0.000 C 
BRANCH  22  23
ATOM     23  C   UNL     1       9.019   9.712  18.726  0.00  0.00    +0.000 C 
BRANCH  23  27
ATOM     24  N   UNL     1      11.640  12.412  18.577  0.00  0.00    +0.000 NA
ATOM     25  C   UNL     1      11.433  11.471  19.703  0.00  0.00    +0.000 C 
ATOM     26  C   UNL     1       9.967  11.377  20.212  0.00  0.00    +0.000 C 
ATOM     27  N   UNL     1       8.953  11.121  19.163  0.00  0.00    +0.000 NA
ATOM     28  C   UNL     1       9.175  12.087  18.066  0.00  0.00    +0.000 C 
ATOM     29  C   UNL     1      10.626  12.129  17.539  0.00  0.00    +0.000 C 
BRANCH  24  31
ATOM     30  C   UNL     1      11.345  14.840  17.982  0.00  0.00    +0.000 C 
ATOM     31  C   UNL     1      11.622  13.800  19.063  0.00  0.00    +0.000 C 
ENDBRANCH  24  31
ENDBRANCH  23  27
ENDBRANCH  22  23
ENDBRANCH  21  22
ENDBRANCH  17  21
ENDBRANCH   1  18
TORSDOF 8
ENDMDL
MODEL 3
REMARK VINA RESULT:      -7.4      6.076      8.191
REMARK  Name = 
REMARK  9 active torsions:
REMARK  status: ('A' for Active; 'I' for Inactive)
REMARK    1  A    between atoms: C_1  and  C_2
REMARK    2  A    between atoms: C_2  and  N_3
REMARK    3  A    between atoms: N_6  and  C_7
REMARK    4  A    between atoms: C_7  and  C_8
REMARK    5  A    between atoms: C_8  and  C_9
REMARK    6  A    between atoms: C_9  and  N_10
REMARK    7  A    between atoms: C_11  and  C_13
REMARK    8  A    between atoms: C_13  and  N_14
REMARK    9  A    between atoms: C_15  and  C_16
REMARK                            x       y       z     vdW  Elec       q    Type
REMARK                         _______ _______ _______ _____ _____    ______ ____
ROOT
ATOM      1  C   UNL     1       4.142   6.181  19.192  0.00  0.00    +0.000 C 
ENDROOT
BRANCH   1   2
ATOM      2  N   UNL     1       4.110   5.056  18.273  0.00  0.00    +0.000 N 
ATOM      3  C   UNL     1       3.517   3.819  18.476  0.00  0.00    +0.000 A 
ATOM      4  C   UNL     1       3.783   3.073  17.336  0.00  0.00    +0.000 A 
ATOM      5  C   UNL     1       4.591   3.832  16.454  0.00  0.00    +0.000 A 
ATOM      6  C   UNL     1       5.192   3.560  15.209  0.00  0.00    +0.000 A 
ATOM      7  C   UNL     1       5.976   4.542  14.603  0.00  0.00    +0.000 A 
ATOM      8 CL   UNL     1       6.738   4.211  13.095  0.00  0.00    +0.000 Cl
ATOM      9  C   UNL     1       6.155   5.784  15.200  0.00  0.00    +0.000 A 
ATOM     10  C   UNL     1       5.546   6.079  16.423  0.00  0.00    +0.000 A 
ATOM     11  C   UNL     1       4.777   5.079  17.049  0.00  0.00    +0.000 A 
BRANCH   3  12
ATOM     12  C   UNL     1       2.823   3.363  19.665  0.00  0.00    +0.000 A 
ATOM     13  C   UNL     1       3.315   2.794  20.826  0.00  0.00    +0.000 A 
ATOM     14  C   UNL     1       2.292   2.421  21.751  0.00  0.00    +0.000 A 
ATOM     15  C   UNL     1       1.044   2.781  21.307  0.00  0.00    +0.000 A 
ATOM     16  S   UNL     1       1.105   3.529  19.776  0.00  0.00    +0.000 S 
ENDBRANCH   3  12
ENDBRANCH   1   2
BRANCH   1  18
ATOM     17  N   UNL     1       2.315   7.030  20.545  0.00  0.00    +0.000 N 
ATOM     18  C   UNL     1       2.812   6.894  19.265  0.00  0.00    +0.000 C 
ATOM     19  O   UNL     1       2.243   7.340  18.273  0.00  0.00    +0.000 OA
ATOM     20  H   UNL     1       2.819   6.639  21.328  0.00  0.00    +0.000 HD
BRANCH  17  21
ATOM     21  C   UNL     1       1.068   7.701  20.832  0.00  0.00    +0.000 C 
BRANCH  21  22
ATOM     22  C   UNL     1       1.275   8.889  21.768  0.00  0.00    +0.000 C 
BRANCH  22  23
ATOM     23  C   UNL     1       0.010   9.750  21.897  0.00  0.00    +0.000 C 
BRANCH  23  27
ATOM     24  N   UNL     1      -1.191  12.687  19.871  0.00  0.00    +0.000 NA
ATOM     25  C   UNL     1       0.043  11.908  19.613  0.00  0.00    +0.000 C 
ATOM     26  C   UNL     1       0.964  11.719  20.852  0.00  0.00    +0.000 C 
ATOM     27  N   UNL     1       0.289  11.190  22.061  0.00  0.00    +0.000 NA
ATOM     28  C   UNL     1      -0.925  12.000  22.300  0.00  0.00    +0.000 C 
ATOM     29  C   UNL     1      -1.852  12.133  21.071  0.00  0.00    +0.000 C 
BRANCH  24  31
ATOM     30  C   UNL     1      -0.117  14.682  18.774  0.00  0.00    +0.000 C 
ATOM     31  C   UNL     1      -0.877  14.121  19.972  0.00  0.00    +0.000 C 
ENDBRANCH  24  31
ENDBRANCH  23  27
ENDBRANCH  22  23
ENDBRANCH  21  22
ENDBRANCH  17  21
ENDBRANCH   1  18
TORSDOF 8
ENDMDL
MODEL 4
REMARK VINA RESULT:      -7.4      1.126      1.306
REMARK  Name = 
REMARK  9 active torsions:
REMARK  status: ('A' for Active; 'I' for Inactive)
REMARK    1  A    between atoms: C_1  and  C_2
REMARK    2  A    between atoms: C_2  and  N_3
REMARK    3  A    between atoms: N_6  and  C_7
REMARK    4  A    between atoms: C_7  and  C_8
REMARK    5  A    between atoms: C_8  and  C_9
REMARK    6  A    between atoms: C_9  and  N_10
REMARK    7  A    between atoms: C_11  and  C_13
REMARK    8  A    between atoms: C_13  and  N_14
REMARK    9  A    between atoms: C_15  and  C_16
REMARK                            x       y       z     vdW  Elec       q    Type
REMARK                         _______ _______ _______ _____ _____    ______ ____
ROOT
ATOM      1  C   UNL     1       4.831   6.578  17.379  0.00  0.00    +0.000 C 
ENDROOT
BRANCH   1   2
ATOM      2  N   UNL     1       4.458   5.186  17.560  0.00  0.00    +0.000 N 
ATOM      3  C   UNL     1       4.729   4.123  16.710  0.00  0.00    +0.000 A 
ATOM      4  C   UNL     1       4.142   3.007  17.290  0.00  0.00    +0.000 A 
ATOM      5  C   UNL     1       3.458   3.394  18.469  0.00  0.00    +0.000 A 
ATOM      6  C   UNL     1       2.660   2.701  19.402  0.00  0.00    +0.000 A 
ATOM      7  C   UNL     1       2.091   3.403  20.465  0.00  0.00    +0.000 A 
ATOM      8 CL   UNL     1       1.091   2.574  21.595  0.00  0.00    +0.000 Cl
ATOM      9  C   UNL     1       2.314   4.766  20.624  0.00  0.00    +0.000 A 
ATOM     10  C   UNL     1       3.124   5.463  19.722  0.00  0.00    +0.000 A 
ATOM     11  C   UNL     1       3.676   4.761  18.633  0.00  0.00    +0.000 A 
BRANCH   3  12
ATOM     12  C   UNL     1       5.419   4.173  15.436  0.00  0.00    +0.000 A 
ATOM     13  C   UNL     1       4.958   3.919  14.157  0.00  0.00    +0.000 A 
ATOM     14  C   UNL     1       5.975   4.018  13.159  0.00  0.00    +0.000 A 
ATOM     15  C   UNL     1       7.176   4.417  13.689  0.00  0.00    +0.000 A 
ATOM     16  S   UNL     1       7.084   4.637  15.378  0.00  0.00    +0.000 S 
ENDBRANCH   3  12
ENDBRANCH   1   2
BRANCH   1  18
ATOM     17  N   UNL     1       6.836   7.937  17.219  0.00  0.00    +0.000 N 
ATOM     18  C   UNL     1       6.246   6.852  17.834  0.00  0.00    +0.000 C 
ATOM     19  O   UNL     1       6.806   6.184  18.698  0.00  0.00    +0.000 OA
ATOM     20  H   UNL     1       6.335   8.450  16.509  0.00  0.00    +0.000 HD
BRANCH  17  21
ATOM     21  C   UNL     1       8.176   8.378  17.530  0.00  0.00    +0.000 C 
BRANCH  21  22
ATOM     22  C   UNL     1       8.211   9.867  17.864  0.00  0.00    +0.000 C 
BRANCH  22  23
ATOM     23  C   UNL     1       9.180  10.178  19.015  0.00  0.00    +0.000 C 
BRANCH  23  27
ATOM     24  N   UNL     1       9.552  13.842  19.802  0.00  0.00    +0.000 NA
ATOM     25  C   UNL     1       8.872  13.279  18.611  0.00  0.00    +0.000 C 
ATOM     26  C   UNL     1       9.702  12.225  17.825  0.00  0.00    +0.000 C 
ATOM     27  N   UNL     1      10.253  11.121  18.645  0.00  0.00    +0.000 NA
ATOM     28  C   UNL     1      10.940  11.716  19.812  0.00  0.00    +0.000 C 
ATOM     29  C   UNL     1      10.081  12.723  20.610  0.00  0.00    +0.000 C 
BRANCH  24  31
ATOM     30  C   UNL     1      11.196  15.596  20.547  0.00  0.00    +0.000 C 
ATOM     31  C   UNL     1      10.574  14.816  19.393  0.00  0.00    +0.000 C 
ENDBRANCH  24  31
ENDBRANCH  23  27
ENDBRANCH  22  23
ENDBRANCH  21  22
ENDBRANCH  17  21
ENDBRANCH   1  18
TORSDOF 8
ENDMDL
MODEL 5
REMARK VINA RESULT:      -7.4      1.004      1.296
REMARK  Name = 
REMARK  9 active torsions:
REMARK  status: ('A' for Active; 'I' for Inactive)
REMARK    1  A    between atoms: C_1  and  C_2
REMARK    2  A    between atoms: C_2  and  N_3
REMARK    3  A    between atoms: N_6  and  C_7
REMARK    4  A    between atoms: C_7  and  C_8
REMARK    5  A    between atoms: C_8  and  C_9
REMARK    6  A    between atoms: C_9  and  N_10
REMARK    7  A    between atoms: C_11  and  C_13
REMARK    8  A    between atoms: C_13  and  N_14
REMARK    9  A    between atoms: C_15  and  C_16
REMARK                            x       y       z     vdW  Elec       q    Type
REMARK                         _______ _______ _______ _____ _____    ______ ____
ROOT
ATOM      1  C   UNL     1       5.515   6.784  16.474  0.00  0.00    +0.000 C 
ENDROOT
BRANCH   1   2
ATOM      2  N   UNL     1       4.879   5.501  16.719  0.00  0.00    +0.000 N 
ATOM      3  C   UNL     1       4.927   4.370  15.917  0.00  0.00    +0.000 A 
ATOM      4  C   UNL     1       4.140   3.416  16.549  0.00  0.00    +0.000 A 
ATOM      5  C   UNL     1       3.561   3.980  17.712  0.00  0.00    +0.000 A 
ATOM      6  C   UNL     1       2.655   3.498  18.679  0.00  0.00    +0.000 A 
ATOM      7  C   UNL     1       2.248   4.343  19.711  0.00  0.00    +0.000 A 
ATOM      8 CL   UNL     1       1.120   3.775  20.882  0.00  0.00    +0.000 Cl
ATOM      9  C   UNL     1       2.735   5.641  19.808  0.00  0.00    +0.000 A 
ATOM     10  C   UNL     1       3.653   6.127  18.872  0.00  0.00    +0.000 A 
ATOM     11  C   UNL     1       4.043   5.284  17.814  0.00  0.00    +0.000 A 
BRANCH   3  12
ATOM     12  C   UNL     1       5.597   4.228  14.639  0.00  0.00    +0.000 A 
ATOM     13  C   UNL     1       5.142   3.704  13.443  0.00  0.00    +0.000 A 
ATOM     14  C   UNL     1       6.137   3.686  12.418  0.00  0.00    +0.000 A 
ATOM     15  C   UNL     1       7.310   4.265  12.833  0.00  0.00    +0.000 A 
ATOM     16  S   UNL     1       7.221   4.793  14.452  0.00  0.00    +0.000 S 
ENDBRANCH   3  12
ENDBRANCH   1   2
BRANCH   1  18
ATOM     17  N   UNL     1       7.230   8.259  17.353  0.00  0.00    +0.000 N 
ATOM     18  C   UNL     1       6.780   6.956  17.282  0.00  0.00    +0.000 C 
ATOM     19  O   UNL     1       7.336   6.022  17.852  0.00  0.00    +0.000 OA
ATOM     20  H   UNL     1       6.740   8.991  16.861  0.00  0.00    +0.000 HD
BRANCH  17  21
ATOM     21  C   UNL     1       8.409   8.638  18.096  0.00  0.00    +0.000 C 
BRANCH  21  22
ATOM     22  C   UNL     1       8.439  10.139  18.370  0.00  0.00    +0.000 C 
BRANCH  22  23
ATOM     23  C   UNL     1       9.867  10.704  18.338  0.00  0.00    +0.000 C 
BRANCH  23  27
ATOM     24  N   UNL     1      10.923  13.760  20.269  0.00  0.00    +0.000 NA
ATOM     25  C   UNL     1       9.543  13.222  20.191  0.00  0.00    +0.000 C 
ATOM     26  C   UNL     1       9.034  12.944  18.748  0.00  0.00    +0.000 C 
ATOM     27  N   UNL     1       9.934  12.116  17.913  0.00  0.00    +0.000 NA
ATOM     28  C   UNL     1      11.294  12.690  17.997  0.00  0.00    +0.000 C 
ATOM     29  C   UNL     1      11.803  12.911  19.440  0.00  0.00    +0.000 C 
BRANCH  24  31
ATOM     30  C   UNL     1      12.333  15.781  19.760  0.00  0.00    +0.000 C 
ATOM     31  C   UNL     1      10.937  15.181  19.891  0.00  0.00    +0.000 C 
ENDBRANCH  24  31
ENDBRANCH  23  27
ENDBRANCH  22  23
ENDBRANCH  21  22
ENDBRANCH  17  21
ENDBRANCH   1  18
TORSDOF 8
ENDMDL
MODEL 6
REMARK VINA RESULT:      -7.4      1.143      1.329
REMARK  Name = 
REMARK  9 active torsions:
REMARK  status: ('A' for Active; 'I' for Inactive)
REMARK    1  A    between atoms: C_1  and  C_2
REMARK    2  A    between atoms: C_2  and  N_3
REMARK    3  A    between atoms: N_6  and  C_7
REMARK    4  A    between atoms: C_7  and  C_8
REMARK    5  A    between atoms: C_8  and  C_9
REMARK    6  A    between atoms: C_9  and  N_10
REMARK    7  A    between atoms: C_11  and  C_13
REMARK    8  A    between atoms: C_13  and  N_14
REMARK    9  A    between atoms: C_15  and  C_16
REMARK                            x       y       z     vdW  Elec       q    Type
REMARK                         _______ _______ _______ _____ _____    ______ ____
ROOT
ATOM      1  C   UNL     1       7.123   5.634  17.452  0.00  0.00    +0.000 C 
ENDROOT
BRANCH   1   2
ATOM      2  N   UNL     1       5.880   4.969  17.101  0.00  0.00    +0.000 N 
ATOM      3  C   UNL     1       5.513   4.469  15.860  0.00  0.00    +0.000 A 
ATOM      4  C   UNL     1       4.230   3.962  16.012  0.00  0.00    +0.000 A 
ATOM      5  C   UNL     1       3.783   4.203  17.335  0.00  0.00    +0.000 A 
ATOM      6  C   UNL     1       2.570   3.961  18.010  0.00  0.00    +0.000 A 
ATOM      7  C   UNL     1       2.440   4.362  19.341  0.00  0.00    +0.000 A 
ATOM      8 CL   UNL     1       0.954   4.096  20.168  0.00  0.00    +0.000 Cl
ATOM      9  C   UNL     1       3.492   4.978  20.009  0.00  0.00    +0.000 A 
ATOM     10  C   UNL     1       4.710   5.203  19.361  0.00  0.00    +0.000 A 
ATOM     11  C   UNL     1       4.833   4.824  18.010  0.00  0.00    +0.000 A 
BRANCH   3  12
ATOM     12  C   UNL     1       6.279   4.527  14.630  0.00  0.00    +0.000 A 
ATOM     13  C   UNL     1       7.419   5.245  14.318  0.00  0.00    +0.000 A 
ATOM     14  C   UNL     1       7.840   5.078  12.963  0.00  0.00    +0.000 A 
ATOM     15  C   UNL     1       7.054   4.178  12.290  0.00  0.00    +0.000 A 
ATOM     16  S   UNL     1       5.801   3.567  13.273  0.00  0.00    +0.000 S 
ENDBRANCH   3  12
ENDBRANCH   1   2
BRANCH   1  18
ATOM     17  N   UNL     1       8.042   7.825  17.946  0.00  0.00    +0.000 N 
ATOM     18  C   UNL     1       7.018   7.137  17.327  0.00  0.00    +0.000 C 
ATOM     19  O   UNL     1       6.119   7.690  16.702  0.00  0.00    +0.000 OA
ATOM     20  H   UNL     1       8.755   7.323  18.454  0.00  0.00    +0.000 HD
BRANCH  17  21
ATOM     21  C   UNL     1       8.138   9.267  17.923  0.00  0.00    +0.000 C 
BRANCH  21  22
ATOM     22  C   UNL     1       8.963   9.790  19.096  0.00  0.00    +0.000 C 
BRANCH  22  23
ATOM     23  C   UNL     1      10.188  10.591  18.628  0.00  0.00    +0.000 C 
BRANCH  23  27
ATOM     24  N   UNL     1      10.501  14.135  17.395  0.00  0.00    +0.000 NA
ATOM     25  C   UNL     1      11.622  13.181  17.574  0.00  0.00    +0.000 C 
ATOM     26  C   UNL     1      11.666  12.483  18.963  0.00  0.00    +0.000 C 
ATOM     27  N   UNL     1      10.400  11.841  19.385  0.00  0.00    +0.000 NA
ATOM     28  C   UNL     1       9.308  12.824  19.212  0.00  0.00    +0.000 C 
ATOM     29  C   UNL     1       9.249  13.468  17.809  0.00  0.00    +0.000 C 
BRANCH  24  31
ATOM     30  C   UNL     1      11.007  16.594  17.215  0.00  0.00    +0.000 C 
ATOM     31  C   UNL     1      10.777  15.386  18.118  0.00  0.00    +0.000 C 
ENDBRANCH  24  31
ENDBRANCH  23  27
ENDBRANCH  22  23
ENDBRANCH  21  22
ENDBRANCH  17  21
ENDBRANCH   1  18
TORSDOF 8
ENDMDL
MODEL 7
REMARK VINA RESULT:      -7.3      1.099      1.433
REMARK  Name = 
REMARK  9 active torsions:
REMARK  status: ('A' for Active; 'I' for Inactive)
REMARK    1  A    between atoms: C_1  and  C_2
REMARK    2  A    between atoms: C_2  and  N_3
REMARK    3  A    between atoms: N_6  and  C_7
REMARK    4  A    between atoms: C_7  and  C_8
REMARK    5  A    between atoms: C_8  and  C_9
REMARK    6  A    between atoms: C_9  and  N_10
REMARK    7  A    between atoms: C_11  and  C_13
REMARK    8  A    between atoms: C_13  and  N_14
REMARK    9  A    between atoms: C_15  and  C_16
REMARK                            x       y       z     vdW  Elec       q    Type
REMARK                         _______ _______ _______ _____ _____    ______ ____
ROOT
ATOM      1  C   UNL     1       7.198   5.694  17.376  0.00  0.00    +0.000 C 
ENDROOT
BRANCH   1   2
ATOM      2  N   UNL     1       5.974   4.989  17.038  0.00  0.00    +0.000 N 
ATOM      3  C   UNL     1       5.614   4.468  15.804  0.00  0.00    +0.000 A 
ATOM      4  C   UNL     1       4.348   3.924  15.969  0.00  0.00    +0.000 A 
ATOM      5  C   UNL     1       3.903   4.161  17.293  0.00  0.00    +0.000 A 
ATOM      6  C   UNL     1       2.703   3.887  17.978  0.00  0.00    +0.000 A 
ATOM      7  C   UNL     1       2.570   4.294  19.306  0.00  0.00    +0.000 A 
ATOM      8 CL   UNL     1       1.097   3.989  20.147  0.00  0.00    +0.000 Cl
ATOM      9  C   UNL     1       3.606   4.946  19.963  0.00  0.00    +0.000 A 
ATOM     10  C   UNL     1       4.813   5.204  19.305  0.00  0.00    +0.000 A 
ATOM     11  C   UNL     1       4.938   4.819  17.956  0.00  0.00    +0.000 A 
BRANCH   3  12
ATOM     12  C   UNL     1       6.370   4.540  14.568  0.00  0.00    +0.000 A 
ATOM     13  C   UNL     1       7.494   5.280  14.248  0.00  0.00    +0.000 A 
ATOM     14  C   UNL     1       7.908   5.121  12.890  0.00  0.00    +0.000 A 
ATOM     15  C   UNL     1       7.133   4.206  12.222  0.00  0.00    +0.000 A 
ATOM     16  S   UNL     1       5.899   3.573  13.214  0.00  0.00    +0.000 S 
ENDBRANCH   3  12
ENDBRANCH   1   2
BRANCH   1  18
ATOM     17  N   UNL     1       8.038   7.912  17.893  0.00  0.00    +0.000 N 
ATOM     18  C   UNL     1       7.039   7.193  17.269  0.00  0.00    +0.000 C 
ATOM     19  O   UNL     1       6.118   7.720  16.652  0.00  0.00    +0.000 OA
ATOM     20  H   UNL     1       8.770   7.430  18.394  0.00  0.00    +0.000 HD
BRANCH  17  21
ATOM     21  C   UNL     1       8.081   9.356  17.887  0.00  0.00    +0.000 C 
BRANCH  21  22
ATOM     22  C   UNL     1       9.028   9.891  18.958  0.00  0.00    +0.000 C 
BRANCH  22  23
ATOM     23  C   UNL     1      10.056  10.875  18.380  0.00  0.00    +0.000 C 
BRANCH  23  27
ATOM     24  N   UNL     1      11.788  14.065  19.383  0.00  0.00    +0.000 NA
ATOM     25  C   UNL     1      10.952  13.221  20.270  0.00  0.00    +0.000 C 
ATOM     26  C   UNL     1       9.556  12.853  19.691  0.00  0.00    +0.000 C 
ATOM     27  N   UNL     1       9.575  12.270  18.329  0.00  0.00    +0.000 NA
ATOM     28  C   UNL     1      10.399  13.144  17.468  0.00  0.00    +0.000 C 
ATOM     29  C   UNL     1      11.802  13.457  18.036  0.00  0.00    +0.000 C 
BRANCH  24  31
ATOM     30  C   UNL     1      11.858  16.324  18.276  0.00  0.00    +0.000 C 
ATOM     31  C   UNL     1      11.310  15.456  19.404  0.00  0.00    +0.000 C 
ENDBRANCH  24  31
ENDBRANCH  23  27
ENDBRANCH  22  23
ENDBRANCH  21  22
ENDBRANCH  17  21
ENDBRANCH   1  18
TORSDOF 8
ENDMDL
MODEL 8
REMARK VINA RESULT:      -7.2      5.936      7.895
REMARK  Name = 
REMARK  9 active torsions:
REMARK  status: ('A' for Active; 'I' for Inactive)
REMARK    1  A    between atoms: C_1  and  C_2
REMARK    2  A    between atoms: C_2  and  N_3
REMARK    3  A    between atoms: N_6  and  C_7
REMARK    4  A    between atoms: C_7  and  C_8
REMARK    5  A    between atoms: C_8  and  C_9
REMARK    6  A    between atoms: C_9  and  N_10
REMARK    7  A    between atoms: C_11  and  C_13
REMARK    8  A    between atoms: C_13  and  N_14
REMARK    9  A    between atoms: C_15  and  C_16
REMARK                            x       y       z     vdW  Elec       q    Type
REMARK                         _______ _______ _______ _____ _____    ______ ____
ROOT
ATOM      1  C   UNL     1       4.155   6.234  19.102  0.00  0.00    +0.000 C 
ENDROOT
BRANCH   1   2
ATOM      2  N   UNL     1       4.152   5.092  18.205  0.00  0.00    +0.000 N 
ATOM      3  C   UNL     1       3.582   3.847  18.427  0.00  0.00    +0.000 A 
ATOM      4  C   UNL     1       3.872   3.085  17.303  0.00  0.00    +0.000 A 
ATOM      5  C   UNL     1       4.671   3.844  16.413  0.00  0.00    +0.000 A 
ATOM      6  C   UNL     1       5.287   3.561  15.177  0.00  0.00    +0.000 A 
ATOM      7  C   UNL     1       6.056   4.547  14.558  0.00  0.00    +0.000 A 
ATOM      8 CL   UNL     1       6.836   4.204  13.062  0.00  0.00    +0.000 Cl
ATOM      9  C   UNL     1       6.206   5.803  15.133  0.00  0.00    +0.000 A 
ATOM     10  C   UNL     1       5.581   6.109  16.345  0.00  0.00    +0.000 A 
ATOM     11  C   UNL     1       4.828   5.105  16.985  0.00  0.00    +0.000 A 
BRANCH   3  12
ATOM     12  C   UNL     1       2.889   3.400  19.619  0.00  0.00    +0.000 A 
ATOM     13  C   UNL     1       3.383   2.863  20.794  0.00  0.00    +0.000 A 
ATOM     14  C   UNL     1       2.361   2.487  21.718  0.00  0.00    +0.000 A 
ATOM     15  C   UNL     1       1.110   2.813  21.258  0.00  0.00    +0.000 A 
ATOM     16  S   UNL     1       1.167   3.534  19.714  0.00  0.00    +0.000 S 
ENDBRANCH   3  12
ENDBRANCH   1   2
BRANCH   1  18
ATOM     17  N   UNL     1       2.769   7.826  17.904  0.00  0.00    +0.000 N 
ATOM     18  C   UNL     1       2.869   7.024  19.023  0.00  0.00    +0.000 C 
ATOM     19  O   UNL     1       1.981   6.932  19.864  0.00  0.00    +0.000 OA
ATOM     20  H   UNL     1       3.531   7.871  17.244  0.00  0.00    +0.000 HD
BRANCH  17  21
ATOM     21  C   UNL     1       1.609   8.642  17.631  0.00  0.00    +0.000 C 
BRANCH  21  22
ATOM     22  C   UNL     1       1.771  10.050  18.198  0.00  0.00    +0.000 C 
BRANCH  22  23
ATOM     23  C   UNL     1       0.850  10.297  19.402  0.00  0.00    +0.000 C 
BRANCH  23  27
ATOM     24  N   UNL     1       0.641  13.184  21.811  0.00  0.00    +0.000 NA
ATOM     25  C   UNL     1      -0.240  11.991  21.814  0.00  0.00    +0.000 C 
ATOM     26  C   UNL     1      -0.876  11.648  20.438  0.00  0.00    +0.000 C 
ATOM     27  N   UNL     1       0.079  11.553  19.310  0.00  0.00    +0.000 NA
ATOM     28  C   UNL     1       0.927  12.764  19.324  0.00  0.00    +0.000 C 
ATOM     29  C   UNL     1       1.592  13.059  20.687  0.00  0.00    +0.000 C 
BRANCH  24  31
ATOM     30  C   UNL     1      -0.974  14.671  23.042  0.00  0.00    +0.000 C 
ATOM     31  C   UNL     1      -0.166  14.413  21.774  0.00  0.00    +0.000 C 
ENDBRANCH  24  31
ENDBRANCH  23  27
ENDBRANCH  22  23
ENDBRANCH  21  22
ENDBRANCH  17  21
ENDBRANCH   1  18
TORSDOF 8
ENDMDL
MODEL 9
REMARK VINA RESULT:      -7.2      5.975      7.890
REMARK  Name = 
REMARK  9 active torsions:
REMARK  status: ('A' for Active; 'I' for Inactive)
REMARK    1  A    between atoms: C_1  and  C_2
REMARK    2  A    between atoms: C_2  and  N_3
REMARK    3  A    between atoms: N_6  and  C_7
REMARK    4  A    between atoms: C_7  and  C_8
REMARK    5  A    between atoms: C_8  and  C_9
REMARK    6  A    between atoms: C_9  and  N_10
REMARK    7  A    between atoms: C_11  and  C_13
REMARK    8  A    between atoms: C_13  and  N_14
REMARK    9  A    between atoms: C_15  and  C_16
REMARK                            x       y       z     vdW  Elec       q    Type
REMARK                         _______ _______ _______ _____ _____    ______ ____
ROOT
ATOM      1  C   UNL     1       4.125   6.216  19.162  0.00  0.00    +0.000 C 
ENDROOT
BRANCH   1   2
ATOM      2  N   UNL     1       4.102   5.083  18.252  0.00  0.00    +0.000 N 
ATOM      3  C   UNL     1       3.526   3.840  18.469  0.00  0.00    +0.000 A 
ATOM      4  C   UNL     1       3.795   3.088  17.334  0.00  0.00    +0.000 A 
ATOM      5  C   UNL     1       4.588   3.849  16.441  0.00  0.00    +0.000 A 
ATOM      6  C   UNL     1       5.186   3.574  15.195  0.00  0.00    +0.000 A 
ATOM      7  C   UNL     1       5.954   4.561  14.576  0.00  0.00    +0.000 A 
ATOM      8 CL   UNL     1       6.713   4.227  13.067  0.00  0.00    +0.000 Cl
ATOM      9  C   UNL     1       6.121   5.810  15.162  0.00  0.00    +0.000 A 
ATOM     10  C   UNL     1       5.515   6.108  16.385  0.00  0.00    +0.000 A 
ATOM     11  C   UNL     1       4.762   5.103  17.025  0.00  0.00    +0.000 A 
BRANCH   3  12
ATOM     12  C   UNL     1       2.844   3.386  19.666  0.00  0.00    +0.000 A 
ATOM     13  C   UNL     1       3.348   2.825  20.825  0.00  0.00    +0.000 A 
ATOM     14  C   UNL     1       2.335   2.450  21.760  0.00  0.00    +0.000 A 
ATOM     15  C   UNL     1       1.082   2.802  21.325  0.00  0.00    +0.000 A 
ATOM     16  S   UNL     1       1.126   3.544  19.790  0.00  0.00    +0.000 S 
ENDBRANCH   3  12
ENDBRANCH   1   2
BRANCH   1  18
ATOM     17  N   UNL     1       2.738   7.824  17.986  0.00  0.00    +0.000 N 
ATOM     18  C   UNL     1       2.846   7.019  19.102  0.00  0.00    +0.000 C 
ATOM     19  O   UNL     1       1.970   6.935  19.957  0.00  0.00    +0.000 OA
ATOM     20  H   UNL     1       3.491   7.862  17.315  0.00  0.00    +0.000 HD
BRANCH  17  21
ATOM     21  C   UNL     1       1.583   8.653  17.731  0.00  0.00    +0.000 C 
BRANCH  21  22
ATOM     22  C   UNL     1       1.775  10.063  18.282  0.00  0.00    +0.000 C 
BRANCH  22  23
ATOM     23  C   UNL     1       0.751  10.399  19.377  0.00  0.00    +0.000 C 
BRANCH  23  27
ATOM     24  N   UNL     1      -1.117  13.664  19.557  0.00  0.00    +0.000 NA
ATOM     25  C   UNL     1      -0.063  13.326  18.571  0.00  0.00    +0.000 C 
ATOM     26  C   UNL     1       1.249  12.765  19.187  0.00  0.00    +0.000 C 
ATOM     27  N   UNL     1       1.069  11.632  20.125  0.00  0.00    +0.000 NA
ATOM     28  C   UNL     1       0.028  12.010  21.105  0.00  0.00    +0.000 C 
ATOM     29  C   UNL     1      -1.288  12.515  20.471  0.00  0.00    +0.000 C 
BRANCH  24  31
ATOM     30  C   UNL     1      -0.540  16.100  19.300  0.00  0.00    +0.000 C 
ATOM     31  C   UNL     1      -0.790  14.925  20.240  0.00  0.00    +0.000 C 
ENDBRANCH  24  31
ENDBRANCH  23  27
ENDBRANCH  22  23
ENDBRANCH  21  22
ENDBRANCH  17  21
ENDBRANCH   1  18
TORSDOF 8
ENDMDL
