MODEL 1
REMARK VINA RESULT:      -9.2      0.000      0.000
REMARK  Name = 
REMARK  4 active torsions:
REMARK  status: ('A' for Active; 'I' for Inactive)
REMARK    1  A    between atoms: C_1  and  C_2
REMARK    2  A    between atoms: C_2  and  C_3
REMARK    3  A    between atoms: C_11  and  C_12
REMARK    4  A    between atoms: C_14  and  C_15
REMARK                            x       y       z     vdW  Elec       q    Type
REMARK                         _______ _______ _______ _____ _____    ______ ____
ROOT
ATOM      1  C   UNL     1       2.296   3.563  19.393  0.00  0.00    +0.000 A 
ATOM      2  C   UNL     1       2.830   2.358  18.891  0.00  0.00    +0.000 A 
ATOM      3  N   UNL     1       3.758   2.547  17.960  0.00  0.00    +0.000 NA
ATOM      4  N   UNL     1       3.977   3.892  17.971  0.00  0.00    +0.000 N 
ATOM      5  C   UNL     1       5.078   4.436  17.238  0.00  0.00    +0.000 A 
ATOM      6  C   UNL     1       5.480   3.795  16.069  0.00  0.00    +0.000 A 
ATOM      7  C   UNL     1       6.525   4.349  15.336  0.00  0.00    +0.000 A 
ATOM      8  C   UNL     1       7.165   5.490  15.813  0.00  0.00    +0.000 A 
ATOM      9  C   UNL     1       6.721   6.066  16.997  0.00  0.00    +0.000 A 
ATOM     10  C   UNL     1       7.406   7.260  17.587  0.00  0.00    +0.000 C 
ATOM     11  N   UNL     1       5.675   5.569  17.696  0.00  0.00    +0.000 NA
ATOM     12  C   UNL     1       3.033   4.568  18.755  0.00  0.00    +0.000 A 
ENDROOT
BRANCH  12  13
ATOM     13  C   UNL     1       2.790   6.025  18.733  0.00  0.00    +0.000 A 
ATOM     14  C   UNL     1       2.835   6.763  17.536  0.00  0.00    +0.000 A 
ATOM     15  C   UNL     1       2.465   8.111  17.489  0.00  0.00    +0.000 A 
ATOM     16  C   UNL     1       1.955   8.734  18.619  0.00  0.00    +0.000 A 
ATOM     17  N   UNL     1       1.479  10.054  18.514  0.00  0.00    +0.000 NA
ATOM     18  C   UNL     1       0.905  10.554  19.551  0.00  0.00    +0.000 A 
ATOM     19  N   UNL     1       0.750   9.901  20.740  0.00  0.00    +0.000 N 
ATOM     20  C   UNL     1       1.214   8.628  20.953  0.00  0.00    +0.000 A 
ATOM     21  O   UNL     1       1.032   8.037  22.011  0.00  0.00    +0.000 OA
ATOM     22  C   UNL     1       1.893   8.004  19.806  0.00  0.00    +0.000 A 
ATOM     23  C   UNL     1       2.357   6.690  19.888  0.00  0.00    +0.000 A 
ATOM     24  H   UNL     1       0.256  10.330  21.506  0.00  0.00    +0.000 HD
ENDBRANCH  12  13
BRANCH   1  26
ATOM     25  C   UNL     1       1.271   2.874  21.616  0.00  0.00    +0.000 C 
ATOM     26  C   UNL     1       1.147   3.702  20.347  0.00  0.00    +0.000 C 
ENDBRANCH   1  26
TORSDOF 2
ENDMDL
MODEL 2
REMARK VINA RESULT:      -8.9      2.408      5.422
REMARK  Name = 
REMARK  4 active torsions:
REMARK  status: ('A' for Active; 'I' for Inactive)
REMARK    1  A    between atoms: C_1  and  C_2
REMARK    2  A    between atoms: C_2  and  C_3
REMARK    3  A    between atoms: C_11  and  C_12
REMARK    4  A    between atoms: C_14  and  C_15
REMARK                            x       y       z     vdW  Elec       q    Type
REMARK                         _______ _______ _______ _____ _____    ______ ____
ROOT
ATOM      1  C   UNL     1       2.289   3.171  18.970  0.00  0.00    +0.000 A 
ATOM      2  C   UNL     1       1.209   3.114  19.875  0.00  0.00    +0.000 A 
ATOM      3  N   UNL     1       0.951   4.281  20.453  0.00  0.00    +0.000 NA
ATOM      4  N   UNL     1       1.748   5.168  19.791  0.00  0.00    +0.000 N 
ATOM      5  C   UNL     1       1.575   6.571  20.006  0.00  0.00    +0.000 A 
ATOM      6  C   UNL     1       1.144   7.004  21.256  0.00  0.00    +0.000 A 
ATOM      7  C   UNL     1       1.016   8.372  21.475  0.00  0.00    +0.000 A 
ATOM      8  C   UNL     1       1.274   9.259  20.433  0.00  0.00    +0.000 A 
ATOM      9  C   UNL     1       1.684   8.752  19.205  0.00  0.00    +0.000 A 
ATOM     10  C   UNL     1       1.921   9.653  18.032  0.00  0.00    +0.000 C 
ATOM     11  N   UNL     1       1.861   7.429  18.990  0.00  0.00    +0.000 NA
ATOM     12  C   UNL     1       2.660   4.520  18.949  0.00  0.00    +0.000 A 
ENDROOT
BRANCH  12  13
ATOM     13  C   UNL     1       3.853   5.145  18.338  0.00  0.00    +0.000 A 
ATOM     14  C   UNL     1       3.754   5.960  17.196  0.00  0.00    +0.000 A 
ATOM     15  C   UNL     1       4.855   6.667  16.701  0.00  0.00    +0.000 A 
ATOM     16  C   UNL     1       6.061   6.650  17.386  0.00  0.00    +0.000 A 
ATOM     17  N   UNL     1       7.115   7.464  16.933  0.00  0.00    +0.000 NA
ATOM     18  C   UNL     1       8.173   7.513  17.662  0.00  0.00    +0.000 A 
ATOM     19  N   UNL     1       8.346   6.814  18.823  0.00  0.00    +0.000 N 
ATOM     20  C   UNL     1       7.392   5.965  19.326  0.00  0.00    +0.000 A 
ATOM     21  O   UNL     1       7.542   5.376  20.390  0.00  0.00    +0.000 OA
ATOM     22  C   UNL     1       6.161   5.856  18.529  0.00  0.00    +0.000 A 
ATOM     23  C   UNL     1       5.099   5.065  18.972  0.00  0.00    +0.000 A 
ATOM     24  H   UNL     1       9.182   6.923  19.374  0.00  0.00    +0.000 HD
ENDBRANCH  12  13
BRANCH   1  26
ATOM     25  C   UNL     1       4.085   1.370  18.992  0.00  0.00    +0.000 C 
ATOM     26  C   UNL     1       2.920   2.011  18.257  0.00  0.00    +0.000 C 
ENDBRANCH   1  26
TORSDOF 2
ENDMDL
MODEL 3
REMARK VINA RESULT:      -7.9      2.592      5.971
REMARK  Name = 
REMARK  4 active torsions:
REMARK  status: ('A' for Active; 'I' for Inactive)
REMARK    1  A    between atoms: C_1  and  C_2
REMARK    2  A    between atoms: C_2  and  C_3
REMARK    3  A    between atoms: C_11  and  C_12
REMARK    4  A    between atoms: C_14  and  C_15
REMARK                            x       y       z     vdW  Elec       q    Type
REMARK                         _______ _______ _______ _____ _____    ______ ____
ROOT
ATOM      1  C   UNL     1       2.193   2.850  19.129  0.00  0.00    +0.000 A 
ATOM      2  C   UNL     1       1.109   2.920  20.029  0.00  0.00    +0.000 A 
ATOM      3  N   UNL     1       0.917   4.139  20.519  0.00  0.00    +0.000 NA
ATOM      4  N   UNL     1       1.764   4.929  19.801  0.00  0.00    +0.000 N 
ATOM      5  C   UNL     1       1.672   6.351  19.913  0.00  0.00    +0.000 A 
ATOM      6  C   UNL     1       1.262   6.897  21.126  0.00  0.00    +0.000 A 
ATOM      7  C   UNL     1       1.213   8.283  21.245  0.00  0.00    +0.000 A 
ATOM      8  C   UNL     1       1.523   9.076  20.143  0.00  0.00    +0.000 A 
ATOM      9  C   UNL     1       1.907   8.460  18.958  0.00  0.00    +0.000 A 
ATOM     10  C   UNL     1       2.198   9.258  17.725  0.00  0.00    +0.000 C 
ATOM     11  N   UNL     1       2.008   7.116  18.840  0.00  0.00    +0.000 NA
ATOM     12  C   UNL     1       2.640   4.171  19.013  0.00  0.00    +0.000 A 
ENDROOT
BRANCH  12  13
ATOM     13  C   UNL     1       3.868   4.682  18.368  0.00  0.00    +0.000 A 
ATOM     14  C   UNL     1       4.971   5.118  19.123  0.00  0.00    +0.000 A 
ATOM     15  C   UNL     1       6.184   5.466  18.520  0.00  0.00    +0.000 A 
ATOM     16  C   UNL     1       6.356   5.300  17.153  0.00  0.00    +0.000 A 
ATOM     17  N   UNL     1       7.622   5.542  16.590  0.00  0.00    +0.000 NA
ATOM     18  C   UNL     1       7.773   5.262  15.344  0.00  0.00    +0.000 A 
ATOM     19  N   UNL     1       6.787   4.771  14.536  0.00  0.00    +0.000 N 
ATOM     20  C   UNL     1       5.511   4.538  14.982  0.00  0.00    +0.000 A 
ATOM     21  O   UNL     1       4.646   4.059  14.259  0.00  0.00    +0.000 OA
ATOM     22  C   UNL     1       5.271   4.852  16.400  0.00  0.00    +0.000 A 
ATOM     23  C   UNL     1       4.025   4.602  16.978  0.00  0.00    +0.000 A 
ATOM     24  H   UNL     1       6.976   4.533  13.576  0.00  0.00    +0.000 HD
ENDBRANCH  12  13
BRANCH   1  26
ATOM     25  C   UNL     1       4.152   1.236  18.980  0.00  0.00    +0.000 C 
ATOM     26  C   UNL     1       2.758   1.607  18.506  0.00  0.00    +0.000 C 
ENDBRANCH   1  26
TORSDOF 2
ENDMDL
MODEL 4
REMARK VINA RESULT:      -7.6      2.542      6.340
REMARK  Name = 
REMARK  4 active torsions:
REMARK  status: ('A' for Active; 'I' for Inactive)
REMARK    1  A    between atoms: C_1  and  C_2
REMARK    2  A    between atoms: C_2  and  C_3
REMARK    3  A    between atoms: C_11  and  C_12
REMARK    4  A    between atoms: C_14  and  C_15
REMARK                            x       y       z     vdW  Elec       q    Type
REMARK                         _______ _______ _______ _____ _____    ______ ____
ROOT
ATOM      1  C   UNL     1       2.560   7.581  18.981  0.00  0.00    +0.000 A 
ATOM      2  C   UNL     1       1.633   7.687  20.039  0.00  0.00    +0.000 A 
ATOM      3  N   UNL     1       1.349   6.518  20.602  0.00  0.00    +0.000 NA
ATOM      4  N   UNL     1       2.233   5.649  20.037  0.00  0.00    +0.000 N 
ATOM      5  C   UNL     1       2.361   4.326  20.566  0.00  0.00    +0.000 A 
ATOM      6  C   UNL     1       1.241   3.725  21.132  0.00  0.00    +0.000 A 
ATOM      7  C   UNL     1       1.359   2.423  21.610  0.00  0.00    +0.000 A 
ATOM      8  C   UNL     1       2.594   1.783  21.553  0.00  0.00    +0.000 A 
ATOM      9  C   UNL     1       3.673   2.453  20.991  0.00  0.00    +0.000 A 
ATOM     10  C   UNL     1       5.038   1.836  20.954  0.00  0.00    +0.000 C 
ATOM     11  N   UNL     1       3.565   3.699  20.477  0.00  0.00    +0.000 NA
ATOM     12  C   UNL     1       2.922   6.229  18.965  0.00  0.00    +0.000 A 
ENDROOT
BRANCH  12  13
ATOM     13  C   UNL     1       3.706   5.491  17.952  0.00  0.00    +0.000 A 
ATOM     14  C   UNL     1       3.119   4.499  17.145  0.00  0.00    +0.000 A 
ATOM     15  C   UNL     1       3.817   3.901  16.091  0.00  0.00    +0.000 A 
ATOM     16  C   UNL     1       5.090   4.342  15.758  0.00  0.00    +0.000 A 
ATOM     17  N   UNL     1       5.721   3.808  14.620  0.00  0.00    +0.000 NA
ATOM     18  C   UNL     1       6.846   4.327  14.276  0.00  0.00    +0.000 A 
ATOM     19  N   UNL     1       7.471   5.338  14.950  0.00  0.00    +0.000 N 
ATOM     20  C   UNL     1       6.954   5.898  16.091  0.00  0.00    +0.000 A 
ATOM     21  O   UNL     1       7.503   6.832  16.663  0.00  0.00    +0.000 OA
ATOM     22  C   UNL     1       5.672   5.337  16.544  0.00  0.00    +0.000 A 
ATOM     23  C   UNL     1       5.023   5.866  17.662  0.00  0.00    +0.000 A 
ATOM     24  H   UNL     1       8.333   5.732  14.610  0.00  0.00    +0.000 HD
ENDBRANCH  12  13
BRANCH   1  26
ATOM     25  C   UNL     1       1.934   9.745  17.801  0.00  0.00    +0.000 C 
ATOM     26  C   UNL     1       2.989   8.681  18.055  0.00  0.00    +0.000 C 
ENDBRANCH   1  26
TORSDOF 2
ENDMDL
MODEL 5
REMARK VINA RESULT:      -7.3      6.060      9.293
REMARK  Name = 
REMARK  4 active torsions:
REMARK  status: ('A' for Active; 'I' for Inactive)
REMARK    1  A    between atoms: C_1  and  C_2
REMARK    2  A    between atoms: C_2  and  C_3
REMARK    3  A    between atoms: C_11  and  C_12
REMARK    4  A    between atoms: C_14  and  C_15
REMARK                            x       y       z     vdW  Elec       q    Type
REMARK                         _______ _______ _______ _____ _____    ______ ____
ROOT
ATOM      1  C   UNL     1      -4.554  12.234  18.823  0.00  0.00    +0.000 A 
ATOM      2  C   UNL     1      -4.340  11.503  17.636  0.00  0.00    +0.000 A 
ATOM      3  N   UNL     1      -3.110  11.010  17.542  0.00  0.00    +0.000 NA
ATOM      4  N   UNL     1      -2.554  11.259  18.762  0.00  0.00    +0.000 N 
ATOM      5  C   UNL     1      -1.294  10.672  19.097  0.00  0.00    +0.000 A 
ATOM      6  C   UNL     1      -0.374  10.444  18.078  0.00  0.00    +0.000 A 
ATOM      7  C   UNL     1       0.867   9.910  18.414  0.00  0.00    +0.000 A 
ATOM      8  C   UNL     1       1.132   9.576  19.739  0.00  0.00    +0.000 A 
ATOM      9  C   UNL     1       0.158   9.815  20.701  0.00  0.00    +0.000 A 
ATOM     10  C   UNL     1       0.365   9.425  22.133  0.00  0.00    +0.000 C 
ATOM     11  N   UNL     1      -1.034  10.379  20.400  0.00  0.00    +0.000 NA
ATOM     12  C   UNL     1      -3.360  12.097  19.541  0.00  0.00    +0.000 A 
ENDROOT
BRANCH  12  13
ATOM     13  C   UNL     1      -2.927  12.807  20.763  0.00  0.00    +0.000 A 
ATOM     14  C   UNL     1      -2.121  13.959  20.699  0.00  0.00    +0.000 A 
ATOM     15  C   UNL     1      -1.828  14.714  21.839  0.00  0.00    +0.000 A 
ATOM     16  C   UNL     1      -2.405  14.391  23.058  0.00  0.00    +0.000 A 
ATOM     17  N   UNL     1      -2.190  15.237  24.161  0.00  0.00    +0.000 NA
ATOM     18  C   UNL     1      -2.838  14.970  25.240  0.00  0.00    +0.000 A 
ATOM     19  N   UNL     1      -3.695  13.917  25.388  0.00  0.00    +0.000 N 
ATOM     20  C   UNL     1      -3.941  13.015  24.383  0.00  0.00    +0.000 A 
ATOM     21  O   UNL     1      -4.744  12.099  24.514  0.00  0.00    +0.000 OA
ATOM     22  C   UNL     1      -3.218  13.259  23.125  0.00  0.00    +0.000 A 
ATOM     23  C   UNL     1      -3.433  12.439  22.015  0.00  0.00    +0.000 A 
ATOM     24  H   UNL     1      -4.206  13.781  26.245  0.00  0.00    +0.000 HD
ENDBRANCH  12  13
BRANCH   1  26
ATOM     25  C   UNL     1      -6.714  12.346  20.160  0.00  0.00    +0.000 C 
ATOM     26  C   UNL     1      -5.779  13.027  19.175  0.00  0.00    +0.000 C 
ENDBRANCH   1  26
TORSDOF 2
ENDMDL
MODEL 6
REMARK VINA RESULT:      -7.1      8.360     10.896
REMARK  Name = 
REMARK  4 active torsions:
REMARK  status: ('A' for Active; 'I' for Inactive)
REMARK    1  A    between atoms: C_1  and  C_2
REMARK    2  A    between atoms: C_2  and  C_3
REMARK    3  A    between atoms: C_11  and  C_12
REMARK    4  A    between atoms: C_14  and  C_15
REMARK                            x       y       z     vdW  Elec       q    Type
REMARK                         _______ _______ _______ _____ _____    ______ ____
ROOT
ATOM      1  C   UNL     1      -5.425  11.720  18.013  0.00  0.00    +0.000 A 
ATOM      2  C   UNL     1      -4.510  11.274  17.037  0.00  0.00    +0.000 A 
ATOM      3  N   UNL     1      -3.244  11.504  17.366  0.00  0.00    +0.000 NA
ATOM      4  N   UNL     1      -3.305  11.941  18.655  0.00  0.00    +0.000 N 
ATOM      5  C   UNL     1      -2.100  12.083  19.412  0.00  0.00    +0.000 A 
ATOM      6  C   UNL     1      -0.930  12.426  18.741  0.00  0.00    +0.000 A 
ATOM      7  C   UNL     1       0.232  12.603  19.485  0.00  0.00    +0.000 A 
ATOM      8  C   UNL     1       0.204  12.387  20.860  0.00  0.00    +0.000 A 
ATOM      9  C   UNL     1      -0.998  12.029  21.460  0.00  0.00    +0.000 A 
ATOM     10  C   UNL     1      -1.077  11.729  22.925  0.00  0.00    +0.000 C 
ATOM     11  N   UNL     1      -2.147  11.901  20.759  0.00  0.00    +0.000 NA
ATOM     12  C   UNL     1      -4.623  12.191  19.059  0.00  0.00    +0.000 A 
ENDROOT
BRANCH  12  13
ATOM     13  C   UNL     1      -5.019  12.956  20.259  0.00  0.00    +0.000 A 
ATOM     14  C   UNL     1      -4.829  14.348  20.342  0.00  0.00    +0.000 A 
ATOM     15  C   UNL     1      -5.331  15.095  21.412  0.00  0.00    +0.000 A 
ATOM     16  C   UNL     1      -6.113  14.486  22.383  0.00  0.00    +0.000 A 
ATOM     17  N   UNL     1      -6.705  15.282  23.381  0.00  0.00    +0.000 NA
ATOM     18  C   UNL     1      -7.518  14.700  24.189  0.00  0.00    +0.000 A 
ATOM     19  N   UNL     1      -7.823  13.369  24.155  0.00  0.00    +0.000 N 
ATOM     20  C   UNL     1      -7.269  12.505  23.245  0.00  0.00    +0.000 A 
ATOM     21  O   UNL     1      -7.582  11.321  23.197  0.00  0.00    +0.000 OA
ATOM     22  C   UNL     1      -6.319  13.109  22.298  0.00  0.00    +0.000 A 
ATOM     23  C   UNL     1      -5.735  12.338  21.292  0.00  0.00    +0.000 A 
ATOM     24  H   UNL     1      -8.499  12.976  24.790  0.00  0.00    +0.000 HD
ENDBRANCH  12  13
BRANCH   1  26
ATOM     25  C   UNL     1      -7.532  13.118  17.741  0.00  0.00    +0.000 C 
ATOM     26  C   UNL     1      -6.921  11.735  17.895  0.00  0.00    +0.000 C 
ENDBRANCH   1  26
TORSDOF 2
ENDMDL
MODEL 7
REMARK VINA RESULT:      -7.1      8.086     10.455
REMARK  Name = 
REMARK  4 active torsions:
REMARK  status: ('A' for Active; 'I' for Inactive)
REMARK    1  A    between atoms: C_1  and  C_2
REMARK    2  A    between atoms: C_2  and  C_3
REMARK    3  A    between atoms: C_11  and  C_12
REMARK    4  A    between atoms: C_14  and  C_15
REMARK                            x       y       z     vdW  Elec       q    Type
REMARK                         _______ _______ _______ _____ _____    ______ ____
ROOT
ATOM      1  C   UNL     1       9.962  11.301  18.782  0.00  0.00    +0.000 A 
ATOM      2  C   UNL     1      10.882  11.366  17.715  0.00  0.00    +0.000 A 
ATOM      3  N   UNL     1      11.341  12.593  17.496  0.00  0.00    +0.000 NA
ATOM      4  N   UNL     1      10.864  13.322  18.543  0.00  0.00    +0.000 N 
ATOM      5  C   UNL     1      11.339  14.655  18.752  0.00  0.00    +0.000 A 
ATOM      6  C   UNL     1      11.710  15.410  17.644  0.00  0.00    +0.000 A 
ATOM      7  C   UNL     1      12.134  16.720  17.847  0.00  0.00    +0.000 A 
ATOM      8  C   UNL     1      12.221  17.217  19.144  0.00  0.00    +0.000 A 
ATOM      9  C   UNL     1      11.851  16.399  20.204  0.00  0.00    +0.000 A 
ATOM     10  C   UNL     1      11.977  16.860  21.625  0.00  0.00    +0.000 C 
ATOM     11  N   UNL     1      11.390  15.140  20.022  0.00  0.00    +0.000 NA
ATOM     12  C   UNL     1       9.930  12.602  19.298  0.00  0.00    +0.000 A 
ENDROOT
BRANCH  12  13
ATOM     13  C   UNL     1       9.002  13.182  20.291  0.00  0.00    +0.000 A 
ATOM     14  C   UNL     1       8.132  14.236  19.959  0.00  0.00    +0.000 A 
ATOM     15  C   UNL     1       7.155  14.692  20.851  0.00  0.00    +0.000 A 
ATOM     16  C   UNL     1       6.962  14.046  22.064  0.00  0.00    +0.000 A 
ATOM     17  N   UNL     1       5.895  14.447  22.888  0.00  0.00    +0.000 NA
ATOM     18  C   UNL     1       5.676  13.747  23.944  0.00  0.00    +0.000 A 
ATOM     19  N   UNL     1       6.418  12.665  24.324  0.00  0.00    +0.000 N 
ATOM     20  C   UNL     1       7.500  12.220  23.608  0.00  0.00    +0.000 A 
ATOM     21  O   UNL     1       8.132  11.223  23.936  0.00  0.00    +0.000 OA
ATOM     22  C   UNL     1       7.811  12.989  22.392  0.00  0.00    +0.000 A 
ATOM     23  C   UNL     1       8.856  12.595  21.554  0.00  0.00    +0.000 A 
ATOM     24  H   UNL     1       6.173  12.131  25.143  0.00  0.00    +0.000 HD
ENDBRANCH  12  13
BRANCH   1  26
ATOM     25  C   UNL     1       8.380   9.438  18.080  0.00  0.00    +0.000 C 
ATOM     26  C   UNL     1       9.163  10.102  19.200  0.00  0.00    +0.000 C 
ENDBRANCH   1  26
TORSDOF 2
ENDMDL
MODEL 8
REMARK VINA RESULT:      -7.0      8.912     10.950
REMARK  Name = 
REMARK  4 active torsions:
REMARK  status: ('A' for Active; 'I' for Inactive)
REMARK    1  A    between atoms: C_1  and  C_2
REMARK    2  A    between atoms: C_2  and  C_3
REMARK    3  A    between atoms: C_11  and  C_12
REMARK    4  A    between atoms: C_14  and  C_15
REMARK                            x       y       z     vdW  Elec       q    Type
REMARK                         _______ _______ _______ _____ _____    ______ ____
ROOT
ATOM      1  C   UNL     1      -5.219  11.161  18.514  0.00  0.00    +0.000 A 
ATOM      2  C   UNL     1      -4.197  10.699  17.659  0.00  0.00    +0.000 A 
ATOM      3  N   UNL     1      -3.025  11.281  17.886  0.00  0.00    +0.000 NA
ATOM      4  N   UNL     1      -3.223  12.004  19.024  0.00  0.00    +0.000 N 
ATOM      5  C   UNL     1      -2.105  12.599  19.688  0.00  0.00    +0.000 A 
ATOM      6  C   UNL     1      -1.019  13.013  18.922  0.00  0.00    +0.000 A 
ATOM      7  C   UNL     1       0.050  13.627  19.567  0.00  0.00    +0.000 A 
ATOM      8  C   UNL     1       0.026  13.765  20.952  0.00  0.00    +0.000 A 
ATOM      9  C   UNL     1      -1.085  13.311  21.654  0.00  0.00    +0.000 A 
ATOM     10  C   UNL     1      -1.142  13.381  23.150  0.00  0.00    +0.000 C 
ATOM     11  N   UNL     1      -2.153  12.756  21.039  0.00  0.00    +0.000 NA
ATOM     12  C   UNL     1      -4.576  12.047  19.386  0.00  0.00    +0.000 A 
ENDROOT
BRANCH  12  13
ATOM     13  C   UNL     1      -5.171  12.982  20.364  0.00  0.00    +0.000 A 
ATOM     14  C   UNL     1      -5.580  14.276  19.991  0.00  0.00    +0.000 A 
ATOM     15  C   UNL     1      -6.272  15.110  20.874  0.00  0.00    +0.000 A 
ATOM     16  C   UNL     1      -6.653  14.642  22.123  0.00  0.00    +0.000 A 
ATOM     17  N   UNL     1      -7.452  15.458  22.944  0.00  0.00    +0.000 NA
ATOM     18  C   UNL     1      -7.884  14.943  24.041  0.00  0.00    +0.000 A 
ATOM     19  N   UNL     1      -7.601  13.676  24.465  0.00  0.00    +0.000 N 
ATOM     20  C   UNL     1      -6.801  12.818  23.754  0.00  0.00    +0.000 A 
ATOM     21  O   UNL     1      -6.589  11.669  24.124  0.00  0.00    +0.000 OA
ATOM     22  C   UNL     1      -6.264  13.354  22.493  0.00  0.00    +0.000 A 
ATOM     23  C   UNL     1      -5.483  12.552  21.659  0.00  0.00    +0.000 A 
ATOM     24  H   UNL     1      -8.001  13.313  25.315  0.00  0.00    +0.000 HD
ENDBRANCH  12  13
BRANCH   1  26
ATOM     25  C   UNL     1      -7.155   9.840  19.502  0.00  0.00    +0.000 C 
ATOM     26  C   UNL     1      -6.676  10.810  18.435  0.00  0.00    +0.000 C 
ENDBRANCH   1  26
TORSDOF 2
ENDMDL
MODEL 9
REMARK VINA RESULT:      -7.0      7.451     10.524
REMARK  Name = 
REMARK  4 active torsions:
REMARK  status: ('A' for Active; 'I' for Inactive)
REMARK    1  A    between atoms: C_1  and  C_2
REMARK    2  A    between atoms: C_2  and  C_3
REMARK    3  A    between atoms: C_11  and  C_12
REMARK    4  A    between atoms: C_14  and  C_15
REMARK                            x       y       z     vdW  Elec       q    Type
REMARK                         _______ _______ _______ _____ _____    ______ ____
ROOT
ATOM      1  C   UNL     1      -0.289  11.531  20.939  0.00  0.00    +0.000 A 
ATOM      2  C   UNL     1       0.916  11.900  20.305  0.00  0.00    +0.000 A 
ATOM      3  N   UNL     1       0.845  13.079  19.697  0.00  0.00    +0.000 NA
ATOM      4  N   UNL     1      -0.360  13.584  20.083  0.00  0.00    +0.000 N 
ATOM      5  C   UNL     1      -0.683  14.946  19.787  0.00  0.00    +0.000 A 
ATOM      6  C   UNL     1      -0.161  15.517  18.631  0.00  0.00    +0.000 A 
ATOM      7  C   UNL     1      -0.510  16.829  18.325  0.00  0.00    +0.000 A 
ATOM      8  C   UNL     1      -1.325  17.542  19.200  0.00  0.00    +0.000 A 
ATOM      9  C   UNL     1      -1.795  16.911  20.345  0.00  0.00    +0.000 A 
ATOM     10  C   UNL     1      -2.628  17.646  21.351  0.00  0.00    +0.000 C 
ATOM     11  N   UNL     1      -1.506  15.622  20.634  0.00  0.00    +0.000 NA
ATOM     12  C   UNL     1      -1.134  12.631  20.756  0.00  0.00    +0.000 A 
ENDROOT
BRANCH  12  13
ATOM     13  C   UNL     1      -2.583  12.742  21.027  0.00  0.00    +0.000 A 
ATOM     14  C   UNL     1      -3.539  12.562  20.011  0.00  0.00    +0.000 A 
ATOM     15  C   UNL     1      -4.909  12.524  20.290  0.00  0.00    +0.000 A 
ATOM     16  C   UNL     1      -5.356  12.575  21.602  0.00  0.00    +0.000 A 
ATOM     17  N   UNL     1      -6.729  12.413  21.862  0.00  0.00    +0.000 NA
ATOM     18  C   UNL     1      -7.088  12.346  23.095  0.00  0.00    +0.000 A 
ATOM     19  N   UNL     1      -6.233  12.443  24.156  0.00  0.00    +0.000 N 
ATOM     20  C   UNL     1      -4.884  12.639  24.006  0.00  0.00    +0.000 A 
ATOM     21  O   UNL     1      -4.122  12.682  24.965  0.00  0.00    +0.000 OA
ATOM     22  C   UNL     1      -4.412  12.738  22.616  0.00  0.00    +0.000 A 
ATOM     23  C   UNL     1      -3.051  12.881  22.340  0.00  0.00    +0.000 A 
ATOM     24  H   UNL     1      -6.568  12.342  25.101  0.00  0.00    +0.000 HD
ENDBRANCH  12  13
BRANCH   1  26
ATOM     25  C   UNL     1      -0.624  10.255  23.113  0.00  0.00    +0.000 C 
ATOM     26  C   UNL     1      -0.586  10.214  21.595  0.00  0.00    +0.000 C 
ENDBRANCH   1  26
TORSDOF 2
ENDMDL
