MODEL 1
REMARK VINA RESULT:      -8.9      0.000      0.000
REMARK  Name = 
REMARK  11 active torsions:
REMARK  status: ('A' for Active; 'I' for Inactive)
REMARK    1  A    between atoms: C_1  and  C_2
REMARK    2  A    between atoms: C_2  and  C_3
REMARK    3  A    between atoms: C_3  and  C_4
REMARK    4  A    between atoms: C_4  and  C_5
REMARK    5  A    between atoms: C_7  and  C_8
REMARK    6  A    between atoms: C_15  and  C_16
REMARK    7  A    between atoms: N_22  and  C_23
REMARK    8  A    between atoms: C_23  and  C_24
REMARK    9  A    between atoms: C_24  and  C_25
REMARK   10  A    between atoms: C_28  and  S_29
REMARK   11  A    between atoms: S_29  and  N_30
REMARK                            x       y       z     vdW  Elec       q    Type
REMARK                         _______ _______ _______ _____ _____    ______ ____
ROOT
ATOM      1  C   UNL     1       5.600   6.397  17.268  0.00  0.00    +0.000 A 
ATOM      2  C   UNL     1       6.035   5.984  15.992  0.00  0.00    +0.000 A 
ATOM      3  C   UNL     1       5.590   4.820  15.386  0.00  0.00    +0.000 A 
ATOM      4  C   UNL     1       4.647   4.106  16.111  0.00  0.00    +0.000 A 
ATOM      5  C   UNL     1       4.180   4.487  17.399  0.00  0.00    +0.000 A 
ATOM      6  N   UNL     1       4.713   5.623  17.993  0.00  0.00    +0.000 N 
ENDROOT
BRANCH   3   7
ATOM      7  C   UNL     1       6.066   4.395  14.050  0.00  0.00    +0.000 A 
ATOM      8  C   UNL     1       7.241   4.940  13.480  0.00  0.00    +0.000 A 
ATOM      9  C   UNL     1       7.663   4.583  12.198  0.00  0.00    +0.000 A 
ATOM     10  C   UNL     1       6.941   3.660  11.452  0.00  0.00    +0.000 A 
ATOM     11  C   UNL     1       5.799   3.081  12.002  0.00  0.00    +0.000 A 
ATOM     12  C   UNL     1       5.369   3.447  13.278  0.00  0.00    +0.000 A 
ENDBRANCH   3   7
BRANCH   5  13
ATOM     13  C   UNL     1       3.162   3.612  18.058  0.00  0.00    +0.000 A 
ATOM     14  C   UNL     1       3.579   2.580  18.938  0.00  0.00    +0.000 A 
ATOM     15  C   UNL     1       2.676   1.723  19.579  0.00  0.00    +0.000 A 
ATOM     16  C   UNL     1       1.314   1.909  19.408  0.00  0.00    +0.000 A 
ATOM     17  C   UNL     1       0.866   2.885  18.529  0.00  0.00    +0.000 A 
ATOM     18  C   UNL     1       1.779   3.675  17.817  0.00  0.00    +0.000 A 
ENDBRANCH   5  13
BRANCH   1  19
ATOM     19  C   UNL     1       6.182   7.721  17.751  0.00  0.00    +0.000 C 
BRANCH  19  20
ATOM     20  C   UNL     1       7.654   7.875  17.354  0.00  0.00    +0.000 C 
BRANCH  20  22
ATOM     21  C   UNL     1       8.746   9.916  18.344  0.00  0.00    +0.000 C 
ATOM     22  C   UNL     1       8.494   8.424  18.505  0.00  0.00    +0.000 C 
ENDBRANCH  20  22
ENDBRANCH  19  20
ENDBRANCH   1  19
BRANCH   6  23
ATOM     23  C   UNL     1       4.333   6.089  19.373  0.00  0.00    +0.000 C 
BRANCH  23  24
ATOM     24  C   UNL     1       2.833   6.143  19.637  0.00  0.00    +0.000 C 
BRANCH  24  25
ATOM     25  C   UNL     1       2.210   7.514  19.419  0.00  0.00    +0.000 A 
ATOM     26  C   UNL     1       1.576   8.117  20.520  0.00  0.00    +0.000 A 
ATOM     27  C   UNL     1       0.904   9.330  20.386  0.00  0.00    +0.000 A 
ATOM     28  C   UNL     1       0.875   9.972  19.149  0.00  0.00    +0.000 A 
ATOM     29  C   UNL     1       1.550   9.429  18.055  0.00  0.00    +0.000 A 
ATOM     30  C   UNL     1       2.230   8.210  18.198  0.00  0.00    +0.000 A 
BRANCH  28  31
ATOM     31  S   UNL     1      -0.141  11.410  18.958  0.00  0.00    +0.000 S 
ATOM     32  O   UNL     1      -0.999  11.524  20.118  0.00  0.00    +0.000 OA
ATOM     33  O   UNL     1       0.682  12.499  18.494  0.00  0.00    +0.000 OA
BRANCH  31  34
ATOM     34  N   UNL     1      -1.130  10.982  17.678  0.00  0.00    +0.000 NA
ATOM     35  H   UNL     1      -0.666  10.274  17.105  0.00  0.00    +0.000 HD
ATOM     36  H   UNL     1      -2.038  10.676  18.031  0.00  0.00    +0.000 HD
ENDBRANCH  31  34
ENDBRANCH  28  31
ENDBRANCH  24  25
ENDBRANCH  23  24
ENDBRANCH   6  23
TORSDOF 10
ENDMDL
MODEL 2
REMARK VINA RESULT:      -8.8      0.624      1.130
REMARK  Name = 
REMARK  11 active torsions:
REMARK  status: ('A' for Active; 'I' for Inactive)
REMARK    1  A    between atoms: C_1  and  C_2
REMARK    2  A    between atoms: C_2  and  C_3
REMARK    3  A    between atoms: C_3  and  C_4
REMARK    4  A    between atoms: C_4  and  C_5
REMARK    5  A    between atoms: C_7  and  C_8
REMARK    6  A    between atoms: C_15  and  C_16
REMARK    7  A    between atoms: N_22  and  C_23
REMARK    8  A    between atoms: C_23  and  C_24
REMARK    9  A    between atoms: C_24  and  C_25
REMARK   10  A    between atoms: C_28  and  S_29
REMARK   11  A    between atoms: S_29  and  N_30
REMARK                            x       y       z     vdW  Elec       q    Type
REMARK                         _______ _______ _______ _____ _____    ______ ____
ROOT
ATOM      1  C   UNL     1       5.626   6.300  17.315  0.00  0.00    +0.000 A 
ATOM      2  C   UNL     1       6.046   5.904  16.029  0.00  0.00    +0.000 A 
ATOM      3  C   UNL     1       5.575   4.761  15.403  0.00  0.00    +0.000 A 
ATOM      4  C   UNL     1       4.622   4.051  16.120  0.00  0.00    +0.000 A 
ATOM      5  C   UNL     1       4.169   4.416  17.418  0.00  0.00    +0.000 A 
ATOM      6  N   UNL     1       4.727   5.529  18.030  0.00  0.00    +0.000 N 
ENDROOT
BRANCH   3   7
ATOM      7  C   UNL     1       6.035   4.352  14.056  0.00  0.00    +0.000 A 
ATOM      8  C   UNL     1       7.207   4.899  13.483  0.00  0.00    +0.000 A 
ATOM      9  C   UNL     1       7.614   4.559  12.191  0.00  0.00    +0.000 A 
ATOM     10  C   UNL     1       6.879   3.650  11.439  0.00  0.00    +0.000 A 
ATOM     11  C   UNL     1       5.740   3.069  11.992  0.00  0.00    +0.000 A 
ATOM     12  C   UNL     1       5.325   3.419  13.277  0.00  0.00    +0.000 A 
ENDBRANCH   3   7
BRANCH   5  13
ATOM     13  C   UNL     1       3.138   3.548  18.065  0.00  0.00    +0.000 A 
ATOM     14  C   UNL     1       1.760   3.802  17.845  0.00  0.00    +0.000 A 
ATOM     15  C   UNL     1       0.747   3.031  18.428  0.00  0.00    +0.000 A 
ATOM     16  C   UNL     1       1.080   1.934  19.206  0.00  0.00    +0.000 A 
ATOM     17  C   UNL     1       2.417   1.671  19.473  0.00  0.00    +0.000 A 
ATOM     18  C   UNL     1       3.422   2.506  18.964  0.00  0.00    +0.000 A 
ENDBRANCH   5  13
BRANCH   1  19
ATOM     19  C   UNL     1       6.236   7.603  17.820  0.00  0.00    +0.000 C 
BRANCH  19  20
ATOM     20  C   UNL     1       7.716   7.723  17.441  0.00  0.00    +0.000 C 
BRANCH  20  22
ATOM     21  C   UNL     1       8.646   9.945  18.173  0.00  0.00    +0.000 C 
ATOM     22  C   UNL     1       8.513   8.467  18.510  0.00  0.00    +0.000 C 
ENDBRANCH  20  22
ENDBRANCH  19  20
ENDBRANCH   1  19
BRANCH   6  23
ATOM     23  C   UNL     1       4.365   5.976  19.421  0.00  0.00    +0.000 C 
BRANCH  23  24
ATOM     24  C   UNL     1       2.867   6.038  19.700  0.00  0.00    +0.000 C 
BRANCH  24  25
ATOM     25  C   UNL     1       2.239   7.398  19.434  0.00  0.00    +0.000 A 
ATOM     26  C   UNL     1       1.595   8.032  20.512  0.00  0.00    +0.000 A 
ATOM     27  C   UNL     1       0.917   9.237  20.334  0.00  0.00    +0.000 A 
ATOM     28  C   UNL     1       0.894   9.839  19.078  0.00  0.00    +0.000 A 
ATOM     29  C   UNL     1       1.580   9.265  18.006  0.00  0.00    +0.000 A 
ATOM     30  C   UNL     1       2.264   8.055  18.192  0.00  0.00    +0.000 A 
BRANCH  28  31
ATOM     31  S   UNL     1      -0.128  11.265  18.834  0.00  0.00    +0.000 S 
ATOM     32  O   UNL     1       0.726  12.406  18.583  0.00  0.00    +0.000 OA
ATOM     33  O   UNL     1      -1.219  10.908  17.961  0.00  0.00    +0.000 OA
BRANCH  31  34
ATOM     34  N   UNL     1      -0.790  11.495  20.354  0.00  0.00    +0.000 NA
ATOM     35  H   UNL     1      -0.086  11.306  21.069  0.00  0.00    +0.000 HD
ATOM     36  H   UNL     1      -1.184  12.435  20.420  0.00  0.00    +0.000 HD
ENDBRANCH  31  34
ENDBRANCH  28  31
ENDBRANCH  24  25
ENDBRANCH  23  24
ENDBRANCH   6  23
TORSDOF 10
ENDMDL
MODEL 3
REMARK VINA RESULT:      -8.8      0.964      1.529
REMARK  Name = 
REMARK  11 active torsions:
REMARK  status: ('A' for Active; 'I' for Inactive)
REMARK    1  A    between atoms: C_1  and  C_2
REMARK    2  A    between atoms: C_2  and  C_3
REMARK    3  A    between atoms: C_3  and  C_4
REMARK    4  A    between atoms: C_4  and  C_5
REMARK    5  A    between atoms: C_7  and  C_8
REMARK    6  A    between atoms: C_15  and  C_16
REMARK    7  A    between atoms: N_22  and  C_23
REMARK    8  A    between atoms: C_23  and  C_24
REMARK    9  A    between atoms: C_24  and  C_25
REMARK   10  A    between atoms: C_28  and  S_29
REMARK   11  A    between atoms: S_29  and  N_30
REMARK                            x       y       z     vdW  Elec       q    Type
REMARK                         _______ _______ _______ _____ _____    ______ ____
ROOT
ATOM      1  C   UNL     1       6.060   5.783  17.638  0.00  0.00    +0.000 A 
ATOM      2  C   UNL     1       6.448   5.526  16.307  0.00  0.00    +0.000 A 
ATOM      3  C   UNL     1       5.773   4.638  15.486  0.00  0.00    +0.000 A 
ATOM      4  C   UNL     1       4.654   4.047  16.055  0.00  0.00    +0.000 A 
ATOM      5  C   UNL     1       4.227   4.279  17.392  0.00  0.00    +0.000 A 
ATOM      6  N   UNL     1       4.981   5.121  18.197  0.00  0.00    +0.000 N 
ENDROOT
BRANCH   3   7
ATOM      7  C   UNL     1       6.200   4.371  14.093  0.00  0.00    +0.000 A 
ATOM      8  C   UNL     1       5.527   3.424  13.287  0.00  0.00    +0.000 A 
ATOM      9  C   UNL     1       5.960   3.129  11.992  0.00  0.00    +0.000 A 
ATOM     10  C   UNL     1       7.063   3.781  11.455  0.00  0.00    +0.000 A 
ATOM     11  C   UNL     1       7.724   4.744  12.214  0.00  0.00    +0.000 A 
ATOM     12  C   UNL     1       7.300   5.030  13.512  0.00  0.00    +0.000 A 
ENDBRANCH   3   7
BRANCH   5  13
ATOM     13  C   UNL     1       3.002   3.564  17.865  0.00  0.00    +0.000 A 
ATOM     14  C   UNL     1       3.121   2.313  18.523  0.00  0.00    +0.000 A 
ATOM     15  C   UNL     1       2.012   1.592  18.982  0.00  0.00    +0.000 A 
ATOM     16  C   UNL     1       0.742   2.130  18.854  0.00  0.00    +0.000 A 
ATOM     17  C   UNL     1       0.579   3.336  18.186  0.00  0.00    +0.000 A 
ATOM     18  C   UNL     1       1.686   4.005  17.644  0.00  0.00    +0.000 A 
ENDBRANCH   5  13
BRANCH   1  19
ATOM     19  C   UNL     1       6.911   6.814  18.371  0.00  0.00    +0.000 C 
BRANCH  19  20
ATOM     20  C   UNL     1       7.806   7.602  17.409  0.00  0.00    +0.000 C 
BRANCH  20  22
ATOM     21  C   UNL     1       8.832   9.575  18.589  0.00  0.00    +0.000 C 
ATOM     22  C   UNL     1       7.720   9.106  17.661  0.00  0.00    +0.000 C 
ENDBRANCH  20  22
ENDBRANCH  19  20
ENDBRANCH   1  19
BRANCH   6  23
ATOM     23  C   UNL     1       4.655   5.396  19.640  0.00  0.00    +0.000 C 
BRANCH  23  24
ATOM     24  C   UNL     1       3.166   5.399  19.967  0.00  0.00    +0.000 C 
BRANCH  24  25
ATOM     25  C   UNL     1       2.486   6.746  19.765  0.00  0.00    +0.000 A 
ATOM     26  C   UNL     1       2.624   7.354  18.504  0.00  0.00    +0.000 A 
ATOM     27  C   UNL     1       2.109   8.626  18.261  0.00  0.00    +0.000 A 
ATOM     28  C   UNL     1       1.426   9.301  19.272  0.00  0.00    +0.000 A 
ATOM     29  C   UNL     1       1.217   8.694  20.511  0.00  0.00    +0.000 A 
ATOM     30  C   UNL     1       1.734   7.412  20.748  0.00  0.00    +0.000 A 
BRANCH  28  31
ATOM     31  S   UNL     1       0.948  10.984  19.001  0.00  0.00    +0.000 S 
ATOM     32  O   UNL     1      -0.366  10.999  18.396  0.00  0.00    +0.000 OA
ATOM     33  O   UNL     1       1.266  11.750  20.181  0.00  0.00    +0.000 OA
BRANCH  31  34
ATOM     34  N   UNL     1       2.021  11.475  17.814  0.00  0.00    +0.000 NA
ATOM     35  H   UNL     1       2.838  10.861  17.812  0.00  0.00    +0.000 HD
ATOM     36  H   UNL     1       1.545  11.507  16.911  0.00  0.00    +0.000 HD
ENDBRANCH  31  34
ENDBRANCH  28  31
ENDBRANCH  24  25
ENDBRANCH  23  24
ENDBRANCH   6  23
TORSDOF 10
ENDMDL
MODEL 4
REMARK VINA RESULT:      -8.7      0.273      1.192
REMARK  Name = 
REMARK  11 active torsions:
REMARK  status: ('A' for Active; 'I' for Inactive)
REMARK    1  A    between atoms: C_1  and  C_2
REMARK    2  A    between atoms: C_2  and  C_3
REMARK    3  A    between atoms: C_3  and  C_4
REMARK    4  A    between atoms: C_4  and  C_5
REMARK    5  A    between atoms: C_7  and  C_8
REMARK    6  A    between atoms: C_15  and  C_16
REMARK    7  A    between atoms: N_22  and  C_23
REMARK    8  A    between atoms: C_23  and  C_24
REMARK    9  A    between atoms: C_24  and  C_25
REMARK   10  A    between atoms: C_28  and  S_29
REMARK   11  A    between atoms: S_29  and  N_30
REMARK                            x       y       z     vdW  Elec       q    Type
REMARK                         _______ _______ _______ _____ _____    ______ ____
ROOT
ATOM      1  C   UNL     1       5.703   6.272  17.203  0.00  0.00    +0.000 A 
ATOM      2  C   UNL     1       6.081   5.869  15.906  0.00  0.00    +0.000 A 
ATOM      3  C   UNL     1       5.568   4.739  15.291  0.00  0.00    +0.000 A 
ATOM      4  C   UNL     1       4.616   4.051  16.029  0.00  0.00    +0.000 A 
ATOM      5  C   UNL     1       4.205   4.422  17.339  0.00  0.00    +0.000 A 
ATOM      6  N   UNL     1       4.804   5.521  17.939  0.00  0.00    +0.000 N 
ENDROOT
BRANCH   3   7
ATOM      7  C   UNL     1       5.984   4.324  13.932  0.00  0.00    +0.000 A 
ATOM      8  C   UNL     1       5.235   3.379  13.190  0.00  0.00    +0.000 A 
ATOM      9  C   UNL     1       5.654   2.943  11.931  0.00  0.00    +0.000 A 
ATOM     10  C   UNL     1       6.818   3.448  11.365  0.00  0.00    +0.000 A 
ATOM     11  C   UNL     1       7.556   4.405  12.057  0.00  0.00    +0.000 A 
ATOM     12  C   UNL     1       7.146   4.831  13.321  0.00  0.00    +0.000 A 
ENDBRANCH   3   7
BRANCH   5  13
ATOM     13  C   UNL     1       3.170   3.578  18.010  0.00  0.00    +0.000 A 
ATOM     14  C   UNL     1       1.792   3.856  17.813  0.00  0.00    +0.000 A 
ATOM     15  C   UNL     1       0.776   3.107  18.419  0.00  0.00    +0.000 A 
ATOM     16  C   UNL     1       1.104   2.009  19.197  0.00  0.00    +0.000 A 
ATOM     17  C   UNL     1       2.440   1.723  19.442  0.00  0.00    +0.000 A 
ATOM     18  C   UNL     1       3.451   2.536  18.910  0.00  0.00    +0.000 A 
ENDBRANCH   5  13
BRANCH   1  19
ATOM     19  C   UNL     1       6.356   7.558  17.696  0.00  0.00    +0.000 C 
BRANCH  19  20
ATOM     20  C   UNL     1       7.881   7.428  17.777  0.00  0.00    +0.000 C 
BRANCH  20  22
ATOM     21  C   UNL     1       8.225   9.918  17.918  0.00  0.00    +0.000 C 
ATOM     22  C   UNL     1       8.503   8.573  18.574  0.00  0.00    +0.000 C 
ENDBRANCH  20  22
ENDBRANCH  19  20
ENDBRANCH   1  19
BRANCH   6  23
ATOM     23  C   UNL     1       4.487   5.972  19.340  0.00  0.00    +0.000 C 
BRANCH  23  24
ATOM     24  C   UNL     1       3.002   5.996  19.681  0.00  0.00    +0.000 C 
BRANCH  24  25
ATOM     25  C   UNL     1       2.324   7.334  19.426  0.00  0.00    +0.000 A 
ATOM     26  C   UNL     1       1.666   7.940  20.511  0.00  0.00    +0.000 A 
ATOM     27  C   UNL     1       0.946   9.122  20.345  0.00  0.00    +0.000 A 
ATOM     28  C   UNL     1       0.892   9.729  19.092  0.00  0.00    +0.000 A 
ATOM     29  C   UNL     1       1.590   9.185  18.012  0.00  0.00    +0.000 A 
ATOM     30  C   UNL     1       2.317   7.998  18.187  0.00  0.00    +0.000 A 
BRANCH  28  31
ATOM     31  S   UNL     1      -0.180  11.119  18.863  0.00  0.00    +0.000 S 
ATOM     32  O   UNL     1      -1.141  11.143  19.944  0.00  0.00    +0.000 OA
ATOM     33  O   UNL     1       0.620  12.268  18.513  0.00  0.00    +0.000 OA
BRANCH  31  34
ATOM     34  N   UNL     1      -1.030  10.694  17.485  0.00  0.00    +0.000 NA
ATOM     35  H   UNL     1      -1.286  11.535  16.964  0.00  0.00    +0.000 HD
ATOM     36  H   UNL     1      -0.481  10.034  16.931  0.00  0.00    +0.000 HD
ENDBRANCH  31  34
ENDBRANCH  28  31
ENDBRANCH  24  25
ENDBRANCH  23  24
ENDBRANCH   6  23
TORSDOF 10
ENDMDL
MODEL 5
REMARK VINA RESULT:      -8.7      0.752      1.623
REMARK  Name = 
REMARK  11 active torsions:
REMARK  status: ('A' for Active; 'I' for Inactive)
REMARK    1  A    between atoms: C_1  and  C_2
REMARK    2  A    between atoms: C_2  and  C_3
REMARK    3  A    between atoms: C_3  and  C_4
REMARK    4  A    between atoms: C_4  and  C_5
REMARK    5  A    between atoms: C_7  and  C_8
REMARK    6  A    between atoms: C_15  and  C_16
REMARK    7  A    between atoms: N_22  and  C_23
REMARK    8  A    between atoms: C_23  and  C_24
REMARK    9  A    between atoms: C_24  and  C_25
REMARK   10  A    between atoms: C_28  and  S_29
REMARK   11  A    between atoms: S_29  and  N_30
REMARK                            x       y       z     vdW  Elec       q    Type
REMARK                         _______ _______ _______ _____ _____    ______ ____
ROOT
ATOM      1  C   UNL     1       5.538   6.392  17.253  0.00  0.00    +0.000 A 
ATOM      2  C   UNL     1       5.962   5.995  15.968  0.00  0.00    +0.000 A 
ATOM      3  C   UNL     1       5.532   4.825  15.363  0.00  0.00    +0.000 A 
ATOM      4  C   UNL     1       4.616   4.087  16.099  0.00  0.00    +0.000 A 
ATOM      5  C   UNL     1       4.161   4.451  17.397  0.00  0.00    +0.000 A 
ATOM      6  N   UNL     1       4.679   5.595  17.988  0.00  0.00    +0.000 N 
ENDROOT
BRANCH   3   7
ATOM      7  C   UNL     1       5.996   4.417  14.018  0.00  0.00    +0.000 A 
ATOM      8  C   UNL     1       5.285   3.460  13.254  0.00  0.00    +0.000 A 
ATOM      9  C   UNL     1       5.748   3.032  12.009  0.00  0.00    +0.000 A 
ATOM     10  C   UNL     1       6.920   3.555  11.477  0.00  0.00    +0.000 A 
ATOM     11  C   UNL     1       7.622   4.524  12.191  0.00  0.00    +0.000 A 
ATOM     12  C   UNL     1       7.167   4.943  13.442  0.00  0.00    +0.000 A 
ENDBRANCH   3   7
BRANCH   5  13
ATOM     13  C   UNL     1       3.173   3.551  18.066  0.00  0.00    +0.000 A 
ATOM     14  C   UNL     1       1.782   3.757  17.870  0.00  0.00    +0.000 A 
ATOM     15  C   UNL     1       0.807   2.954  18.474  0.00  0.00    +0.000 A 
ATOM     16  C   UNL     1       1.193   1.873  19.250  0.00  0.00    +0.000 A 
ATOM     17  C   UNL     1       2.543   1.658  19.494  0.00  0.00    +0.000 A 
ATOM     18  C   UNL     1       3.509   2.524  18.964  0.00  0.00    +0.000 A 
ENDBRANCH   5  13
BRANCH   1  19
ATOM     19  C   UNL     1       6.099   7.726  17.734  0.00  0.00    +0.000 C 
BRANCH  19  20
ATOM     20  C   UNL     1       7.631   7.726  17.753  0.00  0.00    +0.000 C 
BRANCH  20  22
ATOM     21  C   UNL     1       8.949   9.524  18.923  0.00  0.00    +0.000 C 
ATOM     22  C   UNL     1       8.196   9.142  17.656  0.00  0.00    +0.000 C 
ENDBRANCH  20  22
ENDBRANCH  19  20
ENDBRANCH   1  19
BRANCH   6  23
ATOM     23  C   UNL     1       4.311   6.047  19.376  0.00  0.00    +0.000 C 
BRANCH  23  24
ATOM     24  C   UNL     1       2.814   6.068  19.664  0.00  0.00    +0.000 C 
BRANCH  24  25
ATOM     25  C   UNL     1       2.174   7.443  19.539  0.00  0.00    +0.000 A 
ATOM     26  C   UNL     1       2.288   8.096  18.298  0.00  0.00    +0.000 A 
ATOM     27  C   UNL     1       1.809   9.393  18.124  0.00  0.00    +0.000 A 
ATOM     28  C   UNL     1       1.186  10.049  19.184  0.00  0.00    +0.000 A 
ATOM     29  C   UNL     1       1.002   9.401  20.407  0.00  0.00    +0.000 A 
ATOM     30  C   UNL     1       1.482   8.093  20.574  0.00  0.00    +0.000 A 
BRANCH  28  31
ATOM     31  S   UNL     1       0.758  11.757  18.997  0.00  0.00    +0.000 S 
ATOM     32  O   UNL     1      -0.553  11.839  18.388  0.00  0.00    +0.000 OA
ATOM     33  O   UNL     1       1.090  12.454  20.215  0.00  0.00    +0.000 OA
BRANCH  31  34
ATOM     34  N   UNL     1       1.850  12.276  17.839  0.00  0.00    +0.000 NA
ATOM     35  H   UNL     1       1.365  12.432  16.954  0.00  0.00    +0.000 HD
ATOM     36  H   UNL     1       2.342  13.104  18.176  0.00  0.00    +0.000 HD
ENDBRANCH  31  34
ENDBRANCH  28  31
ENDBRANCH  24  25
ENDBRANCH  23  24
ENDBRANCH   6  23
TORSDOF 10
ENDMDL
MODEL 6
REMARK VINA RESULT:      -8.7      0.523      1.117
REMARK  Name = 
REMARK  11 active torsions:
REMARK  status: ('A' for Active; 'I' for Inactive)
REMARK    1  A    between atoms: C_1  and  C_2
REMARK    2  A    between atoms: C_2  and  C_3
REMARK    3  A    between atoms: C_3  and  C_4
REMARK    4  A    between atoms: C_4  and  C_5
REMARK    5  A    between atoms: C_7  and  C_8
REMARK    6  A    between atoms: C_15  and  C_16
REMARK    7  A    between atoms: N_22  and  C_23
REMARK    8  A    between atoms: C_23  and  C_24
REMARK    9  A    between atoms: C_24  and  C_25
REMARK   10  A    between atoms: C_28  and  S_29
REMARK   11  A    between atoms: S_29  and  N_30
REMARK                            x       y       z     vdW  Elec       q    Type
REMARK                         _______ _______ _______ _____ _____    ______ ____
ROOT
ATOM      1  C   UNL     1       5.489   6.345  17.177  0.00  0.00    +0.000 A 
ATOM      2  C   UNL     1       5.904   5.913  15.901  0.00  0.00    +0.000 A 
ATOM      3  C   UNL     1       5.458   4.735  15.324  0.00  0.00    +0.000 A 
ATOM      4  C   UNL     1       4.534   4.026  16.078  0.00  0.00    +0.000 A 
ATOM      5  C   UNL     1       4.086   4.426  17.367  0.00  0.00    +0.000 A 
ATOM      6  N   UNL     1       4.620   5.576  17.931  0.00  0.00    +0.000 N 
ENDROOT
BRANCH   3   7
ATOM      7  C   UNL     1       5.914   4.290  13.987  0.00  0.00    +0.000 A 
ATOM      8  C   UNL     1       7.142   4.734  13.444  0.00  0.00    +0.000 A 
ATOM      9  C   UNL     1       7.550   4.361  12.161  0.00  0.00    +0.000 A 
ATOM     10  C   UNL     1       6.758   3.520  11.389  0.00  0.00    +0.000 A 
ATOM     11  C   UNL     1       5.560   3.039  11.913  0.00  0.00    +0.000 A 
ATOM     12  C   UNL     1       5.146   3.422  13.189  0.00  0.00    +0.000 A 
ENDBRANCH   3   7
BRANCH   5  13
ATOM     13  C   UNL     1       3.087   3.555  18.058  0.00  0.00    +0.000 A 
ATOM     14  C   UNL     1       1.699   3.774  17.859  0.00  0.00    +0.000 A 
ATOM     15  C   UNL     1       0.715   2.998  18.483  0.00  0.00    +0.000 A 
ATOM     16  C   UNL     1       1.087   1.930  19.284  0.00  0.00    +0.000 A 
ATOM     17  C   UNL     1       2.434   1.704  19.532  0.00  0.00    +0.000 A 
ATOM     18  C   UNL     1       3.411   2.545  18.980  0.00  0.00    +0.000 A 
ENDBRANCH   5  13
BRANCH   1  19
ATOM     19  C   UNL     1       6.068   7.681  17.627  0.00  0.00    +0.000 C 
BRANCH  19  20
ATOM     20  C   UNL     1       7.591   7.725  17.465  0.00  0.00    +0.000 C 
BRANCH  20  22
ATOM     21  C   UNL     1       8.037   5.875  19.113  0.00  0.00    +0.000 C 
ATOM     22  C   UNL     1       8.307   7.329  18.755  0.00  0.00    +0.000 C 
ENDBRANCH  20  22
ENDBRANCH  19  20
ENDBRANCH   1  19
BRANCH   6  23
ATOM     23  C   UNL     1       4.261   6.064  19.309  0.00  0.00    +0.000 C 
BRANCH  23  24
ATOM     24  C   UNL     1       2.764   6.162  19.581  0.00  0.00    +0.000 C 
BRANCH  24  25
ATOM     25  C   UNL     1       2.182   7.552  19.368  0.00  0.00    +0.000 A 
ATOM     26  C   UNL     1       1.549   8.160  20.468  0.00  0.00    +0.000 A 
ATOM     27  C   UNL     1       0.912   9.393  20.337  0.00  0.00    +0.000 A 
ATOM     28  C   UNL     1       0.918  10.049  19.107  0.00  0.00    +0.000 A 
ATOM     29  C   UNL     1       1.595   9.499  18.017  0.00  0.00    +0.000 A 
ATOM     30  C   UNL     1       2.238   8.261  18.156  0.00  0.00    +0.000 A 
BRANCH  28  31
ATOM     31  S   UNL     1      -0.055  11.516  18.918  0.00  0.00    +0.000 S 
ATOM     32  O   UNL     1      -0.915  11.650  20.074  0.00  0.00    +0.000 OA
ATOM     33  O   UNL     1       0.801  12.583  18.462  0.00  0.00    +0.000 OA
BRANCH  31  34
ATOM     34  N   UNL     1      -1.050  11.122  17.631  0.00  0.00    +0.000 NA
ATOM     35  H   UNL     1      -0.799  11.685  16.817  0.00  0.00    +0.000 HD
ATOM     36  H   UNL     1      -1.002  10.118  17.452  0.00  0.00    +0.000 HD
ENDBRANCH  31  34
ENDBRANCH  28  31
ENDBRANCH  24  25
ENDBRANCH  23  24
ENDBRANCH   6  23
TORSDOF 10
ENDMDL
MODEL 7
REMARK VINA RESULT:      -8.7      0.791      1.548
REMARK  Name = 
REMARK  11 active torsions:
REMARK  status: ('A' for Active; 'I' for Inactive)
REMARK    1  A    between atoms: C_1  and  C_2
REMARK    2  A    between atoms: C_2  and  C_3
REMARK    3  A    between atoms: C_3  and  C_4
REMARK    4  A    between atoms: C_4  and  C_5
REMARK    5  A    between atoms: C_7  and  C_8
REMARK    6  A    between atoms: C_15  and  C_16
REMARK    7  A    between atoms: N_22  and  C_23
REMARK    8  A    between atoms: C_23  and  C_24
REMARK    9  A    between atoms: C_24  and  C_25
REMARK   10  A    between atoms: C_28  and  S_29
REMARK   11  A    between atoms: S_29  and  N_30
REMARK                            x       y       z     vdW  Elec       q    Type
REMARK                         _______ _______ _______ _____ _____    ______ ____
ROOT
ATOM      1  C   UNL     1       5.520   6.347  17.140  0.00  0.00    +0.000 A 
ATOM      2  C   UNL     1       5.914   5.925  15.854  0.00  0.00    +0.000 A 
ATOM      3  C   UNL     1       5.458   4.751  15.276  0.00  0.00    +0.000 A 
ATOM      4  C   UNL     1       4.548   4.036  16.040  0.00  0.00    +0.000 A 
ATOM      5  C   UNL     1       4.122   4.426  17.340  0.00  0.00    +0.000 A 
ATOM      6  N   UNL     1       4.664   5.573  17.903  0.00  0.00    +0.000 N 
ENDROOT
BRANCH   3   7
ATOM      7  C   UNL     1       5.891   4.316  13.928  0.00  0.00    +0.000 A 
ATOM      8  C   UNL     1       5.108   3.426  13.157  0.00  0.00    +0.000 A 
ATOM      9  C   UNL     1       5.538   2.970  11.909  0.00  0.00    +0.000 A 
ATOM     10  C   UNL     1       6.750   3.400  11.383  0.00  0.00    +0.000 A 
ATOM     11  C   UNL     1       7.526   4.305  12.106  0.00  0.00    +0.000 A 
ATOM     12  C   UNL     1       7.103   4.750  13.359  0.00  0.00    +0.000 A 
ENDBRANCH   3   7
BRANCH   5  13
ATOM     13  C   UNL     1       3.135   3.549  18.042  0.00  0.00    +0.000 A 
ATOM     14  C   UNL     1       1.744   3.756  17.853  0.00  0.00    +0.000 A 
ATOM     15  C   UNL     1       0.771   2.974  18.488  0.00  0.00    +0.000 A 
ATOM     16  C   UNL     1       1.159   1.913  19.289  0.00  0.00    +0.000 A 
ATOM     17  C   UNL     1       2.510   1.698  19.527  0.00  0.00    +0.000 A 
ATOM     18  C   UNL     1       3.475   2.545  18.965  0.00  0.00    +0.000 A 
ENDBRANCH   5  13
BRANCH   1  19
ATOM     19  C   UNL     1       6.105   7.681  17.590  0.00  0.00    +0.000 C 
BRANCH  19  20
ATOM     20  C   UNL     1       7.634   7.698  17.477  0.00  0.00    +0.000 C 
BRANCH  20  22
ATOM     21  C   UNL     1       8.051   5.845  19.129  0.00  0.00    +0.000 C 
ATOM     22  C   UNL     1       8.301   7.309  18.795  0.00  0.00    +0.000 C 
ENDBRANCH  20  22
ENDBRANCH  19  20
ENDBRANCH   1  19
BRANCH   6  23
ATOM     23  C   UNL     1       4.329   6.051  19.291  0.00  0.00    +0.000 C 
BRANCH  23  24
ATOM     24  C   UNL     1       2.838   6.113  19.600  0.00  0.00    +0.000 C 
BRANCH  24  25
ATOM     25  C   UNL     1       2.211   7.481  19.374  0.00  0.00    +0.000 A 
ATOM     26  C   UNL     1       1.597   8.099  20.478  0.00  0.00    +0.000 A 
ATOM     27  C   UNL     1       0.922   9.310  20.340  0.00  0.00    +0.000 A 
ATOM     28  C   UNL     1       0.871   9.936  19.095  0.00  0.00    +0.000 A 
ATOM     29  C   UNL     1       1.528   9.378  17.996  0.00  0.00    +0.000 A 
ATOM     30  C   UNL     1       2.209   8.161  18.144  0.00  0.00    +0.000 A 
BRANCH  28  31
ATOM     31  S   UNL     1      -0.148  11.371  18.903  0.00  0.00    +0.000 S 
ATOM     32  O   UNL     1      -1.200  11.065  17.958  0.00  0.00    +0.000 OA
ATOM     33  O   UNL     1      -0.416  11.926  20.207  0.00  0.00    +0.000 OA
BRANCH  31  34
ATOM     34  N   UNL     1       0.883  12.441  18.132  0.00  0.00    +0.000 NA
ATOM     35  H   UNL     1       1.754  11.967  17.889  0.00  0.00    +0.000 HD
ATOM     36  H   UNL     1       0.413  12.851  17.324  0.00  0.00    +0.000 HD
ENDBRANCH  31  34
ENDBRANCH  28  31
ENDBRANCH  24  25
ENDBRANCH  23  24
ENDBRANCH   6  23
TORSDOF 10
ENDMDL
MODEL 8
REMARK VINA RESULT:      -8.6      0.972      1.071
REMARK  Name = 
REMARK  11 active torsions:
REMARK  status: ('A' for Active; 'I' for Inactive)
REMARK    1  A    between atoms: C_1  and  C_2
REMARK    2  A    between atoms: C_2  and  C_3
REMARK    3  A    between atoms: C_3  and  C_4
REMARK    4  A    between atoms: C_4  and  C_5
REMARK    5  A    between atoms: C_7  and  C_8
REMARK    6  A    between atoms: C_15  and  C_16
REMARK    7  A    between atoms: N_22  and  C_23
REMARK    8  A    between atoms: C_23  and  C_24
REMARK    9  A    between atoms: C_24  and  C_25
REMARK   10  A    between atoms: C_28  and  S_29
REMARK   11  A    between atoms: S_29  and  N_30
REMARK                            x       y       z     vdW  Elec       q    Type
REMARK                         _______ _______ _______ _____ _____    ______ ____
ROOT
ATOM      1  C   UNL     1       6.343   5.707  17.605  0.00  0.00    +0.000 A 
ATOM      2  C   UNL     1       6.716   5.458  16.269  0.00  0.00    +0.000 A 
ATOM      3  C   UNL     1       5.998   4.619  15.431  0.00  0.00    +0.000 A 
ATOM      4  C   UNL     1       4.854   4.070  15.993  0.00  0.00    +0.000 A 
ATOM      5  C   UNL     1       4.441   4.296  17.335  0.00  0.00    +0.000 A 
ATOM      6  N   UNL     1       5.235   5.086  18.153  0.00  0.00    +0.000 N 
ENDROOT
BRANCH   3   7
ATOM      7  C   UNL     1       6.410   4.360  14.033  0.00  0.00    +0.000 A 
ATOM      8  C   UNL     1       7.425   5.126  13.412  0.00  0.00    +0.000 A 
ATOM      9  C   UNL     1       7.778   4.922  12.076  0.00  0.00    +0.000 A 
ATOM     10  C   UNL     1       7.148   3.937  11.326  0.00  0.00    +0.000 A 
ATOM     11  C   UNL     1       6.169   3.144  11.922  0.00  0.00    +0.000 A 
ATOM     12  C   UNL     1       5.806   3.357  13.252  0.00  0.00    +0.000 A 
ENDBRANCH   3   7
BRANCH   5  13
ATOM     13  C   UNL     1       3.184   3.631  17.797  0.00  0.00    +0.000 A 
ATOM     14  C   UNL     1       3.248   2.377  18.459  0.00  0.00    +0.000 A 
ATOM     15  C   UNL     1       2.107   1.701  18.909  0.00  0.00    +0.000 A 
ATOM     16  C   UNL     1       0.861   2.288  18.766  0.00  0.00    +0.000 A 
ATOM     17  C   UNL     1       0.751   3.497  18.093  0.00  0.00    +0.000 A 
ATOM     18  C   UNL     1       1.888   4.121  17.561  0.00  0.00    +0.000 A 
ENDBRANCH   5  13
BRANCH   1  19
ATOM     19  C   UNL     1       7.242   6.682  18.356  0.00  0.00    +0.000 C 
BRANCH  19  20
ATOM     20  C   UNL     1       7.515   7.950  17.539  0.00  0.00    +0.000 C 
BRANCH  20  22
ATOM     21  C   UNL     1       8.303  10.328  17.791  0.00  0.00    +0.000 C 
ATOM     22  C   UNL     1       8.477   8.891  18.262  0.00  0.00    +0.000 C 
ENDBRANCH  20  22
ENDBRANCH  19  20
ENDBRANCH   1  19
BRANCH   6  23
ATOM     23  C   UNL     1       4.924   5.348  19.603  0.00  0.00    +0.000 C 
BRANCH  23  24
ATOM     24  C   UNL     1       3.438   5.409  19.935  0.00  0.00    +0.000 C 
BRANCH  24  25
ATOM     25  C   UNL     1       2.783   6.746  19.619  0.00  0.00    +0.000 A 
ATOM     26  C   UNL     1       1.978   7.321  20.619  0.00  0.00    +0.000 A 
ATOM     27  C   UNL     1       1.271   8.498  20.382  0.00  0.00    +0.000 A 
ATOM     28  C   UNL     1       1.377   9.132  19.146  0.00  0.00    +0.000 A 
ATOM     29  C   UNL     1       2.219   8.619  18.158  0.00  0.00    +0.000 A 
ATOM     30  C   UNL     1       2.932   7.436  18.405  0.00  0.00    +0.000 A 
BRANCH  28  31
ATOM     31  S   UNL     1       0.326  10.516  18.804  0.00  0.00    +0.000 S 
ATOM     32  O   UNL     1      -0.570  10.159  17.726  0.00  0.00    +0.000 OA
ATOM     33  O   UNL     1      -0.146  11.058  20.055  0.00  0.00    +0.000 OA
BRANCH  31  34
ATOM     34  N   UNL     1       1.400  11.635  18.175  0.00  0.00    +0.000 NA
ATOM     35  H   UNL     1       2.354  11.382  18.438  0.00  0.00    +0.000 HD
ATOM     36  H   UNL     1       1.271  11.708  17.165  0.00  0.00    +0.000 HD
ENDBRANCH  31  34
ENDBRANCH  28  31
ENDBRANCH  24  25
ENDBRANCH  23  24
ENDBRANCH   6  23
TORSDOF 10
ENDMDL
MODEL 9
REMARK VINA RESULT:      -8.6      0.732      1.376
REMARK  Name = 
REMARK  11 active torsions:
REMARK  status: ('A' for Active; 'I' for Inactive)
REMARK    1  A    between atoms: C_1  and  C_2
REMARK    2  A    between atoms: C_2  and  C_3
REMARK    3  A    between atoms: C_3  and  C_4
REMARK    4  A    between atoms: C_4  and  C_5
REMARK    5  A    between atoms: C_7  and  C_8
REMARK    6  A    between atoms: C_15  and  C_16
REMARK    7  A    between atoms: N_22  and  C_23
REMARK    8  A    between atoms: C_23  and  C_24
REMARK    9  A    between atoms: C_24  and  C_25
REMARK   10  A    between atoms: C_28  and  S_29
REMARK   11  A    between atoms: S_29  and  N_30
REMARK                            x       y       z     vdW  Elec       q    Type
REMARK                         _______ _______ _______ _____ _____    ______ ____
ROOT
ATOM      1  C   UNL     1       6.081   5.867  17.617  0.00  0.00    +0.000 A 
ATOM      2  C   UNL     1       6.474   5.590  16.292  0.00  0.00    +0.000 A 
ATOM      3  C   UNL     1       5.830   4.657  15.496  0.00  0.00    +0.000 A 
ATOM      4  C   UNL     1       4.736   4.040  16.085  0.00  0.00    +0.000 A 
ATOM      5  C   UNL     1       4.304   4.290  17.416  0.00  0.00    +0.000 A 
ATOM      6  N   UNL     1       5.028   5.180  18.196  0.00  0.00    +0.000 N 
ENDROOT
BRANCH   3   7
ATOM      7  C   UNL     1       6.263   4.370  14.109  0.00  0.00    +0.000 A 
ATOM      8  C   UNL     1       7.358   5.050  13.526  0.00  0.00    +0.000 A 
ATOM      9  C   UNL     1       7.736   4.823  12.201  0.00  0.00    +0.000 A 
ATOM     10  C   UNL     1       7.049   3.899  11.423  0.00  0.00    +0.000 A 
ATOM     11  C   UNL     1       5.989   3.189  11.982  0.00  0.00    +0.000 A 
ATOM     12  C   UNL     1       5.602   3.425  13.302  0.00  0.00    +0.000 A 
ENDBRANCH   3   7
BRANCH   5  13
ATOM     13  C   UNL     1       3.107   3.543  17.912  0.00  0.00    +0.000 A 
ATOM     14  C   UNL     1       1.804   4.049  17.663  0.00  0.00    +0.000 A 
ATOM     15  C   UNL     1       0.645   3.401  18.107  0.00  0.00    +0.000 A 
ATOM     16  C   UNL     1       0.747   2.186  18.765  0.00  0.00    +0.000 A 
ATOM     17  C   UNL     1       2.004   1.674  19.058  0.00  0.00    +0.000 A 
ATOM     18  C   UNL     1       3.161   2.378  18.695  0.00  0.00    +0.000 A 
ENDBRANCH   5  13
BRANCH   1  19
ATOM     19  C   UNL     1       6.895   6.947  18.321  0.00  0.00    +0.000 C 
BRANCH  19  20
ATOM     20  C   UNL     1       7.786   7.717  17.340  0.00  0.00    +0.000 C 
BRANCH  20  22
ATOM     21  C   UNL     1       8.902   9.457  18.777  0.00  0.00    +0.000 C 
ATOM     22  C   UNL     1       7.863   9.201  17.695  0.00  0.00    +0.000 C 
ENDBRANCH  20  22
ENDBRANCH  19  20
ENDBRANCH   1  19
BRANCH   6  23
ATOM     23  C   UNL     1       4.696   5.480  19.634  0.00  0.00    +0.000 C 
BRANCH  23  24
ATOM     24  C   UNL     1       3.207   5.460  19.960  0.00  0.00    +0.000 C 
BRANCH  24  25
ATOM     25  C   UNL     1       2.504   6.792  19.744  0.00  0.00    +0.000 A 
ATOM     26  C   UNL     1       2.676   7.417  18.496  0.00  0.00    +0.000 A 
ATOM     27  C   UNL     1       2.141   8.679  18.244  0.00  0.00    +0.000 A 
ATOM     28  C   UNL     1       1.403   9.327  19.233  0.00  0.00    +0.000 A 
ATOM     29  C   UNL     1       1.161   8.703  20.458  0.00  0.00    +0.000 A 
ATOM     30  C   UNL     1       1.698   7.430  20.703  0.00  0.00    +0.000 A 
BRANCH  28  31
ATOM     31  S   UNL     1       0.896  11.001  18.959  0.00  0.00    +0.000 S 
ATOM     32  O   UNL     1       0.334  11.519  20.188  0.00  0.00    +0.000 OA
ATOM     33  O   UNL     1       1.939  11.688  18.236  0.00  0.00    +0.000 OA
BRANCH  31  34
ATOM     34  N   UNL     1      -0.381  10.820  17.894  0.00  0.00    +0.000 NA
ATOM     35  H   UNL     1      -0.167  10.081  17.221  0.00  0.00    +0.000 HD
ATOM     36  H   UNL     1      -1.243  10.648  18.414  0.00  0.00    +0.000 HD
ENDBRANCH  31  34
ENDBRANCH  28  31
ENDBRANCH  24  25
ENDBRANCH  23  24
ENDBRANCH   6  23
TORSDOF 10
ENDMDL
