MODEL 1
REMARK VINA RESULT:      -8.3      0.000      0.000
REMARK  Name = 
REMARK  9 active torsions:
REMARK  status: ('A' for Active; 'I' for Inactive)
REMARK    1  A    between atoms: C_1  and  O_2
REMARK    2  A    between atoms: O_2  and  C_3
REMARK    3  A    between atoms: C_3  and  C_5
REMARK    4  A    between atoms: C_7  and  C_8
REMARK    5  A    between atoms: C_8  and  C_9
REMARK    6  A    between atoms: C_8  and  C_10
REMARK    7  A    between atoms: C_8  and  C_11
REMARK    8  A    between atoms: C_13  and  N_14
REMARK    9  A    between atoms: N_17  and  C_18
REMARK                            x       y       z     vdW  Elec       q    Type
REMARK                         _______ _______ _______ _____ _____    ______ ____
ROOT
ATOM      1  N   UNL     1       2.654   7.689  17.708  0.00  0.00    +0.000 N 
ATOM      2  C   UNL     1       1.901   8.530  18.519  0.00  0.00    +0.000 C 
ATOM      3  O   UNL     1       1.675   8.303  19.703  0.00  0.00    +0.000 OA
ATOM      4  N   UNL     1       1.415   9.638  17.833  0.00  0.00    +0.000 N 
ATOM      5  H   UNL     1       3.063   8.055  16.860  0.00  0.00    +0.000 HD
ATOM      6  H   UNL     1       1.350   9.529  16.834  0.00  0.00    +0.000 HD
ENDROOT
BRANCH   4   7
ATOM      7  C   UNL     1       0.627  10.673  18.430  0.00  0.00    +0.000 A 
ATOM      8  C   UNL     1       1.242  11.649  19.235  0.00  0.00    +0.000 A 
ATOM      9  C   UNL     1       0.499  12.606  19.918  0.00  0.00    +0.000 A 
ATOM     10  C   UNL     1      -0.880  12.628  19.788  0.00  0.00    +0.000 A 
ATOM     11  C   UNL     1      -1.530  11.718  18.946  0.00  0.00    +0.000 A 
ATOM     12  C   UNL     1      -2.926  11.797  18.824  0.00  0.00    +0.000 A 
ATOM     13  C   UNL     1      -3.623  10.926  17.995  0.00  0.00    +0.000 A 
ATOM     14  C   UNL     1      -2.928   9.962  17.279  0.00  0.00    +0.000 A 
ATOM     15  C   UNL     1      -1.536   9.861  17.398  0.00  0.00    +0.000 A 
ATOM     16  C   UNL     1      -0.790  10.730  18.236  0.00  0.00    +0.000 A 
ENDBRANCH   4   7
BRANCH   1  21
ATOM     17  C   UNL     1       4.384   5.925  17.939  0.00  0.00    +0.000 A 
ATOM     18  N   UNL     1       4.398   4.664  18.511  0.00  0.00    +0.000 N 
ATOM     19  C   UNL     1       3.192   4.367  19.099  0.00  0.00    +0.000 A 
ATOM     20  C   UNL     1       2.375   5.450  18.844  0.00  0.00    +0.000 A 
ATOM     21  C   UNL     1       3.109   6.439  18.134  0.00  0.00    +0.000 A 
ATOM     22  H   UNL     1       5.215   4.066  18.516  0.00  0.00    +0.000 HD
BRANCH  19  23
ATOM     23  C   UNL     1       2.935   3.075  19.853  0.00  0.00    +0.000 C 
ATOM     24  C   UNL     1       2.279   3.379  21.213  0.00  0.00    +0.000 C 
ATOM     25  C   UNL     1       1.986   2.150  19.062  0.00  0.00    +0.000 C 
ATOM     26  C   UNL     1       4.259   2.323  20.079  0.00  0.00    +0.000 C 
ENDBRANCH  19  23
BRANCH  17  27
ATOM     27  C   UNL     1       5.583   6.447  17.334  0.00  0.00    +0.000 C 
ATOM     28  O   UNL     1       6.636   6.622  17.938  0.00  0.00    +0.000 OA
BRANCH  27  30
ATOM     29  C   UNL     1       5.606   5.641  15.148  0.00  0.00    +0.000 C 
ATOM     30  O   UNL     1       5.380   6.751  16.019  0.00  0.00    +0.000 OA
ENDBRANCH  27  30
ENDBRANCH  17  27
ENDBRANCH   1  21
TORSDOF 5
ENDMDL
MODEL 2
REMARK VINA RESULT:      -8.2      0.465      1.255
REMARK  Name = 
REMARK  9 active torsions:
REMARK  status: ('A' for Active; 'I' for Inactive)
REMARK    1  A    between atoms: C_1  and  O_2
REMARK    2  A    between atoms: O_2  and  C_3
REMARK    3  A    between atoms: C_3  and  C_5
REMARK    4  A    between atoms: C_7  and  C_8
REMARK    5  A    between atoms: C_8  and  C_9
REMARK    6  A    between atoms: C_8  and  C_10
REMARK    7  A    between atoms: C_8  and  C_11
REMARK    8  A    between atoms: C_13  and  N_14
REMARK    9  A    between atoms: N_17  and  C_18
REMARK                            x       y       z     vdW  Elec       q    Type
REMARK                         _______ _______ _______ _____ _____    ______ ____
ROOT
ATOM      1  N   UNL     1       2.707   7.835  17.670  0.00  0.00    +0.000 N 
ATOM      2  C   UNL     1       1.907   8.613  18.498  0.00  0.00    +0.000 C 
ATOM      3  O   UNL     1       1.594   8.286  19.639  0.00  0.00    +0.000 OA
ATOM      4  N   UNL     1       1.482   9.785  17.882  0.00  0.00    +0.000 N 
ATOM      5  H   UNL     1       3.180   8.268  16.889  0.00  0.00    +0.000 HD
ATOM      6  H   UNL     1       1.488   9.766  16.875  0.00  0.00    +0.000 HD
ENDROOT
BRANCH   4   7
ATOM      7  C   UNL     1       0.664  10.776  18.512  0.00  0.00    +0.000 A 
ATOM      8  C   UNL     1       1.247  11.733  19.363  0.00  0.00    +0.000 A 
ATOM      9  C   UNL     1       0.476  12.643  20.077  0.00  0.00    +0.000 A 
ATOM     10  C   UNL     1      -0.903  12.638  19.932  0.00  0.00    +0.000 A 
ATOM     11  C   UNL     1      -1.522  11.749  19.047  0.00  0.00    +0.000 A 
ATOM     12  C   UNL     1      -2.918  11.801  18.912  0.00  0.00    +0.000 A 
ATOM     13  C   UNL     1      -3.586  10.948  18.041  0.00  0.00    +0.000 A 
ATOM     14  C   UNL     1      -2.862  10.031  17.294  0.00  0.00    +0.000 A 
ATOM     15  C   UNL     1      -1.469   9.958  17.424  0.00  0.00    +0.000 A 
ATOM     16  C   UNL     1      -0.752  10.808  18.305  0.00  0.00    +0.000 A 
ENDBRANCH   4   7
BRANCH   1  21
ATOM     17  C   UNL     1       4.284   5.921  17.593  0.00  0.00    +0.000 A 
ATOM     18  N   UNL     1       4.289   4.658  18.161  0.00  0.00    +0.000 N 
ATOM     19  C   UNL     1       3.189   4.465  18.962  0.00  0.00    +0.000 A 
ATOM     20  C   UNL     1       2.440   5.619  18.854  0.00  0.00    +0.000 A 
ATOM     21  C   UNL     1       3.118   6.545  18.014  0.00  0.00    +0.000 A 
ATOM     22  H   UNL     1       5.036   3.989  18.019  0.00  0.00    +0.000 HD
BRANCH  19  23
ATOM     23  C   UNL     1       2.959   3.193  19.759  0.00  0.00    +0.000 C 
ATOM     24  C   UNL     1       4.291   2.447  19.957  0.00  0.00    +0.000 C 
ATOM     25  C   UNL     1       2.376   3.510  21.152  0.00  0.00    +0.000 C 
ATOM     26  C   UNL     1       1.965   2.280  19.019  0.00  0.00    +0.000 C 
ENDBRANCH  19  23
BRANCH  17  27
ATOM     27  C   UNL     1       5.394   6.339  16.774  0.00  0.00    +0.000 C 
ATOM     28  O   UNL     1       5.274   6.873  15.677  0.00  0.00    +0.000 OA
BRANCH  27  30
ATOM     29  C   UNL     1       7.423   7.173  17.562  0.00  0.00    +0.000 C 
ATOM     30  O   UNL     1       6.586   6.031  17.363  0.00  0.00    +0.000 OA
ENDBRANCH  27  30
ENDBRANCH  17  27
ENDBRANCH   1  21
TORSDOF 5
ENDMDL
MODEL 3
REMARK VINA RESULT:      -8.1      0.523      1.219
REMARK  Name = 
REMARK  9 active torsions:
REMARK  status: ('A' for Active; 'I' for Inactive)
REMARK    1  A    between atoms: C_1  and  O_2
REMARK    2  A    between atoms: O_2  and  C_3
REMARK    3  A    between atoms: C_3  and  C_5
REMARK    4  A    between atoms: C_7  and  C_8
REMARK    5  A    between atoms: C_8  and  C_9
REMARK    6  A    between atoms: C_8  and  C_10
REMARK    7  A    between atoms: C_8  and  C_11
REMARK    8  A    between atoms: C_13  and  N_14
REMARK    9  A    between atoms: N_17  and  C_18
REMARK                            x       y       z     vdW  Elec       q    Type
REMARK                         _______ _______ _______ _____ _____    ______ ____
ROOT
ATOM      1  N   UNL     1       2.674   7.620  17.770  0.00  0.00    +0.000 N 
ATOM      2  C   UNL     1       1.928   8.498  18.547  0.00  0.00    +0.000 C 
ATOM      3  O   UNL     1       1.682   8.308  19.734  0.00  0.00    +0.000 OA
ATOM      4  N   UNL     1       1.473   9.596  17.825  0.00  0.00    +0.000 N 
ATOM      5  H   UNL     1       3.102   7.955  16.917  0.00  0.00    +0.000 HD
ATOM      6  H   UNL     1       1.419   9.461  16.828  0.00  0.00    +0.000 HD
ENDROOT
BRANCH   4   7
ATOM      7  C   UNL     1       0.699  10.663  18.383  0.00  0.00    +0.000 A 
ATOM      8  C   UNL     1       1.329  11.675  19.127  0.00  0.00    +0.000 A 
ATOM      9  C   UNL     1       0.601  12.667  19.775  0.00  0.00    +0.000 A 
ATOM     10  C   UNL     1      -0.780  12.688  19.666  0.00  0.00    +0.000 A 
ATOM     11  C   UNL     1      -1.447  11.740  18.882  0.00  0.00    +0.000 A 
ATOM     12  C   UNL     1      -2.844  11.818  18.779  0.00  0.00    +0.000 A 
ATOM     13  C   UNL     1      -3.557  10.909  18.006  0.00  0.00    +0.000 A 
ATOM     14  C   UNL     1      -2.878   9.908  17.328  0.00  0.00    +0.000 A 
ATOM     15  C   UNL     1      -1.484   9.809  17.429  0.00  0.00    +0.000 A 
ATOM     16  C   UNL     1      -0.721  10.715  18.209  0.00  0.00    +0.000 A 
ENDBRANCH   4   7
BRANCH   1  21
ATOM     17  C   UNL     1       4.373   5.840  18.093  0.00  0.00    +0.000 A 
ATOM     18  N   UNL     1       4.352   4.592  18.691  0.00  0.00    +0.000 N 
ATOM     19  C   UNL     1       3.124   4.323  19.245  0.00  0.00    +0.000 A 
ATOM     20  C   UNL     1       2.329   5.410  18.942  0.00  0.00    +0.000 A 
ATOM     21  C   UNL     1       3.100   6.374  18.236  0.00  0.00    +0.000 A 
ATOM     22  H   UNL     1       5.161   3.984  18.734  0.00  0.00    +0.000 HD
BRANCH  19  23
ATOM     23  C   UNL     1       2.825   3.049  20.017  0.00  0.00    +0.000 C 
ATOM     24  C   UNL     1       1.842   2.169  19.222  0.00  0.00    +0.000 C 
ATOM     25  C   UNL     1       4.112   2.232  20.258  0.00  0.00    +0.000 C 
ATOM     26  C   UNL     1       2.212   3.394  21.387  0.00  0.00    +0.000 C 
ENDBRANCH  19  23
BRANCH  17  27
ATOM     27  C   UNL     1       5.598   6.335  17.516  0.00  0.00    +0.000 C 
ATOM     28  O   UNL     1       5.659   6.937  16.450  0.00  0.00    +0.000 OA
BRANCH  27  30
ATOM     29  C   UNL     1       7.528   5.041  17.687  0.00  0.00    +0.000 C 
ATOM     30  O   UNL     1       6.673   6.014  18.292  0.00  0.00    +0.000 OA
ENDBRANCH  27  30
ENDBRANCH  17  27
ENDBRANCH   1  21
TORSDOF 5
ENDMDL
MODEL 4
REMARK VINA RESULT:      -7.9      0.993      1.364
REMARK  Name = 
REMARK  9 active torsions:
REMARK  status: ('A' for Active; 'I' for Inactive)
REMARK    1  A    between atoms: C_1  and  O_2
REMARK    2  A    between atoms: O_2  and  C_3
REMARK    3  A    between atoms: C_3  and  C_5
REMARK    4  A    between atoms: C_7  and  C_8
REMARK    5  A    between atoms: C_8  and  C_9
REMARK    6  A    between atoms: C_8  and  C_10
REMARK    7  A    between atoms: C_8  and  C_11
REMARK    8  A    between atoms: C_13  and  N_14
REMARK    9  A    between atoms: N_17  and  C_18
REMARK                            x       y       z     vdW  Elec       q    Type
REMARK                         _______ _______ _______ _____ _____    ______ ____
ROOT
ATOM      1  N   UNL     1       2.886   7.452  17.785  0.00  0.00    +0.000 N 
ATOM      2  C   UNL     1       2.158   8.358  18.547  0.00  0.00    +0.000 C 
ATOM      3  O   UNL     1       1.767   8.124  19.686  0.00  0.00    +0.000 OA
ATOM      4  N   UNL     1       1.901   9.543  17.865  0.00  0.00    +0.000 N 
ATOM      5  H   UNL     1       3.435   7.788  17.007  0.00  0.00    +0.000 HD
ATOM      6  H   UNL     1       1.940   9.477  16.861  0.00  0.00    +0.000 HD
ENDROOT
BRANCH   4   7
ATOM      7  C   UNL     1       1.189  10.654  18.421  0.00  0.00    +0.000 A 
ATOM      8  C   UNL     1       1.886  11.668  19.101  0.00  0.00    +0.000 A 
ATOM      9  C   UNL     1       1.221  12.705  19.746  0.00  0.00    +0.000 A 
ATOM     10  C   UNL     1      -0.163  12.770  19.698  0.00  0.00    +0.000 A 
ATOM     11  C   UNL     1      -0.895  11.820  18.977  0.00  0.00    +0.000 A 
ATOM     12  C   UNL     1      -2.292  11.944  18.933  0.00  0.00    +0.000 A 
ATOM     13  C   UNL     1      -3.069  11.035  18.224  0.00  0.00    +0.000 A 
ATOM     14  C   UNL     1      -2.455   9.989  17.551  0.00  0.00    +0.000 A 
ATOM     15  C   UNL     1      -1.062   9.845  17.594  0.00  0.00    +0.000 A 
ATOM     16  C   UNL     1      -0.235  10.749  18.308  0.00  0.00    +0.000 A 
ENDBRANCH   4   7
BRANCH   1  21
ATOM     17  C   UNL     1       4.369   5.571  18.434  0.00  0.00    +0.000 A 
ATOM     18  N   UNL     1       4.144   4.260  18.815  0.00  0.00    +0.000 N 
ATOM     19  C   UNL     1       2.800   3.978  18.871  0.00  0.00    +0.000 A 
ATOM     20  C   UNL     1       2.158   5.129  18.461  0.00  0.00    +0.000 A 
ATOM     21  C   UNL     1       3.125   6.140  18.199  0.00  0.00    +0.000 A 
ATOM     22  H   UNL     1       4.888   3.616  19.054  0.00  0.00    +0.000 HD
BRANCH  19  23
ATOM     23  C   UNL     1       2.254   2.633  19.316  0.00  0.00    +0.000 C 
ATOM     24  C   UNL     1       3.180   1.501  18.831  0.00  0.00    +0.000 C 
ATOM     25  C   UNL     1       2.164   2.551  20.854  0.00  0.00    +0.000 C 
ATOM     26  C   UNL     1       0.842   2.421  18.740  0.00  0.00    +0.000 C 
ENDBRANCH  19  23
BRANCH  17  27
ATOM     27  C   UNL     1       5.717   6.079  18.386  0.00  0.00    +0.000 C 
ATOM     28  O   UNL     1       6.609   5.727  19.150  0.00  0.00    +0.000 OA
BRANCH  27  30
ATOM     29  C   UNL     1       7.185   7.536  17.313  0.00  0.00    +0.000 C 
ATOM     30  O   UNL     1       5.856   7.020  17.408  0.00  0.00    +0.000 OA
ENDBRANCH  27  30
ENDBRANCH  17  27
ENDBRANCH   1  21
TORSDOF 5
ENDMDL
MODEL 5
REMARK VINA RESULT:      -7.9      0.970      2.595
REMARK  Name = 
REMARK  9 active torsions:
REMARK  status: ('A' for Active; 'I' for Inactive)
REMARK    1  A    between atoms: C_1  and  O_2
REMARK    2  A    between atoms: O_2  and  C_3
REMARK    3  A    between atoms: C_3  and  C_5
REMARK    4  A    between atoms: C_7  and  C_8
REMARK    5  A    between atoms: C_8  and  C_9
REMARK    6  A    between atoms: C_8  and  C_10
REMARK    7  A    between atoms: C_8  and  C_11
REMARK    8  A    between atoms: C_13  and  N_14
REMARK    9  A    between atoms: N_17  and  C_18
REMARK                            x       y       z     vdW  Elec       q    Type
REMARK                         _______ _______ _______ _____ _____    ______ ____
ROOT
ATOM      1  N   UNL     1       2.634   7.649  17.686  0.00  0.00    +0.000 N 
ATOM      2  C   UNL     1       1.930   8.516  18.514  0.00  0.00    +0.000 C 
ATOM      3  O   UNL     1       1.771   8.324  19.715  0.00  0.00    +0.000 OA
ATOM      4  N   UNL     1       1.409   9.606  17.825  0.00  0.00    +0.000 N 
ATOM      5  H   UNL     1       2.996   7.990  16.806  0.00  0.00    +0.000 HD
ATOM      6  H   UNL     1       1.287   9.469  16.835  0.00  0.00    +0.000 HD
ENDROOT
BRANCH   4   7
ATOM      7  C   UNL     1       0.659  10.661  18.436  0.00  0.00    +0.000 A 
ATOM      8  C   UNL     1      -0.641  10.415  18.914  0.00  0.00    +0.000 A 
ATOM      9  C   UNL     1      -1.440  11.437  19.415  0.00  0.00    +0.000 A 
ATOM     10  C   UNL     1      -0.944  12.729  19.480  0.00  0.00    +0.000 A 
ATOM     11  C   UNL     1       0.367  13.010  19.078  0.00  0.00    +0.000 A 
ATOM     12  C   UNL     1       0.835  14.328  19.189  0.00  0.00    +0.000 A 
ATOM     13  C   UNL     1       2.131  14.662  18.815  0.00  0.00    +0.000 A 
ATOM     14  C   UNL     1       2.975  13.677  18.322  0.00  0.00    +0.000 A 
ATOM     15  C   UNL     1       2.520  12.359  18.193  0.00  0.00    +0.000 A 
ATOM     16  C   UNL     1       1.204  11.979  18.562  0.00  0.00    +0.000 A 
ENDBRANCH   4   7
BRANCH   1  21
ATOM     17  C   UNL     1       4.397   5.922  17.942  0.00  0.00    +0.000 A 
ATOM     18  N   UNL     1       4.430   4.664  18.518  0.00  0.00    +0.000 N 
ATOM     19  C   UNL     1       3.224   4.344  19.093  0.00  0.00    +0.000 A 
ATOM     20  C   UNL     1       2.387   5.409  18.826  0.00  0.00    +0.000 A 
ATOM     21  C   UNL     1       3.110   6.411  18.121  0.00  0.00    +0.000 A 
ATOM     22  H   UNL     1       5.259   4.082  18.534  0.00  0.00    +0.000 HD
BRANCH  19  23
ATOM     23  C   UNL     1       2.984   3.048  19.848  0.00  0.00    +0.000 C 
ATOM     24  C   UNL     1       2.045   2.133  19.041  0.00  0.00    +0.000 C 
ATOM     25  C   UNL     1       4.307   2.289  20.082  0.00  0.00    +0.000 C 
ATOM     26  C   UNL     1       2.353   3.347  21.221  0.00  0.00    +0.000 C 
ENDBRANCH  19  23
BRANCH  17  27
ATOM     27  C   UNL     1       5.592   6.466  17.349  0.00  0.00    +0.000 C 
ATOM     28  O   UNL     1       6.638   6.651  17.961  0.00  0.00    +0.000 OA
BRANCH  27  30
ATOM     29  C   UNL     1       5.510   5.648  15.169  0.00  0.00    +0.000 C 
ATOM     30  O   UNL     1       5.393   6.778  16.035  0.00  0.00    +0.000 OA
ENDBRANCH  27  30
ENDBRANCH  17  27
ENDBRANCH   1  21
TORSDOF 5
ENDMDL
MODEL 6
REMARK VINA RESULT:      -7.9      1.825      3.496
REMARK  Name = 
REMARK  9 active torsions:
REMARK  status: ('A' for Active; 'I' for Inactive)
REMARK    1  A    between atoms: C_1  and  O_2
REMARK    2  A    between atoms: O_2  and  C_3
REMARK    3  A    between atoms: C_3  and  C_5
REMARK    4  A    between atoms: C_7  and  C_8
REMARK    5  A    between atoms: C_8  and  C_9
REMARK    6  A    between atoms: C_8  and  C_10
REMARK    7  A    between atoms: C_8  and  C_11
REMARK    8  A    between atoms: C_13  and  N_14
REMARK    9  A    between atoms: N_17  and  C_18
REMARK                            x       y       z     vdW  Elec       q    Type
REMARK                         _______ _______ _______ _____ _____    ______ ____
ROOT
ATOM      1  N   UNL     1       2.397   6.890  19.172  0.00  0.00    +0.000 N 
ATOM      2  C   UNL     1       2.072   8.208  18.874  0.00  0.00    +0.000 C 
ATOM      3  O   UNL     1       2.548   8.824  17.925  0.00  0.00    +0.000 OA
ATOM      4  N   UNL     1       1.172   8.754  19.783  0.00  0.00    +0.000 N 
ATOM      5  H   UNL     1       1.771   6.344  19.748  0.00  0.00    +0.000 HD
ATOM      6  H   UNL     1       1.146   8.304  20.683  0.00  0.00    +0.000 HD
ENDROOT
BRANCH   4   7
ATOM      7  C   UNL     1       0.655  10.087  19.702  0.00  0.00    +0.000 A 
ATOM      8  C   UNL     1       1.150  11.087  20.558  0.00  0.00    +0.000 A 
ATOM      9  C   UNL     1       0.600  12.363  20.585  0.00  0.00    +0.000 A 
ATOM     10  C   UNL     1      -0.443  12.681  19.729  0.00  0.00    +0.000 A 
ATOM     11  C   UNL     1      -0.924  11.738  18.814  0.00  0.00    +0.000 A 
ATOM     12  C   UNL     1      -1.962  12.115  17.948  0.00  0.00    +0.000 A 
ATOM     13  C   UNL     1      -2.472  11.223  17.012  0.00  0.00    +0.000 A 
ATOM     14  C   UNL     1      -1.949   9.941  16.933  0.00  0.00    +0.000 A 
ATOM     15  C   UNL     1      -0.921   9.545  17.798  0.00  0.00    +0.000 A 
ATOM     16  C   UNL     1      -0.375  10.424  18.768  0.00  0.00    +0.000 A 
ENDBRANCH   4   7
BRANCH   1  21
ATOM     17  C   UNL     1       3.269   4.927  17.929  0.00  0.00    +0.000 A 
ATOM     18  N   UNL     1       4.498   4.613  17.373  0.00  0.00    +0.000 N 
ATOM     19  C   UNL     1       5.396   5.640  17.529  0.00  0.00    +0.000 A 
ATOM     20  C   UNL     1       4.733   6.612  18.251  0.00  0.00    +0.000 A 
ATOM     21  C   UNL     1       3.397   6.188  18.496  0.00  0.00    +0.000 A 
ATOM     22  H   UNL     1       4.680   3.743  16.887  0.00  0.00    +0.000 HD
BRANCH  19  23
ATOM     23  C   UNL     1       6.807   5.599  16.969  0.00  0.00    +0.000 C 
ATOM     24  C   UNL     1       7.657   4.584  17.755  0.00  0.00    +0.000 C 
ATOM     25  C   UNL     1       6.802   5.171  15.486  0.00  0.00    +0.000 C 
ATOM     26  C   UNL     1       7.453   6.993  17.064  0.00  0.00    +0.000 C 
ENDBRANCH  19  23
BRANCH  17  27
ATOM     27  C   UNL     1       2.172   4.001  17.804  0.00  0.00    +0.000 C 
ATOM     28  O   UNL     1       2.044   3.211  16.876  0.00  0.00    +0.000 OA
BRANCH  27  30
ATOM     29  C   UNL     1       1.538   3.254  19.918  0.00  0.00    +0.000 C 
ATOM     30  O   UNL     1       1.285   4.147  18.831  0.00  0.00    +0.000 OA
ENDBRANCH  27  30
ENDBRANCH  17  27
ENDBRANCH   1  21
TORSDOF 5
ENDMDL
MODEL 7
REMARK VINA RESULT:      -7.8      1.089      2.657
REMARK  Name = 
REMARK  9 active torsions:
REMARK  status: ('A' for Active; 'I' for Inactive)
REMARK    1  A    between atoms: C_1  and  O_2
REMARK    2  A    between atoms: O_2  and  C_3
REMARK    3  A    between atoms: C_3  and  C_5
REMARK    4  A    between atoms: C_7  and  C_8
REMARK    5  A    between atoms: C_8  and  C_9
REMARK    6  A    between atoms: C_8  and  C_10
REMARK    7  A    between atoms: C_8  and  C_11
REMARK    8  A    between atoms: C_13  and  N_14
REMARK    9  A    between atoms: N_17  and  C_18
REMARK                            x       y       z     vdW  Elec       q    Type
REMARK                         _______ _______ _______ _____ _____    ______ ____
ROOT
ATOM      1  N   UNL     1       2.672   7.707  17.671  0.00  0.00    +0.000 N 
ATOM      2  C   UNL     1       1.937   8.563  18.482  0.00  0.00    +0.000 C 
ATOM      3  O   UNL     1       1.723   8.351  19.671  0.00  0.00    +0.000 OA
ATOM      4  N   UNL     1       1.452   9.668  17.790  0.00  0.00    +0.000 N 
ATOM      5  H   UNL     1       3.074   8.060  16.814  0.00  0.00    +0.000 HD
ATOM      6  H   UNL     1       1.374   9.549  16.794  0.00  0.00    +0.000 HD
ENDROOT
BRANCH   4   7
ATOM      7  C   UNL     1       0.682  10.717  18.386  0.00  0.00    +0.000 A 
ATOM      8  C   UNL     1      -0.631  10.465  18.823  0.00  0.00    +0.000 A 
ATOM      9  C   UNL     1      -1.448  11.480  19.307  0.00  0.00    +0.000 A 
ATOM     10  C   UNL     1      -0.957  12.774  19.396  0.00  0.00    +0.000 A 
ATOM     11  C   UNL     1       0.364  13.060  19.036  0.00  0.00    +0.000 A 
ATOM     12  C   UNL     1       0.825  14.379  19.170  0.00  0.00    +0.000 A 
ATOM     13  C   UNL     1       2.131  14.718  18.837  0.00  0.00    +0.000 A 
ATOM     14  C   UNL     1       2.992  13.740  18.362  0.00  0.00    +0.000 A 
ATOM     15  C   UNL     1       2.545  12.421  18.211  0.00  0.00    +0.000 A 
ATOM     16  C   UNL     1       1.219  12.035  18.538  0.00  0.00    +0.000 A 
ENDBRANCH   4   7
BRANCH   1  21
ATOM     17  C   UNL     1       4.397   5.941  17.923  0.00  0.00    +0.000 A 
ATOM     18  N   UNL     1       4.404   4.682  18.498  0.00  0.00    +0.000 N 
ATOM     19  C   UNL     1       3.192   4.388  19.076  0.00  0.00    +0.000 A 
ATOM     20  C   UNL     1       2.379   5.472  18.811  0.00  0.00    +0.000 A 
ATOM     21  C   UNL     1       3.122   6.458  18.105  0.00  0.00    +0.000 A 
ATOM     22  H   UNL     1       5.220   4.082  18.512  0.00  0.00    +0.000 HD
BRANCH  19  23
ATOM     23  C   UNL     1       2.925   3.098  19.831  0.00  0.00    +0.000 C 
ATOM     24  C   UNL     1       2.299   3.410  21.203  0.00  0.00    +0.000 C 
ATOM     25  C   UNL     1       1.947   2.193  19.054  0.00  0.00    +0.000 C 
ATOM     26  C   UNL     1       4.241   2.323  20.032  0.00  0.00    +0.000 C 
ENDBRANCH  19  23
BRANCH  17  27
ATOM     27  C   UNL     1       5.603   6.459  17.327  0.00  0.00    +0.000 C 
ATOM     28  O   UNL     1       5.642   7.020  16.237  0.00  0.00    +0.000 OA
BRANCH  27  30
ATOM     29  C   UNL     1       7.726   7.184  17.958  0.00  0.00    +0.000 C 
ATOM     30  O   UNL     1       6.689   6.213  18.116  0.00  0.00    +0.000 OA
ENDBRANCH  27  30
ENDBRANCH  17  27
ENDBRANCH   1  21
TORSDOF 5
ENDMDL
MODEL 8
REMARK VINA RESULT:      -7.8      2.612      3.462
REMARK  Name = 
REMARK  9 active torsions:
REMARK  status: ('A' for Active; 'I' for Inactive)
REMARK    1  A    between atoms: C_1  and  O_2
REMARK    2  A    between atoms: O_2  and  C_3
REMARK    3  A    between atoms: C_3  and  C_5
REMARK    4  A    between atoms: C_7  and  C_8
REMARK    5  A    between atoms: C_8  and  C_9
REMARK    6  A    between atoms: C_8  and  C_10
REMARK    7  A    between atoms: C_8  and  C_11
REMARK    8  A    between atoms: C_13  and  N_14
REMARK    9  A    between atoms: N_17  and  C_18
REMARK                            x       y       z     vdW  Elec       q    Type
REMARK                         _______ _______ _______ _____ _____    ______ ____
ROOT
ATOM      1  N   UNL     1       1.882   8.011  21.135  0.00  0.00    +0.000 N 
ATOM      2  C   UNL     1       0.718   8.768  21.193  0.00  0.00    +0.000 C 
ATOM      3  O   UNL     1      -0.360   8.386  20.748  0.00  0.00    +0.000 OA
ATOM      4  N   UNL     1       0.918  10.010  21.785  0.00  0.00    +0.000 N 
ATOM      5  H   UNL     1       2.641   8.221  21.768  0.00  0.00    +0.000 HD
ATOM      6  H   UNL     1       1.868  10.345  21.768  0.00  0.00    +0.000 HD
ENDROOT
BRANCH   4   7
ATOM      7  C   UNL     1      -0.114  10.981  21.989  0.00  0.00    +0.000 A 
ATOM      8  C   UNL     1      -1.037  10.817  23.037  0.00  0.00    +0.000 A 
ATOM      9  C   UNL     1      -2.116  11.678  23.201  0.00  0.00    +0.000 A 
ATOM     10  C   UNL     1      -2.280  12.749  22.337  0.00  0.00    +0.000 A 
ATOM     11  C   UNL     1      -1.349  12.991  21.320  0.00  0.00    +0.000 A 
ATOM     12  C   UNL     1      -1.540  14.104  20.487  0.00  0.00    +0.000 A 
ATOM     13  C   UNL     1      -0.642  14.398  19.468  0.00  0.00    +0.000 A 
ATOM     14  C   UNL     1       0.459  13.579  19.269  0.00  0.00    +0.000 A 
ATOM     15  C   UNL     1       0.659  12.457  20.085  0.00  0.00    +0.000 A 
ATOM     16  C   UNL     1      -0.236  12.122  21.133  0.00  0.00    +0.000 A 
ENDBRANCH   4   7
BRANCH   1  21
ATOM     17  C   UNL     1       2.298   6.642  19.107  0.00  0.00    +0.000 A 
ATOM     18  N   UNL     1       2.244   5.286  18.839  0.00  0.00    +0.000 N 
ATOM     19  C   UNL     1       1.923   4.564  19.963  0.00  0.00    +0.000 A 
ATOM     20  C   UNL     1       1.715   5.496  20.959  0.00  0.00    +0.000 A 
ATOM     21  C   UNL     1       1.960   6.799  20.445  0.00  0.00    +0.000 A 
ATOM     22  H   UNL     1       2.453   4.891  17.929  0.00  0.00    +0.000 HD
BRANCH  19  23
ATOM     23  C   UNL     1       1.848   3.048  19.981  0.00  0.00    +0.000 C 
ATOM     24  C   UNL     1       0.803   2.559  18.961  0.00  0.00    +0.000 C 
ATOM     25  C   UNL     1       3.208   2.421  19.608  0.00  0.00    +0.000 C 
ATOM     26  C   UNL     1       1.462   2.555  21.387  0.00  0.00    +0.000 C 
ENDBRANCH  19  23
BRANCH  17  27
ATOM     27  C   UNL     1       2.689   7.561  18.068  0.00  0.00    +0.000 C 
ATOM     28  O   UNL     1       3.801   7.579  17.552  0.00  0.00    +0.000 OA
BRANCH  27  30
ATOM     29  C   UNL     1       2.046   9.795  17.910  0.00  0.00    +0.000 C 
ATOM     30  O   UNL     1       1.676   8.422  17.763  0.00  0.00    +0.000 OA
ENDBRANCH  27  30
ENDBRANCH  17  27
ENDBRANCH   1  21
TORSDOF 5
ENDMDL
MODEL 9
REMARK VINA RESULT:      -7.8      2.369      4.159
REMARK  Name = 
REMARK  9 active torsions:
REMARK  status: ('A' for Active; 'I' for Inactive)
REMARK    1  A    between atoms: C_1  and  O_2
REMARK    2  A    between atoms: O_2  and  C_3
REMARK    3  A    between atoms: C_3  and  C_5
REMARK    4  A    between atoms: C_7  and  C_8
REMARK    5  A    between atoms: C_8  and  C_9
REMARK    6  A    between atoms: C_8  and  C_10
REMARK    7  A    between atoms: C_8  and  C_11
REMARK    8  A    between atoms: C_13  and  N_14
REMARK    9  A    between atoms: N_17  and  C_18
REMARK                            x       y       z     vdW  Elec       q    Type
REMARK                         _______ _______ _______ _____ _____    ______ ____
ROOT
ATOM      1  N   UNL     1       2.703   6.729  19.669  0.00  0.00    +0.000 N 
ATOM      2  C   UNL     1       2.057   7.874  19.221  0.00  0.00    +0.000 C 
ATOM      3  O   UNL     1       1.914   8.150  18.034  0.00  0.00    +0.000 OA
ATOM      4  N   UNL     1       1.617   8.682  20.265  0.00  0.00    +0.000 N 
ATOM      5  H   UNL     1       2.528   6.397  20.608  0.00  0.00    +0.000 HD
ATOM      6  H   UNL     1       2.098   8.550  21.140  0.00  0.00    +0.000 HD
ENDROOT
BRANCH   4   7
ATOM      7  C   UNL     1       0.906   9.911  20.088  0.00  0.00    +0.000 A 
ATOM      8  C   UNL     1       1.049  10.642  18.895  0.00  0.00    +0.000 A 
ATOM      9  C   UNL     1       0.461  11.890  18.728  0.00  0.00    +0.000 A 
ATOM     10  C   UNL     1      -0.315  12.426  19.743  0.00  0.00    +0.000 A 
ATOM     11  C   UNL     1      -0.541  11.707  20.922  0.00  0.00    +0.000 A 
ATOM     12  C   UNL     1      -1.358  12.278  21.910  0.00  0.00    +0.000 A 
ATOM     13  C   UNL     1      -1.624  11.604  23.096  0.00  0.00    +0.000 A 
ATOM     14  C   UNL     1      -1.073  10.348  23.307  0.00  0.00    +0.000 A 
ATOM     15  C   UNL     1      -0.247   9.769  22.336  0.00  0.00    +0.000 A 
ATOM     16  C   UNL     1       0.051  10.425  21.114  0.00  0.00    +0.000 A 
ENDBRANCH   4   7
BRANCH   1  21
ATOM     17  C   UNL     1       2.924   4.592  18.425  0.00  0.00    +0.000 A 
ATOM     18  N   UNL     1       3.886   4.072  17.578  0.00  0.00    +0.000 N 
ATOM     19  C   UNL     1       4.910   4.964  17.373  0.00  0.00    +0.000 A 
ATOM     20  C   UNL     1       4.613   6.061  18.156  0.00  0.00    +0.000 A 
ATOM     21  C   UNL     1       3.367   5.851  18.808  0.00  0.00    +0.000 A 
ATOM     22  H   UNL     1       3.809   3.159  17.146  0.00  0.00    +0.000 HD
BRANCH  19  23
ATOM     23  C   UNL     1       6.078   4.686  16.443  0.00  0.00    +0.000 C 
ATOM     24  C   UNL     1       6.304   5.887  15.506  0.00  0.00    +0.000 C 
ATOM     25  C   UNL     1       7.378   4.451  17.240  0.00  0.00    +0.000 C 
ATOM     26  C   UNL     1       5.795   3.427  15.604  0.00  0.00    +0.000 C 
ENDBRANCH  19  23
BRANCH  17  27
ATOM     27  C   UNL     1       1.733   3.831  18.706  0.00  0.00    +0.000 C 
ATOM     28  O   UNL     1       1.270   2.980  17.955  0.00  0.00    +0.000 OA
BRANCH  27  30
ATOM     29  C   UNL     1       1.214   3.174  20.881  0.00  0.00    +0.000 C 
ATOM     30  O   UNL     1       1.176   4.207  19.894  0.00  0.00    +0.000 OA
ENDBRANCH  27  30
ENDBRANCH  17  27
ENDBRANCH   1  21
TORSDOF 5
ENDMDL
