MODEL 1
REMARK VINA RESULT:      -9.8      0.000      0.000
REMARK  Name = 
REMARK  6 active torsions:
REMARK  status: ('A' for Active; 'I' for Inactive)
REMARK    1  A    between atoms: C_1  and  N_2
REMARK    2  A    between atoms: N_2  and  C_3
REMARK    3  A    between atoms: N_2  and  C_4
REMARK    4  A    between atoms: C_4  and  C_5
REMARK    5  A    between atoms: C_5  and  N_6
REMARK    6  A    between atoms: C_7  and  C_9
REMARK                            x       y       z     vdW  Elec       q    Type
REMARK                         _______ _______ _______ _____ _____    ______ ____
ROOT
ATOM      1  C   UNL     1       6.446   5.728  17.980  0.00  0.00    +0.000 A 
ATOM      2  C   UNL     1       5.430   5.403  18.860  0.00  0.00    +0.000 A 
ATOM      3  C   UNL     1       4.325   4.663  18.432  0.00  0.00    +0.000 A 
ATOM      4  C   UNL     1       3.162   4.255  19.109  0.00  0.00    +0.000 A 
ATOM      5  C   UNL     1       2.706   4.431  20.423  0.00  0.00    +0.000 A 
ATOM      6  C   UNL     1       1.487   3.888  20.791  0.00  0.00    +0.000 A 
ATOM      7  C   UNL     1       0.735   3.183  19.869  0.00  0.00    +0.000 A 
ATOM      8  C   UNL     1       1.177   3.002  18.558  0.00  0.00    +0.000 A 
ATOM      9  C   UNL     1       2.404   3.548  18.186  0.00  0.00    +0.000 A 
ATOM     10  N   UNL     1       3.104   3.540  16.981  0.00  0.00    +0.000 N 
ATOM     11  C   UNL     1       4.266   4.211  17.104  0.00  0.00    +0.000 A 
ATOM     12  C   UNL     1       5.287   4.462  16.162  0.00  0.00    +0.000 A 
ATOM     13  C   UNL     1       6.363   5.228  16.681  0.00  0.00    +0.000 A 
ATOM     14  N   UNL     1       7.279   5.394  15.719  0.00  0.00    +0.000 N 
ATOM     15  C   UNL     1       6.967   4.855  14.530  0.00  0.00    +0.000 A 
ATOM     16  C   UNL     1       7.734   4.915  13.393  0.00  0.00    +0.000 A 
ATOM     17  C   UNL     1       7.029   4.209  12.490  0.00  0.00    +0.000 A 
ATOM     18  C   UNL     1       6.355   3.511  11.571  0.00  0.00    +0.000 A 
ATOM     19  C   UNL     1       5.403   3.587  13.227  0.00  0.00    +0.000 A 
ATOM     20  C   UNL     1       5.696   4.200  14.626  0.00  0.00    +0.000 A 
ATOM     21  H   UNL     1       2.767   3.089  16.153  0.00  0.00    +0.000 HD
ATOM     22  H   UNL     1       8.150   5.891  15.784  0.00  0.00    +0.000 HD
ENDROOT
BRANCH   1  24
ATOM     23  N   UNL     1       7.560   7.906  17.821  0.00  0.00    +0.000 N 
ATOM     24  C   UNL     1       7.542   6.641  18.406  0.00  0.00    +0.000 C 
ATOM     25  O   UNL     1       8.365   6.259  19.230  0.00  0.00    +0.000 OA
ATOM     26  H   UNL     1       6.845   8.210  17.175  0.00  0.00    +0.000 HD
BRANCH  23  27
ATOM     27  C   UNL     1       8.591   8.863  18.176  0.00  0.00    +0.000 C 
BRANCH  27  28
ATOM     28  C   UNL     1       8.193  10.312  17.871  0.00  0.00    +0.000 C 
BRANCH  28  30
ATOM     29  C   UNL     1       9.406  10.712  19.887  0.00  0.00    +0.000 C 
ATOM     30  N   UNL     1       9.058  11.263  18.582  0.00  0.00    +0.000 NA
ATOM     31  C   UNL     1      10.285  11.474  17.815  0.00  0.00    +0.000 C 
ENDBRANCH  28  30
ENDBRANCH  27  28
ENDBRANCH  23  27
ENDBRANCH   1  24
TORSDOF 4
ENDMDL
MODEL 2
REMARK VINA RESULT:      -8.5      1.124      5.463
REMARK  Name = 
REMARK  6 active torsions:
REMARK  status: ('A' for Active; 'I' for Inactive)
REMARK    1  A    between atoms: C_1  and  N_2
REMARK    2  A    between atoms: N_2  and  C_3
REMARK    3  A    between atoms: N_2  and  C_4
REMARK    4  A    between atoms: C_4  and  C_5
REMARK    5  A    between atoms: C_5  and  N_6
REMARK    6  A    between atoms: C_7  and  C_9
REMARK                            x       y       z     vdW  Elec       q    Type
REMARK                         _______ _______ _______ _____ _____    ______ ____
ROOT
ATOM      1  C   UNL     1       6.744   6.130  17.388  0.00  0.00    +0.000 A 
ATOM      2  C   UNL     1       7.148   5.895  16.087  0.00  0.00    +0.000 A 
ATOM      3  C   UNL     1       6.406   5.060  15.249  0.00  0.00    +0.000 A 
ATOM      4  C   UNL     1       6.629   4.633  13.928  0.00  0.00    +0.000 A 
ATOM      5  C   UNL     1       7.647   4.888  12.997  0.00  0.00    +0.000 A 
ATOM      6  C   UNL     1       7.574   4.305  11.744  0.00  0.00    +0.000 A 
ATOM      7  C   UNL     1       6.510   3.482  11.422  0.00  0.00    +0.000 A 
ATOM      8  C   UNL     1       5.492   3.220  12.339  0.00  0.00    +0.000 A 
ATOM      9  C   UNL     1       5.563   3.806  13.602  0.00  0.00    +0.000 A 
ATOM     10  N   UNL     1       4.723   3.741  14.712  0.00  0.00    +0.000 N 
ATOM     11  C   UNL     1       5.213   4.487  15.721  0.00  0.00    +0.000 A 
ATOM     12  C   UNL     1       4.712   4.721  17.019  0.00  0.00    +0.000 A 
ATOM     13  C   UNL     1       5.536   5.571  17.802  0.00  0.00    +0.000 A 
ATOM     14  N   UNL     1       4.966   5.741  19.001  0.00  0.00    +0.000 N 
ATOM     15  C   UNL     1       3.818   5.071  19.192  0.00  0.00    +0.000 A 
ATOM     16  C   UNL     1       3.067   5.071  20.341  0.00  0.00    +0.000 A 
ATOM     17  C   UNL     1       2.011   4.296  20.036  0.00  0.00    +0.000 A 
ATOM     18  C   UNL     1       0.946   3.534  19.765  0.00  0.00    +0.000 A 
ATOM     19  C   UNL     1       2.150   3.608  18.281  0.00  0.00    +0.000 A 
ATOM     20  C   UNL     1       3.490   4.345  18.000  0.00  0.00    +0.000 A 
ATOM     21  H   UNL     1       3.876   3.207  14.729  0.00  0.00    +0.000 HD
ATOM     22  H   UNL     1       5.311   6.288  19.770  0.00  0.00    +0.000 HD
ENDROOT
BRANCH   1  24
ATOM     23  N   UNL     1       7.937   8.201  17.937  0.00  0.00    +0.000 N 
ATOM     24  C   UNL     1       7.619   6.897  18.317  0.00  0.00    +0.000 C 
ATOM     25  O   UNL     1       8.016   6.372  19.350  0.00  0.00    +0.000 OA
ATOM     26  H   UNL     1       7.561   8.623  17.100  0.00  0.00    +0.000 HD
BRANCH  23  27
ATOM     27  C   UNL     1       8.783   9.024  18.781  0.00  0.00    +0.000 C 
BRANCH  27  28
ATOM     28  C   UNL     1       8.912  10.465  18.274  0.00  0.00    +0.000 C 
BRANCH  28  30
ATOM     29  C   UNL     1      10.399  12.312  18.002  0.00  0.00    +0.000 C 
ATOM     30  N   UNL     1      10.147  11.092  18.762  0.00  0.00    +0.000 NA
ATOM     31  C   UNL     1       9.993  11.440  20.174  0.00  0.00    +0.000 C 
ENDBRANCH  28  30
ENDBRANCH  27  28
ENDBRANCH  23  27
ENDBRANCH   1  24
TORSDOF 4
ENDMDL
MODEL 3
REMARK VINA RESULT:      -8.5      0.903      1.093
REMARK  Name = 
REMARK  6 active torsions:
REMARK  status: ('A' for Active; 'I' for Inactive)
REMARK    1  A    between atoms: C_1  and  N_2
REMARK    2  A    between atoms: N_2  and  C_3
REMARK    3  A    between atoms: N_2  and  C_4
REMARK    4  A    between atoms: C_4  and  C_5
REMARK    5  A    between atoms: C_5  and  N_6
REMARK    6  A    between atoms: C_7  and  C_9
REMARK                            x       y       z     vdW  Elec       q    Type
REMARK                         _______ _______ _______ _____ _____    ______ ____
ROOT
ATOM      1  C   UNL     1       6.422   6.181  17.349  0.00  0.00    +0.000 A 
ATOM      2  C   UNL     1       5.474   5.948  18.327  0.00  0.00    +0.000 A 
ATOM      3  C   UNL     1       4.404   5.081  18.093  0.00  0.00    +0.000 A 
ATOM      4  C   UNL     1       3.305   4.722  18.894  0.00  0.00    +0.000 A 
ATOM      5  C   UNL     1       2.900   5.090  20.185  0.00  0.00    +0.000 A 
ATOM      6  C   UNL     1       1.740   4.544  20.707  0.00  0.00    +0.000 A 
ATOM      7  C   UNL     1       0.997   3.649  19.959  0.00  0.00    +0.000 A 
ATOM      8  C   UNL     1       1.389   3.276  18.673  0.00  0.00    +0.000 A 
ATOM      9  C   UNL     1       2.556   3.824  18.145  0.00  0.00    +0.000 A 
ATOM     10  N   UNL     1       3.198   3.656  16.920  0.00  0.00    +0.000 N 
ATOM     11  C   UNL     1       4.315   4.408  16.863  0.00  0.00    +0.000 A 
ATOM     12  C   UNL     1       5.271   4.558  15.836  0.00  0.00    +0.000 A 
ATOM     13  C   UNL     1       6.314   5.464  16.158  0.00  0.00    +0.000 A 
ATOM     14  N   UNL     1       7.170   5.521  15.131  0.00  0.00    +0.000 N 
ATOM     15  C   UNL     1       6.841   4.771  14.067  0.00  0.00    +0.000 A 
ATOM     16  C   UNL     1       7.548   4.684  12.894  0.00  0.00    +0.000 A 
ATOM     17  C   UNL     1       6.853   3.794  12.163  0.00  0.00    +0.000 A 
ATOM     18  C   UNL     1       6.188   2.911  11.411  0.00  0.00    +0.000 A 
ATOM     19  C   UNL     1       5.311   3.208  13.084  0.00  0.00    +0.000 A 
ATOM     20  C   UNL     1       5.625   4.065  14.343  0.00  0.00    +0.000 A 
ATOM     21  H   UNL     1       2.855   3.052  16.199  0.00  0.00    +0.000 HD
ATOM     22  H   UNL     1       8.006   6.074  15.062  0.00  0.00    +0.000 HD
ENDROOT
BRANCH   1  24
ATOM     23  N   UNL     1       7.944   7.374  18.857  0.00  0.00    +0.000 N 
ATOM     24  C   UNL     1       7.471   7.218  17.554  0.00  0.00    +0.000 C 
ATOM     25  O   UNL     1       7.868   7.877  16.601  0.00  0.00    +0.000 OA
ATOM     26  H   UNL     1       7.628   6.788  19.617  0.00  0.00    +0.000 HD
BRANCH  23  27
ATOM     27  C   UNL     1       8.967   8.359  19.151  0.00  0.00    +0.000 C 
BRANCH  27  28
ATOM     28  C   UNL     1       8.630   9.753  18.608  0.00  0.00    +0.000 C 
BRANCH  28  30
ATOM     29  C   UNL     1       9.468  11.955  18.229  0.00  0.00    +0.000 C 
ATOM     30  N   UNL     1       9.626  10.745  19.029  0.00  0.00    +0.000 NA
ATOM     31  C   UNL     1       9.417  11.080  20.437  0.00  0.00    +0.000 C 
ENDBRANCH  28  30
ENDBRANCH  27  28
ENDBRANCH  23  27
ENDBRANCH   1  24
TORSDOF 4
ENDMDL
MODEL 4
REMARK VINA RESULT:      -7.7      3.822      6.893
REMARK  Name = 
REMARK  6 active torsions:
REMARK  status: ('A' for Active; 'I' for Inactive)
REMARK    1  A    between atoms: C_1  and  N_2
REMARK    2  A    between atoms: N_2  and  C_3
REMARK    3  A    between atoms: N_2  and  C_4
REMARK    4  A    between atoms: C_4  and  C_5
REMARK    5  A    between atoms: C_5  and  N_6
REMARK    6  A    between atoms: C_7  and  C_9
REMARK                            x       y       z     vdW  Elec       q    Type
REMARK                         _______ _______ _______ _____ _____    ______ ____
ROOT
ATOM      1  C   UNL     1       4.076   6.877  17.378  0.00  0.00    +0.000 A 
ATOM      2  C   UNL     1       3.631   8.186  17.402  0.00  0.00    +0.000 A 
ATOM      3  C   UNL     1       2.631   8.584  18.292  0.00  0.00    +0.000 A 
ATOM      4  C   UNL     1       1.986   9.820  18.474  0.00  0.00    +0.000 A 
ATOM      5  C   UNL     1       2.114  11.069  17.849  0.00  0.00    +0.000 A 
ATOM      6  C   UNL     1       1.316  12.118  18.271  0.00  0.00    +0.000 A 
ATOM      7  C   UNL     1       0.406  11.929  19.294  0.00  0.00    +0.000 A 
ATOM      8  C   UNL     1       0.267  10.691  19.924  0.00  0.00    +0.000 A 
ATOM      9  C   UNL     1       1.070   9.634  19.501  0.00  0.00    +0.000 A 
ATOM     10  N   UNL     1       1.168   8.308  19.919  0.00  0.00    +0.000 N 
ATOM     11  C   UNL     1       2.101   7.653  19.201  0.00  0.00    +0.000 A 
ATOM     12  C   UNL     1       2.540   6.313  19.269  0.00  0.00    +0.000 A 
ATOM     13  C   UNL     1       3.549   5.996  18.322  0.00  0.00    +0.000 A 
ATOM     14  N   UNL     1       3.904   4.716  18.480  0.00  0.00    +0.000 N 
ATOM     15  C   UNL     1       3.230   4.046  19.429  0.00  0.00    +0.000 A 
ATOM     16  C   UNL     1       3.402   2.725  19.757  0.00  0.00    +0.000 A 
ATOM     17  C   UNL     1       2.542   2.529  20.773  0.00  0.00    +0.000 A 
ATOM     18  C   UNL     1       1.701   2.302  21.787  0.00  0.00    +0.000 A 
ATOM     19  C   UNL     1       1.562   4.100  21.150  0.00  0.00    +0.000 A 
ATOM     20  C   UNL     1       2.293   4.930  20.057  0.00  0.00    +0.000 A 
ATOM     21  H   UNL     1       0.611   7.922  20.655  0.00  0.00    +0.000 HD
ATOM     22  H   UNL     1       4.592   4.203  17.958  0.00  0.00    +0.000 HD
ENDROOT
BRANCH   1  24
ATOM     23  N   UNL     1       5.913   5.410  16.683  0.00  0.00    +0.000 N 
ATOM     24  C   UNL     1       5.031   6.430  16.328  0.00  0.00    +0.000 C 
ATOM     25  O   UNL     1       5.010   6.958  15.223  0.00  0.00    +0.000 OA
ATOM     26  H   UNL     1       5.881   4.963  17.589  0.00  0.00    +0.000 HD
BRANCH  23  27
ATOM     27  C   UNL     1       6.879   4.910  15.724  0.00  0.00    +0.000 C 
BRANCH  27  28
ATOM     28  C   UNL     1       6.286   3.873  14.763  0.00  0.00    +0.000 C 
BRANCH  28  30
ATOM     29  C   UNL     1       7.580   5.002  13.106  0.00  0.00    +0.000 C 
ATOM     30  N   UNL     1       6.298   4.361  13.378  0.00  0.00    +0.000 NA
ATOM     31  C   UNL     1       6.129   3.234  12.462  0.00  0.00    +0.000 C 
ENDBRANCH  28  30
ENDBRANCH  27  28
ENDBRANCH  23  27
ENDBRANCH   1  24
TORSDOF 4
ENDMDL
MODEL 5
REMARK VINA RESULT:      -7.0      7.590     10.752
REMARK  Name = 
REMARK  6 active torsions:
REMARK  status: ('A' for Active; 'I' for Inactive)
REMARK    1  A    between atoms: C_1  and  N_2
REMARK    2  A    between atoms: N_2  and  C_3
REMARK    3  A    between atoms: N_2  and  C_4
REMARK    4  A    between atoms: C_4  and  C_5
REMARK    5  A    between atoms: C_5  and  N_6
REMARK    6  A    between atoms: C_7  and  C_9
REMARK                            x       y       z     vdW  Elec       q    Type
REMARK                         _______ _______ _______ _____ _____    ______ ____
ROOT
ATOM      1  C   UNL     1       1.003  10.742  18.493  0.00  0.00    +0.000 A 
ATOM      2  C   UNL     1       1.752  11.882  18.719  0.00  0.00    +0.000 A 
ATOM      3  C   UNL     1       1.146  13.140  18.750  0.00  0.00    +0.000 A 
ATOM      4  C   UNL     1       1.687  14.428  18.910  0.00  0.00    +0.000 A 
ATOM      5  C   UNL     1       2.993  14.903  19.098  0.00  0.00    +0.000 A 
ATOM      6  C   UNL     1       3.201  16.265  19.230  0.00  0.00    +0.000 A 
ATOM      7  C   UNL     1       2.131  17.139  19.175  0.00  0.00    +0.000 A 
ATOM      8  C   UNL     1       0.827  16.680  18.987  0.00  0.00    +0.000 A 
ATOM      9  C   UNL     1       0.615  15.309  18.854  0.00  0.00    +0.000 A 
ATOM     10  N   UNL     1      -0.542  14.556  18.661  0.00  0.00    +0.000 N 
ATOM     11  C   UNL     1      -0.246  13.243  18.591  0.00  0.00    +0.000 A 
ATOM     12  C   UNL     1      -1.081  12.121  18.406  0.00  0.00    +0.000 A 
ATOM     13  C   UNL     1      -0.379  10.888  18.377  0.00  0.00    +0.000 A 
ATOM     14  N   UNL     1      -1.259   9.892  18.215  0.00  0.00    +0.000 N 
ATOM     15  C   UNL     1      -2.540  10.274  18.086  0.00  0.00    +0.000 A 
ATOM     16  C   UNL     1      -3.612   9.440  17.888  0.00  0.00    +0.000 A 
ATOM     17  C   UNL     1      -4.668  10.273  17.860  0.00  0.00    +0.000 A 
ATOM     18  C   UNL     1      -5.739  11.072  17.830  0.00  0.00    +0.000 A 
ATOM     19  C   UNL     1      -4.125  12.074  18.045  0.00  0.00    +0.000 A 
ATOM     20  C   UNL     1      -2.621  11.702  18.186  0.00  0.00    +0.000 A 
ATOM     21  H   UNL     1      -1.455  14.960  18.589  0.00  0.00    +0.000 HD
ATOM     22  H   UNL     1      -1.066   8.908  18.156  0.00  0.00    +0.000 HD
ENDROOT
BRANCH   1  24
ATOM     23  N   UNL     1       1.687   8.577  19.419  0.00  0.00    +0.000 N 
ATOM     24  C   UNL     1       1.676   9.426  18.313  0.00  0.00    +0.000 C 
ATOM     25  O   UNL     1       2.181   9.146  17.233  0.00  0.00    +0.000 OA
ATOM     26  H   UNL     1       1.226   8.818  20.286  0.00  0.00    +0.000 HD
BRANCH  23  27
ATOM     27  C   UNL     1       2.320   7.275  19.336  0.00  0.00    +0.000 C 
BRANCH  27  28
ATOM     28  C   UNL     1       1.849   6.310  20.431  0.00  0.00    +0.000 C 
BRANCH  28  30
ATOM     29  C   UNL     1       1.092   4.047  20.437  0.00  0.00    +0.000 C 
ATOM     30  N   UNL     1       2.212   4.924  20.112  0.00  0.00    +0.000 NA
ATOM     31  C   UNL     1       2.499   4.811  18.682  0.00  0.00    +0.000 C 
ENDBRANCH  28  30
ENDBRANCH  27  28
ENDBRANCH  23  27
ENDBRANCH   1  24
TORSDOF 4
ENDMDL
MODEL 6
REMARK VINA RESULT:      -7.0     10.414     12.806
REMARK  Name = 
REMARK  6 active torsions:
REMARK  status: ('A' for Active; 'I' for Inactive)
REMARK    1  A    between atoms: C_1  and  N_2
REMARK    2  A    between atoms: N_2  and  C_3
REMARK    3  A    between atoms: N_2  and  C_4
REMARK    4  A    between atoms: C_4  and  C_5
REMARK    5  A    between atoms: C_5  and  N_6
REMARK    6  A    between atoms: C_7  and  C_9
REMARK                            x       y       z     vdW  Elec       q    Type
REMARK                         _______ _______ _______ _____ _____    ______ ____
ROOT
ATOM      1  C   UNL     1      -3.485  10.801  16.040  0.00  0.00    +0.000 A 
ATOM      2  C   UNL     1      -4.611  11.518  16.399  0.00  0.00    +0.000 A 
ATOM      3  C   UNL     1      -4.786  11.962  17.712  0.00  0.00    +0.000 A 
ATOM      4  C   UNL     1      -5.845  12.654  18.326  0.00  0.00    +0.000 A 
ATOM      5  C   UNL     1      -7.073  13.142  17.854  0.00  0.00    +0.000 A 
ATOM      6  C   UNL     1      -7.916  13.802  18.731  0.00  0.00    +0.000 A 
ATOM      7  C   UNL     1      -7.547  13.972  20.052  0.00  0.00    +0.000 A 
ATOM      8  C   UNL     1      -6.330  13.491  20.535  0.00  0.00    +0.000 A 
ATOM      9  C   UNL     1      -5.478  12.827  19.654  0.00  0.00    +0.000 A 
ATOM     10  N   UNL     1      -4.224  12.244  19.825  0.00  0.00    +0.000 N 
ATOM     11  C   UNL     1      -3.787  11.712  18.667  0.00  0.00    +0.000 A 
ATOM     12  C   UNL     1      -2.590  11.029  18.363  0.00  0.00    +0.000 A 
ATOM     13  C   UNL     1      -2.503  10.607  17.011  0.00  0.00    +0.000 A 
ATOM     14  N   UNL     1      -1.331   9.989  16.824  0.00  0.00    +0.000 N 
ATOM     15  C   UNL     1      -0.558   9.883  17.917  0.00  0.00    +0.000 A 
ATOM     16  C   UNL     1       0.671   9.274  17.978  0.00  0.00    +0.000 A 
ATOM     17  C   UNL     1       1.059   9.455  19.253  0.00  0.00    +0.000 A 
ATOM     18  C   UNL     1       1.476   9.621  20.512  0.00  0.00    +0.000 A 
ATOM     19  C   UNL     1      -0.266  10.365  20.248  0.00  0.00    +0.000 A 
ATOM     20  C   UNL     1      -1.216  10.509  19.026  0.00  0.00    +0.000 A 
ATOM     21  H   UNL     1      -3.737  12.237  20.700  0.00  0.00    +0.000 HD
ATOM     22  H   UNL     1      -0.983   9.581  15.975  0.00  0.00    +0.000 HD
ENDROOT
BRANCH   1  24
ATOM     23  N   UNL     1      -4.578   9.992  13.999  0.00  0.00    +0.000 N 
ATOM     24  C   UNL     1      -3.379  10.205  14.680  0.00  0.00    +0.000 C 
ATOM     25  O   UNL     1      -2.277   9.931  14.221  0.00  0.00    +0.000 OA
ATOM     26  H   UNL     1      -5.471  10.266  14.385  0.00  0.00    +0.000 HD
BRANCH  23  27
ATOM     27  C   UNL     1      -4.572   9.417  12.668  0.00  0.00    +0.000 C 
BRANCH  27  28
ATOM     28  C   UNL     1      -5.485  10.163  11.689  0.00  0.00    +0.000 C 
BRANCH  28  30
ATOM     29  C   UNL     1      -7.652  10.179  10.690  0.00  0.00    +0.000 C 
ATOM     30  N   UNL     1      -6.889   9.772  11.865  0.00  0.00    +0.000 NA
ATOM     31  C   UNL     1      -6.977   8.319  12.005  0.00  0.00    +0.000 C 
ENDBRANCH  28  30
ENDBRANCH  27  28
ENDBRANCH  23  27
ENDBRANCH   1  24
TORSDOF 4
ENDMDL
MODEL 7
REMARK VINA RESULT:      -6.9      4.100     10.587
REMARK  Name = 
REMARK  6 active torsions:
REMARK  status: ('A' for Active; 'I' for Inactive)
REMARK    1  A    between atoms: C_1  and  N_2
REMARK    2  A    between atoms: N_2  and  C_3
REMARK    3  A    between atoms: N_2  and  C_4
REMARK    4  A    between atoms: C_4  and  C_5
REMARK    5  A    between atoms: C_5  and  N_6
REMARK    6  A    between atoms: C_7  and  C_9
REMARK                            x       y       z     vdW  Elec       q    Type
REMARK                         _______ _______ _______ _____ _____    ______ ____
ROOT
ATOM      1  C   UNL     1       9.352  12.028  19.537  0.00  0.00    +0.000 A 
ATOM      2  C   UNL     1       8.911  11.808  20.828  0.00  0.00    +0.000 A 
ATOM      3  C   UNL     1       8.994  12.815  21.793  0.00  0.00    +0.000 A 
ATOM      4  C   UNL     1       8.665  12.822  23.159  0.00  0.00    +0.000 A 
ATOM      5  C   UNL     1       8.140  11.851  24.025  0.00  0.00    +0.000 A 
ATOM      6  C   UNL     1       7.919  12.180  25.351  0.00  0.00    +0.000 A 
ATOM      7  C   UNL     1       8.214  13.451  25.809  0.00  0.00    +0.000 A 
ATOM      8  C   UNL     1       8.737  14.426  24.959  0.00  0.00    +0.000 A 
ATOM      9  C   UNL     1       8.960  14.097  23.623  0.00  0.00    +0.000 A 
ATOM     10  N   UNL     1       9.461  14.832  22.550  0.00  0.00    +0.000 N 
ATOM     11  C   UNL     1       9.495  14.078  21.435  0.00  0.00    +0.000 A 
ATOM     12  C   UNL     1       9.918  14.391  20.125  0.00  0.00    +0.000 A 
ATOM     13  C   UNL     1       9.807  13.306  19.216  0.00  0.00    +0.000 A 
ATOM     14  N   UNL     1      10.215  13.711  18.008  0.00  0.00    +0.000 N 
ATOM     15  C   UNL     1      10.650  14.980  17.944  0.00  0.00    +0.000 A 
ATOM     16  C   UNL     1      11.135  15.608  16.824  0.00  0.00    +0.000 A 
ATOM     17  C   UNL     1      11.403  16.858  17.246  0.00  0.00    +0.000 A 
ATOM     18  C   UNL     1      11.675  18.108  17.631  0.00  0.00    +0.000 A 
ATOM     19  C   UNL     1      11.032  17.052  19.089  0.00  0.00    +0.000 A 
ATOM     20  C   UNL     1      10.530  15.588  19.236  0.00  0.00    +0.000 A 
ATOM     21  H   UNL     1       9.747  15.788  22.626  0.00  0.00    +0.000 HD
ATOM     22  H   UNL     1      10.253  13.169  17.162  0.00  0.00    +0.000 HD
ENDROOT
BRANCH   1  24
ATOM     23  N   UNL     1       8.345   9.993  18.611  0.00  0.00    +0.000 N 
ATOM     24  C   UNL     1       9.398  10.906  18.559  0.00  0.00    +0.000 C 
ATOM     25  O   UNL     1      10.330  10.826  17.769  0.00  0.00    +0.000 OA
ATOM     26  H   UNL     1       7.566  10.106  19.246  0.00  0.00    +0.000 HD
BRANCH  23  27
ATOM     27  C   UNL     1       8.305   8.868  17.697  0.00  0.00    +0.000 C 
BRANCH  27  28
ATOM     28  C   UNL     1       8.191   7.518  18.413  0.00  0.00    +0.000 C 
BRANCH  28  30
ATOM     29  C   UNL     1       7.557   5.223  18.248  0.00  0.00    +0.000 C 
ATOM     30  N   UNL     1       7.643   6.486  17.523  0.00  0.00    +0.000 NA
ATOM     31  C   UNL     1       6.302   6.876  17.091  0.00  0.00    +0.000 C 
ENDBRANCH  28  30
ENDBRANCH  27  28
ENDBRANCH  23  27
ENDBRANCH   1  24
TORSDOF 4
ENDMDL
