MODEL 1
REMARK VINA RESULT:      -7.8      0.000      0.000
REMARK  Name = 
REMARK  3 active torsions:
REMARK  status: ('A' for Active; 'I' for Inactive)
REMARK    1  A    between atoms: S_2  and  C_4
REMARK    2  A    between atoms: S_2  and  N_18
REMARK    3  A    between atoms: C_7  and  C_8
REMARK                            x       y       z     vdW  Elec       q    Type
REMARK                         _______ _______ _______ _____ _____    ______ ____
ROOT
ATOM      1  C   UNL     1       2.484   7.367  18.998  0.00  0.00    +0.000 A 
ATOM      2  C   UNL     1       1.903   7.709  20.223  0.00  0.00    +0.000 A 
ATOM      3  C   UNL     1       1.059   8.795  20.292  0.00  0.00    +0.000 A 
ATOM      4  C   UNL     1       0.818   9.590  19.160  0.00  0.00    +0.000 A 
ATOM      5  C   UNL     1       1.554   9.365  17.987  0.00  0.00    +0.000 A 
ATOM      6  C   UNL     1       2.374   8.232  17.898  0.00  0.00    +0.000 A 
ENDROOT
BRANCH   4   7
ATOM      7  C   UNL     1      -0.326  10.517  19.155  0.00  0.00    +0.000 C 
ATOM      8  C   UNL     1      -0.319  11.638  19.898  0.00  0.00    +0.000 C 
ATOM      9  S   UNL     1      -1.886  12.542  19.949  0.00  0.00    +0.000 S 
ATOM     10  C   UNL     1      -2.341  11.421  18.650  0.00  0.00    +0.000 C 
ATOM     11  N   UNL     1      -2.940  11.774  17.585  0.00  0.00    +0.000 NA
ATOM     12  C   UNL     1      -2.577  10.856  16.530  0.00  0.00    +0.000 C 
ATOM     13  C   UNL     1      -1.736   9.749  17.204  0.00  0.00    +0.000 C 
ATOM     14  N   UNL     1      -1.542  10.302  18.506  0.00  0.00    +0.000 N 
ENDBRANCH   4   7
BRANCH   1  16
ATOM     15  O   UNL     1       3.560   5.380  17.389  0.00  0.00    +0.000 OA
ATOM     16  S   UNL     1       3.146   5.716  18.831  0.00  0.00    +0.000 S 
ATOM     17  O   UNL     1       4.471   5.531  19.583  0.00  0.00    +0.000 OA
BRANCH  16  18
ATOM     18  N   UNL     1       2.104   4.342  19.374  0.00  0.00    +0.000 NA
ATOM     19  C   UNL     1       2.767   3.411  20.307  0.00  0.00    +0.000 C 
ATOM     20  C   UNL     1       3.717   2.462  19.562  0.00  0.00    +0.000 C 
ATOM     21  O   UNL     1       2.996   1.693  18.618  0.00  0.00    +0.000 OA
ATOM     22  C   UNL     1       2.449   2.552  17.641  0.00  0.00    +0.000 C 
ATOM     23  C   UNL     1       1.477   3.576  18.274  0.00  0.00    +0.000 C 
ENDBRANCH  16  18
ENDBRANCH   1  16
TORSDOF 3
ENDMDL
MODEL 2
REMARK VINA RESULT:      -7.7      0.931      1.307
REMARK  Name = 
REMARK  3 active torsions:
REMARK  status: ('A' for Active; 'I' for Inactive)
REMARK    1  A    between atoms: S_2  and  C_4
REMARK    2  A    between atoms: S_2  and  N_18
REMARK    3  A    between atoms: C_7  and  C_8
REMARK                            x       y       z     vdW  Elec       q    Type
REMARK                         _______ _______ _______ _____ _____    ______ ____
ROOT
ATOM      1  C   UNL     1       2.386   7.365  19.302  0.00  0.00    +0.000 A 
ATOM      2  C   UNL     1       1.785   7.783  20.494  0.00  0.00    +0.000 A 
ATOM      3  C   UNL     1       0.953   8.881  20.483  0.00  0.00    +0.000 A 
ATOM      4  C   UNL     1       0.744   9.612  19.303  0.00  0.00    +0.000 A 
ATOM      5  C   UNL     1       1.500   9.312  18.160  0.00  0.00    +0.000 A 
ATOM      6  C   UNL     1       2.308   8.167  18.153  0.00  0.00    +0.000 A 
ENDROOT
BRANCH   4   7
ATOM      7  C   UNL     1      -0.389  10.549  19.222  0.00  0.00    +0.000 C 
ATOM      8  C   UNL     1      -0.397  11.697  19.922  0.00  0.00    +0.000 C 
ATOM      9  S   UNL     1      -1.954  12.618  19.881  0.00  0.00    +0.000 S 
ATOM     10  C   UNL     1      -2.374  11.453  18.610  0.00  0.00    +0.000 C 
ATOM     11  N   UNL     1      -2.930  11.771  17.511  0.00  0.00    +0.000 NA
ATOM     12  C   UNL     1      -2.540  10.811  16.506  0.00  0.00    +0.000 C 
ATOM     13  C   UNL     1      -1.736   9.722  17.250  0.00  0.00    +0.000 C 
ATOM     14  N   UNL     1      -1.583  10.322  18.537  0.00  0.00    +0.000 N 
ENDBRANCH   4   7
BRANCH   1  16
ATOM     15  O   UNL     1       4.543   5.635  19.516  0.00  0.00    +0.000 OA
ATOM     16  S   UNL     1       3.032   5.701  19.243  0.00  0.00    +0.000 S 
ATOM     17  O   UNL     1       2.477   4.811  20.364  0.00  0.00    +0.000 OA
BRANCH  16  18
ATOM     18  N   UNL     1       2.767   4.758  17.723  0.00  0.00    +0.000 NA
ATOM     19  C   UNL     1       1.454   4.089  17.647  0.00  0.00    +0.000 C 
ATOM     20  C   UNL     1       1.431   2.814  18.501  0.00  0.00    +0.000 C 
ATOM     21  O   UNL     1       2.412   1.903  18.042  0.00  0.00    +0.000 OA
ATOM     22  C   UNL     1       3.692   2.472  18.217  0.00  0.00    +0.000 C 
ATOM     23  C   UNL     1       3.836   3.785  17.411  0.00  0.00    +0.000 C 
ENDBRANCH  16  18
ENDBRANCH   1  16
TORSDOF 3
ENDMDL
MODEL 3
REMARK VINA RESULT:      -7.6      2.413      3.361
REMARK  Name = 
REMARK  3 active torsions:
REMARK  status: ('A' for Active; 'I' for Inactive)
REMARK    1  A    between atoms: S_2  and  C_4
REMARK    2  A    between atoms: S_2  and  N_18
REMARK    3  A    between atoms: C_7  and  C_8
REMARK                            x       y       z     vdW  Elec       q    Type
REMARK                         _______ _______ _______ _____ _____    ______ ____
ROOT
ATOM      1  C   UNL     1       2.178   5.655  19.165  0.00  0.00    +0.000 A 
ATOM      2  C   UNL     1       1.791   5.912  20.484  0.00  0.00    +0.000 A 
ATOM      3  C   UNL     1       1.478   7.200  20.859  0.00  0.00    +0.000 A 
ATOM      4  C   UNL     1       1.592   8.261  19.947  0.00  0.00    +0.000 A 
ATOM      5  C   UNL     1       2.169   8.032  18.688  0.00  0.00    +0.000 A 
ATOM      6  C   UNL     1       2.441   6.718  18.286  0.00  0.00    +0.000 A 
ENDROOT
BRANCH   4   7
ATOM      7  C   UNL     1       0.940   9.547  20.244  0.00  0.00    +0.000 C 
ATOM      8  C   UNL     1       0.513  10.357  19.260  0.00  0.00    +0.000 C 
ATOM      9  S   UNL     1      -0.058  11.990  19.794  0.00  0.00    +0.000 S 
ATOM     10  C   UNL     1       0.060  11.276  21.415  0.00  0.00    +0.000 C 
ATOM     11  N   UNL     1      -0.828  11.408  22.315  0.00  0.00    +0.000 NA
ATOM     12  C   UNL     1      -0.777  10.254  23.181  0.00  0.00    +0.000 C 
ATOM     13  C   UNL     1       0.448   9.433  22.720  0.00  0.00    +0.000 C 
ATOM     14  N   UNL     1       0.797  10.110  21.513  0.00  0.00    +0.000 N 
ENDBRANCH   4   7
BRANCH   1  16
ATOM     15  O   UNL     1       1.232   3.070  19.502  0.00  0.00    +0.000 OA
ATOM     16  S   UNL     1       2.091   3.965  18.594  0.00  0.00    +0.000 S 
ATOM     17  O   UNL     1       1.361   3.831  17.250  0.00  0.00    +0.000 OA
BRANCH  16  18
ATOM     18  N   UNL     1       3.651   3.080  18.368  0.00  0.00    +0.000 NA
ATOM     19  C   UNL     1       4.655   3.344  19.418  0.00  0.00    +0.000 C 
ATOM     20  C   UNL     1       5.335   4.703  19.205  0.00  0.00    +0.000 C 
ATOM     21  O   UNL     1       5.997   4.726  17.953  0.00  0.00    +0.000 OA
ATOM     22  C   UNL     1       5.043   4.596  16.922  0.00  0.00    +0.000 C 
ATOM     23  C   UNL     1       4.271   3.260  17.037  0.00  0.00    +0.000 C 
ENDBRANCH  16  18
ENDBRANCH   1  16
TORSDOF 3
ENDMDL
MODEL 4
REMARK VINA RESULT:      -7.5      1.440      2.035
REMARK  Name = 
REMARK  3 active torsions:
REMARK  status: ('A' for Active; 'I' for Inactive)
REMARK    1  A    between atoms: S_2  and  C_4
REMARK    2  A    between atoms: S_2  and  N_18
REMARK    3  A    between atoms: C_7  and  C_8
REMARK                            x       y       z     vdW  Elec       q    Type
REMARK                         _______ _______ _______ _____ _____    ______ ____
ROOT
ATOM      1  C   UNL     1       2.579   7.192  19.019  0.00  0.00    +0.000 A 
ATOM      2  C   UNL     1       1.924   7.609  20.182  0.00  0.00    +0.000 A 
ATOM      3  C   UNL     1       1.195   8.777  20.165  0.00  0.00    +0.000 A 
ATOM      4  C   UNL     1       1.144   9.577  19.012  0.00  0.00    +0.000 A 
ATOM      5  C   UNL     1       1.960   9.260  17.915  0.00  0.00    +0.000 A 
ATOM      6  C   UNL     1       2.663   8.048  17.909  0.00  0.00    +0.000 A 
ENDROOT
BRANCH   4   7
ATOM      7  C   UNL     1       0.109  10.616  18.894  0.00  0.00    +0.000 C 
ATOM      8  C   UNL     1      -1.198  10.300  18.877  0.00  0.00    +0.000 C 
ATOM      9  S   UNL     1      -2.321  11.669  18.501  0.00  0.00    +0.000 S 
ATOM     10  C   UNL     1      -0.860  12.656  18.709  0.00  0.00    +0.000 C 
ATOM     11  N   UNL     1      -0.826  13.744  19.368  0.00  0.00    +0.000 NA
ATOM     12  C   UNL     1       0.509  13.921  19.890  0.00  0.00    +0.000 C 
ATOM     13  C   UNL     1       1.355  12.780  19.284  0.00  0.00    +0.000 C 
ATOM     14  N   UNL     1       0.343  11.974  18.679  0.00  0.00    +0.000 N 
ENDBRANCH   4   7
BRANCH   1  16
ATOM     15  O   UNL     1       2.739   4.832  17.571  0.00  0.00    +0.000 OA
ATOM     16  S   UNL     1       3.079   5.479  18.922  0.00  0.00    +0.000 S 
ATOM     17  O   UNL     1       4.603   5.305  18.973  0.00  0.00    +0.000 OA
BRANCH  16  18
ATOM     18  N   UNL     1       2.437   4.352  20.182  0.00  0.00    +0.000 NA
ATOM     19  C   UNL     1       3.264   3.148  20.395  0.00  0.00    +0.000 C 
ATOM     20  C   UNL     1       3.036   2.116  19.283  0.00  0.00    +0.000 C 
ATOM     21  O   UNL     1       1.679   1.714  19.260  0.00  0.00    +0.000 OA
ATOM     22  C   UNL     1       0.872   2.826  18.938  0.00  0.00    +0.000 C 
ATOM     23  C   UNL     1       1.026   3.954  19.986  0.00  0.00    +0.000 C 
ENDBRANCH  16  18
ENDBRANCH   1  16
TORSDOF 3
ENDMDL
MODEL 5
REMARK VINA RESULT:      -7.5      1.444      2.237
REMARK  Name = 
REMARK  3 active torsions:
REMARK  status: ('A' for Active; 'I' for Inactive)
REMARK    1  A    between atoms: S_2  and  C_4
REMARK    2  A    between atoms: S_2  and  N_18
REMARK    3  A    between atoms: C_7  and  C_8
REMARK                            x       y       z     vdW  Elec       q    Type
REMARK                         _______ _______ _______ _____ _____    ______ ____
ROOT
ATOM      1  C   UNL     1       2.547   7.276  19.194  0.00  0.00    +0.000 A 
ATOM      2  C   UNL     1       1.862   7.748  20.318  0.00  0.00    +0.000 A 
ATOM      3  C   UNL     1       1.066   8.867  20.206  0.00  0.00    +0.000 A 
ATOM      4  C   UNL     1       0.976   9.565  18.992  0.00  0.00    +0.000 A 
ATOM      5  C   UNL     1       1.814   9.209  17.925  0.00  0.00    +0.000 A 
ATOM      6  C   UNL     1       2.587   8.043  18.018  0.00  0.00    +0.000 A 
ENDROOT
BRANCH   4   7
ATOM      7  C   UNL     1      -0.118  10.529  18.789  0.00  0.00    +0.000 C 
ATOM      8  C   UNL     1      -1.245  10.181  18.143  0.00  0.00    +0.000 C 
ATOM      9  S   UNL     1      -2.384  11.540  17.785  0.00  0.00    +0.000 S 
ATOM     10  C   UNL     1      -1.312  12.453  18.865  0.00  0.00    +0.000 C 
ATOM     11  N   UNL     1      -1.723  13.235  19.781  0.00  0.00    +0.000 NA
ATOM     12  C   UNL     1      -0.730  13.275  20.828  0.00  0.00    +0.000 C 
ATOM     13  C   UNL     1       0.475  12.466  20.300  0.00  0.00    +0.000 C 
ATOM     14  N   UNL     1      -0.077  11.884  19.119  0.00  0.00    +0.000 N 
ENDBRANCH   4   7
BRANCH   1  16
ATOM     15  O   UNL     1       4.662   5.505  19.474  0.00  0.00    +0.000 OA
ATOM     16  S   UNL     1       3.146   5.594  19.238  0.00  0.00    +0.000 S 
ATOM     17  O   UNL     1       2.600   4.803  20.434  0.00  0.00    +0.000 OA
BRANCH  16  18
ATOM     18  N   UNL     1       2.812   4.553  17.797  0.00  0.00    +0.000 NA
ATOM     19  C   UNL     1       1.444   4.003  17.752  0.00  0.00    +0.000 C 
ATOM     20  C   UNL     1       1.293   2.813  18.710  0.00  0.00    +0.000 C 
ATOM     21  O   UNL     1       2.191   1.780  18.349  0.00  0.00    +0.000 OA
ATOM     22  C   UNL     1       3.515   2.243  18.500  0.00  0.00    +0.000 C 
ATOM     23  C   UNL     1       3.790   3.463  17.589  0.00  0.00    +0.000 C 
ENDBRANCH  16  18
ENDBRANCH   1  16
TORSDOF 3
ENDMDL
MODEL 6
REMARK VINA RESULT:      -7.5      1.605      2.196
REMARK  Name = 
REMARK  3 active torsions:
REMARK  status: ('A' for Active; 'I' for Inactive)
REMARK    1  A    between atoms: S_2  and  C_4
REMARK    2  A    between atoms: S_2  and  N_18
REMARK    3  A    between atoms: C_7  and  C_8
REMARK                            x       y       z     vdW  Elec       q    Type
REMARK                         _______ _______ _______ _____ _____    ______ ____
ROOT
ATOM      1  C   UNL     1       2.257   7.064  19.639  0.00  0.00    +0.000 A 
ATOM      2  C   UNL     1       1.647   7.715  20.716  0.00  0.00    +0.000 A 
ATOM      3  C   UNL     1       1.039   8.934  20.513  0.00  0.00    +0.000 A 
ATOM      4  C   UNL     1       1.070   9.552  19.252  0.00  0.00    +0.000 A 
ATOM      5  C   UNL     1       1.850   8.994  18.228  0.00  0.00    +0.000 A 
ATOM      6  C   UNL     1       2.427   7.731  18.415  0.00  0.00    +0.000 A 
ENDROOT
BRANCH   4   7
ATOM      7  C   UNL     1       0.144  10.659  18.964  0.00  0.00    +0.000 C 
ATOM      8  C   UNL     1      -1.189  10.479  18.988  0.00  0.00    +0.000 C 
ATOM      9  S   UNL     1      -2.170  11.878  18.392  0.00  0.00    +0.000 S 
ATOM     10  C   UNL     1      -0.614  12.732  18.451  0.00  0.00    +0.000 C 
ATOM     11  N   UNL     1      -0.464  13.901  18.928  0.00  0.00    +0.000 NA
ATOM     12  C   UNL     1       0.887  14.022  19.425  0.00  0.00    +0.000 C 
ATOM     13  C   UNL     1       1.607  12.719  19.013  0.00  0.00    +0.000 C 
ATOM     14  N   UNL     1       0.513  11.935  18.538  0.00  0.00    +0.000 N 
ENDBRANCH   4   7
BRANCH   1  16
ATOM     15  O   UNL     1       4.079   4.975  19.732  0.00  0.00    +0.000 OA
ATOM     16  S   UNL     1       2.582   5.316  19.809  0.00  0.00    +0.000 S 
ATOM     17  O   UNL     1       2.214   4.777  21.198  0.00  0.00    +0.000 OA
BRANCH  16  18
ATOM     18  N   UNL     1       1.765   4.200  18.644  0.00  0.00    +0.000 NA
ATOM     19  C   UNL     1       1.398   2.890  19.216  0.00  0.00    +0.000 C 
ATOM     20  C   UNL     1       2.620   1.968  19.320  0.00  0.00    +0.000 C 
ATOM     21  O   UNL     1       3.172   1.744  18.035  0.00  0.00    +0.000 OA
ATOM     22  C   UNL     1       3.643   2.967  17.513  0.00  0.00    +0.000 C 
ATOM     23  C   UNL     1       2.497   3.997  17.374  0.00  0.00    +0.000 C 
ENDBRANCH  16  18
ENDBRANCH   1  16
TORSDOF 3
ENDMDL
MODEL 7
REMARK VINA RESULT:      -7.5      1.163      1.907
REMARK  Name = 
REMARK  3 active torsions:
REMARK  status: ('A' for Active; 'I' for Inactive)
REMARK    1  A    between atoms: S_2  and  C_4
REMARK    2  A    between atoms: S_2  and  N_18
REMARK    3  A    between atoms: C_7  and  C_8
REMARK                            x       y       z     vdW  Elec       q    Type
REMARK                         _______ _______ _______ _____ _____    ______ ____
ROOT
ATOM      1  C   UNL     1       2.529   7.317  18.993  0.00  0.00    +0.000 A 
ATOM      2  C   UNL     1       1.923   7.656  20.207  0.00  0.00    +0.000 A 
ATOM      3  C   UNL     1       1.084   8.747  20.264  0.00  0.00    +0.000 A 
ATOM      4  C   UNL     1       0.870   9.548  19.132  0.00  0.00    +0.000 A 
ATOM      5  C   UNL     1       1.630   9.326  17.973  0.00  0.00    +0.000 A 
ATOM      6  C   UNL     1       2.446   8.189  17.895  0.00  0.00    +0.000 A 
ENDROOT
BRANCH   4   7
ATOM      7  C   UNL     1      -0.268  10.481  19.107  0.00  0.00    +0.000 C 
ATOM      8  C   UNL     1      -1.343  10.251  18.331  0.00  0.00    +0.000 C 
ATOM      9  S   UNL     1      -2.543  11.603  18.251  0.00  0.00    +0.000 S 
ATOM     10  C   UNL     1      -1.576  12.269  19.582  0.00  0.00    +0.000 C 
ATOM     11  N   UNL     1      -2.074  12.780  20.635  0.00  0.00    +0.000 NA
ATOM     12  C   UNL     1      -1.134  12.606  21.717  0.00  0.00    +0.000 C 
ATOM     13  C   UNL     1       0.140  12.009  21.078  0.00  0.00    +0.000 C 
ATOM     14  N   UNL     1      -0.323  11.712  19.761  0.00  0.00    +0.000 N 
ENDBRANCH   4   7
BRANCH   1  16
ATOM     15  O   UNL     1       3.559   5.308  17.383  0.00  0.00    +0.000 OA
ATOM     16  S   UNL     1       3.186   5.664  18.831  0.00  0.00    +0.000 S 
ATOM     17  O   UNL     1       4.532   5.490  19.548  0.00  0.00    +0.000 OA
BRANCH  16  18
ATOM     18  N   UNL     1       2.160   4.299  19.424  0.00  0.00    +0.000 NA
ATOM     19  C   UNL     1       2.856   3.371  20.336  0.00  0.00    +0.000 C 
ATOM     20  C   UNL     1       3.772   2.413  19.561  0.00  0.00    +0.000 C 
ATOM     21  O   UNL     1       3.010   1.641  18.651  0.00  0.00    +0.000 OA
ATOM     22  C   UNL     1       2.429   2.496  17.690  0.00  0.00    +0.000 C 
ATOM     23  C   UNL     1       1.488   3.528  18.355  0.00  0.00    +0.000 C 
ENDBRANCH  16  18
ENDBRANCH   1  16
TORSDOF 3
ENDMDL
MODEL 8
REMARK VINA RESULT:      -7.4      3.005      4.105
REMARK  Name = 
REMARK  3 active torsions:
REMARK  status: ('A' for Active; 'I' for Inactive)
REMARK    1  A    between atoms: S_2  and  C_4
REMARK    2  A    between atoms: S_2  and  N_18
REMARK    3  A    between atoms: C_7  and  C_8
REMARK                            x       y       z     vdW  Elec       q    Type
REMARK                         _______ _______ _______ _____ _____    ______ ____
ROOT
ATOM      1  C   UNL     1       3.016   6.612  18.603  0.00  0.00    +0.000 A 
ATOM      2  C   UNL     1       2.786   7.715  17.774  0.00  0.00    +0.000 A 
ATOM      3  C   UNL     1       2.033   8.768  18.243  0.00  0.00    +0.000 A 
ATOM      4  C   UNL     1       1.453   8.724  19.521  0.00  0.00    +0.000 A 
ATOM      5  C   UNL     1       1.518   7.539  20.269  0.00  0.00    +0.000 A 
ATOM      6  C   UNL     1       2.324   6.485  19.818  0.00  0.00    +0.000 A 
ENDROOT
BRANCH   4   7
ATOM      7  C   UNL     1       0.954   9.966  20.134  0.00  0.00    +0.000 C 
ATOM      8  C   UNL     1       0.590  11.019  19.381  0.00  0.00    +0.000 C 
ATOM      9  S   UNL     1       0.218  12.534  20.299  0.00  0.00    +0.000 S 
ATOM     10  C   UNL     1       0.303  11.459  21.709  0.00  0.00    +0.000 C 
ATOM     11  N   UNL     1      -0.540  11.470  22.661  0.00  0.00    +0.000 NA
ATOM     12  C   UNL     1      -0.591  10.148  23.241  0.00  0.00    +0.000 C 
ATOM     13  C   UNL     1       0.523   9.336  22.543  0.00  0.00    +0.000 C 
ATOM     14  N   UNL     1       0.910  10.234  21.502  0.00  0.00    +0.000 N 
ENDBRANCH   4   7
BRANCH   1  16
ATOM     15  O   UNL     1       4.960   4.798  19.393  0.00  0.00    +0.000 OA
ATOM     16  S   UNL     1       4.367   5.525  18.175  0.00  0.00    +0.000 S 
ATOM     17  O   UNL     1       3.923   4.345  17.299  0.00  0.00    +0.000 OA
BRANCH  16  18
ATOM     18  N   UNL     1       5.776   6.250  17.304  0.00  0.00    +0.000 NA
ATOM     19  C   UNL     1       5.945   5.770  15.919  0.00  0.00    +0.000 C 
ATOM     20  C   UNL     1       6.581   4.373  15.891  0.00  0.00    +0.000 C 
ATOM     21  O   UNL     1       7.859   4.408  16.499  0.00  0.00    +0.000 OA
ATOM     22  C   UNL     1       7.715   4.749  17.861  0.00  0.00    +0.000 C 
ATOM     23  C   UNL     1       7.063   6.143  18.024  0.00  0.00    +0.000 C 
ENDBRANCH  16  18
ENDBRANCH   1  16
TORSDOF 3
ENDMDL
MODEL 9
REMARK VINA RESULT:      -7.4      2.175      2.950
REMARK  Name = 
REMARK  3 active torsions:
REMARK  status: ('A' for Active; 'I' for Inactive)
REMARK    1  A    between atoms: S_2  and  C_4
REMARK    2  A    between atoms: S_2  and  N_18
REMARK    3  A    between atoms: C_7  and  C_8
REMARK                            x       y       z     vdW  Elec       q    Type
REMARK                         _______ _______ _______ _____ _____    ______ ____
ROOT
ATOM      1  C   UNL     1       2.582   6.998  18.742  0.00  0.00    +0.000 A 
ATOM      2  C   UNL     1       2.164   7.961  17.819  0.00  0.00    +0.000 A 
ATOM      3  C   UNL     1       1.492   9.078  18.264  0.00  0.00    +0.000 A 
ATOM      4  C   UNL     1       1.178   9.233  19.623  0.00  0.00    +0.000 A 
ATOM      5  C   UNL     1       1.421   8.177  20.514  0.00  0.00    +0.000 A 
ATOM      6  C   UNL     1       2.148   7.063  20.076  0.00  0.00    +0.000 A 
ENDROOT
BRANCH   4   7
ATOM      7  C   UNL     1       0.778  10.557  20.129  0.00  0.00    +0.000 C 
ATOM      8  C   UNL     1       0.699  11.621  19.312  0.00  0.00    +0.000 C 
ATOM      9  S   UNL     1       0.414  13.209  20.133  0.00  0.00    +0.000 S 
ATOM     10  C   UNL     1       0.115  12.188  21.554  0.00  0.00    +0.000 C 
ATOM     11  N   UNL     1      -0.857  12.357  22.357  0.00  0.00    +0.000 NA
ATOM     12  C   UNL     1      -1.196  11.080  22.940  0.00  0.00    +0.000 C 
ATOM     13  C   UNL     1      -0.119  10.090  22.445  0.00  0.00    +0.000 C 
ATOM     14  N   UNL     1       0.557  10.881  21.468  0.00  0.00    +0.000 N 
ENDBRANCH   4   7
BRANCH   1  16
ATOM     15  O   UNL     1       4.822   6.459  17.199  0.00  0.00    +0.000 OA
ATOM     16  S   UNL     1       3.850   5.852  18.223  0.00  0.00    +0.000 S 
ATOM     17  O   UNL     1       4.804   5.467  19.363  0.00  0.00    +0.000 OA
BRANCH  16  18
ATOM     18  N   UNL     1       3.311   4.278  17.514  0.00  0.00    +0.000 NA
ATOM     19  C   UNL     1       1.860   4.032  17.621  0.00  0.00    +0.000 C 
ATOM     20  C   UNL     1       1.477   3.583  19.038  0.00  0.00    +0.000 C 
ATOM     21  O   UNL     1       2.149   2.381  19.366  0.00  0.00    +0.000 OA
ATOM     22  C   UNL     1       3.539   2.619  19.390  0.00  0.00    +0.000 C 
ATOM     23  C   UNL     1       4.050   3.097  18.010  0.00  0.00    +0.000 C 
ENDBRANCH  16  18
ENDBRANCH   1  16
TORSDOF 3
ENDMDL
