MODEL 1
REMARK VINA RESULT:      -7.9      0.000      0.000
REMARK  Name = 
REMARK  4 active torsions:
REMARK  status: ('A' for Active; 'I' for Inactive)
REMARK    1  A    between atoms: C_1  and  C_2
REMARK    2  A    between atoms: N_4  and  C_5
REMARK    3  A    between atoms: C_5  and  C_6
REMARK    4  A    between atoms: C_14  and  N_15
REMARK                            x       y       z     vdW  Elec       q    Type
REMARK                         _______ _______ _______ _____ _____    ______ ____
ROOT
ATOM      1  C   UNL     1       6.637   5.226  16.348  0.00  0.00    +0.000 C 
ATOM      2  O   UNL     1       6.666   4.062  17.234  0.00  0.00    +0.000 OA
ATOM      3  C   UNL     1       5.696   4.251  18.206  0.00  0.00    +0.000 C 
ATOM      4  O   UNL     1       5.648   3.626  19.247  0.00  0.00    +0.000 OA
ATOM      5  N   UNL     1       4.892   5.258  17.776  0.00  0.00    +0.000 N 
ATOM      6  C   UNL     1       3.935   6.077  18.328  0.00  0.00    +0.000 A 
ATOM      7  C   UNL     1       3.221   5.957  19.493  0.00  0.00    +0.000 A 
ATOM      8  C   UNL     1       2.281   6.962  19.769  0.00  0.00    +0.000 A 
ATOM      9  C   UNL     1       2.079   8.082  18.915  0.00  0.00    +0.000 A 
ATOM     10  C   UNL     1       2.873   8.179  17.762  0.00  0.00    +0.000 A 
ATOM     11  C   UNL     1       3.786   7.179  17.479  0.00  0.00    +0.000 A 
ATOM     12  C   UNL     1       4.797   7.131  16.356  0.00  0.00    +0.000 C 
ATOM     13  C   UNL     1       5.199   5.661  16.438  0.00  0.00    +0.000 C 
ENDROOT
BRANCH   9  14
ATOM     14  N   UNL     1       1.122   9.029  19.217  0.00  0.00    +0.000 N 
ATOM     15  C   UNL     1       0.801  10.156  18.328  0.00  0.00    +0.000 C 
ATOM     16  C   UNL     1       1.108  11.496  19.010  0.00  0.00    +0.000 C 
ATOM     17  O   UNL     1       0.469  11.595  20.294  0.00  0.00    +0.000 OA
ATOM     18  C   UNL     1       0.924  10.538  21.155  0.00  0.00    +0.000 C 
ATOM     19  C   UNL     1       0.586   9.150  20.582  0.00  0.00    +0.000 C 
ENDBRANCH   9  14
BRANCH   1  20
ATOM     20  C   UNL     1       7.013   4.838  14.921  0.00  0.00    +0.000 C 
BRANCH  20  24
ATOM     21  C   UNL     1       4.779   3.296  12.286  0.00  0.00    +0.000 C 
ATOM     22  C   UNL     1       6.038   3.863  12.878  0.00  0.00    +0.000 C 
ATOM     23  O   UNL     1       7.071   4.010  12.236  0.00  0.00    +0.000 OA
ATOM     24  N   UNL     1       5.913   4.231  14.199  0.00  0.00    +0.000 N 
ATOM     25  H   UNL     1       5.138   3.864  14.737  0.00  0.00    +0.000 HD
ENDBRANCH  20  24
ENDBRANCH   1  20
TORSDOF 3
ENDMDL
MODEL 2
REMARK VINA RESULT:      -7.6      2.953      9.650
REMARK  Name = 
REMARK  4 active torsions:
REMARK  status: ('A' for Active; 'I' for Inactive)
REMARK    1  A    between atoms: C_1  and  C_2
REMARK    2  A    between atoms: N_4  and  C_5
REMARK    3  A    between atoms: C_5  and  C_6
REMARK    4  A    between atoms: C_14  and  N_15
REMARK                            x       y       z     vdW  Elec       q    Type
REMARK                         _______ _______ _______ _____ _____    ______ ____
ROOT
ATOM      1  C   UNL     1      -0.126  11.157  21.850  0.00  0.00    +0.000 C 
ATOM      2  O   UNL     1      -0.399  12.069  20.739  0.00  0.00    +0.000 OA
ATOM      3  C   UNL     1       0.180  11.529  19.601  0.00  0.00    +0.000 C 
ATOM      4  O   UNL     1       0.388  12.157  18.582  0.00  0.00    +0.000 OA
ATOM      5  N   UNL     1       0.481  10.235  19.885  0.00  0.00    +0.000 N 
ATOM      6  C   UNL     1       1.253   9.243  19.324  0.00  0.00    +0.000 A 
ATOM      7  C   UNL     1       1.781   9.128  18.063  0.00  0.00    +0.000 A 
ATOM      8  C   UNL     1       2.513   7.963  17.786  0.00  0.00    +0.000 A 
ATOM      9  C   UNL     1       2.740   6.948  18.755  0.00  0.00    +0.000 A 
ATOM     10  C   UNL     1       2.219   7.142  20.043  0.00  0.00    +0.000 A 
ATOM     11  C   UNL     1       1.481   8.280  20.313  0.00  0.00    +0.000 A 
ATOM     12  C   UNL     1       0.915   8.731  21.641  0.00  0.00    +0.000 C 
ATOM     13  C   UNL     1      -0.031   9.825  21.156  0.00  0.00    +0.000 C 
ENDROOT
BRANCH   9  14
ATOM     14  N   UNL     1       3.443   5.807  18.422  0.00  0.00    +0.000 N 
ATOM     15  C   UNL     1       2.921   4.451  18.647  0.00  0.00    +0.000 C 
ATOM     16  C   UNL     1       3.811   3.677  19.629  0.00  0.00    +0.000 C 
ATOM     17  O   UNL     1       5.188   3.687  19.217  0.00  0.00    +0.000 OA
ATOM     18  C   UNL     1       5.671   5.039  19.141  0.00  0.00    +0.000 C 
ATOM     19  C   UNL     1       4.880   5.871  18.116  0.00  0.00    +0.000 C 
ENDBRANCH   9  14
BRANCH   1  20
ATOM     20  C   UNL     1      -1.263  11.176  22.868  0.00  0.00    +0.000 C 
BRANCH  20  24
ATOM     21  C   UNL     1      -3.330  14.193  23.839  0.00  0.00    +0.000 C 
ATOM     22  C   UNL     1      -2.997  12.739  23.659  0.00  0.00    +0.000 C 
ATOM     23  O   UNL     1      -3.786  11.836  23.916  0.00  0.00    +0.000 OA
ATOM     24  N   UNL     1      -1.738  12.516  23.148  0.00  0.00    +0.000 N 
ATOM     25  H   UNL     1      -1.055  13.263  23.193  0.00  0.00    +0.000 HD
ENDBRANCH  20  24
ENDBRANCH   1  20
TORSDOF 3
ENDMDL
MODEL 3
REMARK VINA RESULT:      -7.5      1.091      1.513
REMARK  Name = 
REMARK  4 active torsions:
REMARK  status: ('A' for Active; 'I' for Inactive)
REMARK    1  A    between atoms: C_1  and  C_2
REMARK    2  A    between atoms: N_4  and  C_5
REMARK    3  A    between atoms: C_5  and  C_6
REMARK    4  A    between atoms: C_14  and  N_15
REMARK                            x       y       z     vdW  Elec       q    Type
REMARK                         _______ _______ _______ _____ _____    ______ ____
ROOT
ATOM      1  C   UNL     1       6.024   4.400  15.919  0.00  0.00    +0.000 C 
ATOM      2  O   UNL     1       5.510   3.117  16.400  0.00  0.00    +0.000 OA
ATOM      3  C   UNL     1       4.492   3.386  17.302  0.00  0.00    +0.000 C 
ATOM      4  O   UNL     1       4.053   2.572  18.091  0.00  0.00    +0.000 OA
ATOM      5  N   UNL     1       4.153   4.691  17.142  0.00  0.00    +0.000 N 
ATOM      6  C   UNL     1       3.429   5.628  17.843  0.00  0.00    +0.000 A 
ATOM      7  C   UNL     1       2.512   5.476  18.853  0.00  0.00    +0.000 A 
ATOM      8  C   UNL     1       1.917   6.645  19.351  0.00  0.00    +0.000 A 
ATOM      9  C   UNL     1       2.250   7.942  18.873  0.00  0.00    +0.000 A 
ATOM     10  C   UNL     1       3.231   8.042  17.874  0.00  0.00    +0.000 A 
ATOM     11  C   UNL     1       3.805   6.889  17.368  0.00  0.00    +0.000 A 
ATOM     12  C   UNL     1       4.934   6.771  16.370  0.00  0.00    +0.000 C 
ATOM     13  C   UNL     1       4.814   5.290  16.025  0.00  0.00    +0.000 C 
ENDROOT
BRANCH   9  14
ATOM     14  N   UNL     1       1.614   9.059  19.376  0.00  0.00    +0.000 N 
ATOM     15  C   UNL     1       1.135   9.151  20.764  0.00  0.00    +0.000 C 
ATOM     16  C   UNL     1      -0.389   9.322  20.806  0.00  0.00    +0.000 C 
ATOM     17  O   UNL     1      -0.823  10.423  19.988  0.00  0.00    +0.000 OA
ATOM     18  C   UNL     1      -0.432  10.206  18.622  0.00  0.00    +0.000 C 
ATOM     19  C   UNL     1       1.096  10.100  18.475  0.00  0.00    +0.000 C 
ENDBRANCH   9  14
BRANCH   1  20
ATOM     20  C   UNL     1       6.511   4.289  14.477  0.00  0.00    +0.000 C 
BRANCH  20  24
ATOM     21  C   UNL     1       4.478   3.191  11.480  0.00  0.00    +0.000 C 
ATOM     22  C   UNL     1       5.705   3.409  12.320  0.00  0.00    +0.000 C 
ATOM     23  O   UNL     1       6.836   3.141  11.932  0.00  0.00    +0.000 OA
ATOM     24  N   UNL     1       5.443   3.967  13.551  0.00  0.00    +0.000 N 
ATOM     25  H   UNL     1       4.497   3.934  13.911  0.00  0.00    +0.000 HD
ENDBRANCH  20  24
ENDBRANCH   1  20
TORSDOF 3
ENDMDL
MODEL 4
REMARK VINA RESULT:      -7.4      2.043      3.155
REMARK  Name = 
REMARK  4 active torsions:
REMARK  status: ('A' for Active; 'I' for Inactive)
REMARK    1  A    between atoms: C_1  and  C_2
REMARK    2  A    between atoms: N_4  and  C_5
REMARK    3  A    between atoms: C_5  and  C_6
REMARK    4  A    between atoms: C_14  and  N_15
REMARK                            x       y       z     vdW  Elec       q    Type
REMARK                         _______ _______ _______ _____ _____    ______ ____
ROOT
ATOM      1  C   UNL     1       3.861   4.878  18.373  0.00  0.00    +0.000 C 
ATOM      2  O   UNL     1       3.446   4.071  19.520  0.00  0.00    +0.000 OA
ATOM      3  C   UNL     1       2.681   4.880  20.346  0.00  0.00    +0.000 C 
ATOM      4  O   UNL     1       2.423   4.616  21.504  0.00  0.00    +0.000 OA
ATOM      5  N   UNL     1       2.345   5.980  19.625  0.00  0.00    +0.000 N 
ATOM      6  C   UNL     1       1.832   7.229  19.889  0.00  0.00    +0.000 A 
ATOM      7  C   UNL     1       1.180   7.711  20.996  0.00  0.00    +0.000 A 
ATOM      8  C   UNL     1       0.748   9.045  20.947  0.00  0.00    +0.000 A 
ATOM      9  C   UNL     1       0.988   9.892  19.830  0.00  0.00    +0.000 A 
ATOM     10  C   UNL     1       1.704   9.361  18.746  0.00  0.00    +0.000 A 
ATOM     11  C   UNL     1       2.113   8.040  18.784  0.00  0.00    +0.000 A 
ATOM     12  C   UNL     1       2.968   7.300  17.780  0.00  0.00    +0.000 C 
ATOM     13  C   UNL     1       2.734   5.868  18.253  0.00  0.00    +0.000 C 
ENDROOT
BRANCH   9  14
ATOM     14  N   UNL     1       0.517  11.190  19.820  0.00  0.00    +0.000 N 
ATOM     15  C   UNL     1      -0.892  11.529  19.572  0.00  0.00    +0.000 C 
ATOM     16  C   UNL     1      -1.035  12.378  18.302  0.00  0.00    +0.000 C 
ATOM     17  O   UNL     1      -0.178  13.532  18.336  0.00  0.00    +0.000 OA
ATOM     18  C   UNL     1       1.196  13.123  18.453  0.00  0.00    +0.000 C 
ATOM     19  C   UNL     1       1.447  12.327  19.745  0.00  0.00    +0.000 C 
ENDBRANCH   9  14
BRANCH   1  20
ATOM     20  C   UNL     1       3.986   4.021  17.116  0.00  0.00    +0.000 C 
BRANCH  20  24
ATOM     21  C   UNL     1       7.225   4.706  15.283  0.00  0.00    +0.000 C 
ATOM     22  C   UNL     1       5.815   4.945  15.746  0.00  0.00    +0.000 C 
ATOM     23  O   UNL     1       5.141   5.897  15.371  0.00  0.00    +0.000 OA
ATOM     24  N   UNL     1       5.342   3.978  16.604  0.00  0.00    +0.000 N 
ATOM     25  H   UNL     1       6.005   3.369  17.068  0.00  0.00    +0.000 HD
ENDBRANCH  20  24
ENDBRANCH   1  20
TORSDOF 3
ENDMDL
MODEL 5
REMARK VINA RESULT:      -7.4      2.779      9.596
REMARK  Name = 
REMARK  4 active torsions:
REMARK  status: ('A' for Active; 'I' for Inactive)
REMARK    1  A    between atoms: C_1  and  C_2
REMARK    2  A    between atoms: N_4  and  C_5
REMARK    3  A    between atoms: C_5  and  C_6
REMARK    4  A    between atoms: C_14  and  N_15
REMARK                            x       y       z     vdW  Elec       q    Type
REMARK                         _______ _______ _______ _____ _____    ______ ____
ROOT
ATOM      1  C   UNL     1      -0.169  11.292  21.902  0.00  0.00    +0.000 C 
ATOM      2  O   UNL     1      -0.372  12.170  20.750  0.00  0.00    +0.000 OA
ATOM      3  C   UNL     1       0.222  11.566  19.653  0.00  0.00    +0.000 C 
ATOM      4  O   UNL     1       0.486  12.148  18.619  0.00  0.00    +0.000 OA
ATOM      5  N   UNL     1       0.465  10.274  19.993  0.00  0.00    +0.000 N 
ATOM      6  C   UNL     1       1.216   9.234  19.494  0.00  0.00    +0.000 A 
ATOM      7  C   UNL     1       1.778   9.052  18.256  0.00  0.00    +0.000 A 
ATOM      8  C   UNL     1       2.474   7.852  18.046  0.00  0.00    +0.000 A 
ATOM      9  C   UNL     1       2.631   6.866  19.058  0.00  0.00    +0.000 A 
ATOM     10  C   UNL     1       2.078   7.127  20.321  0.00  0.00    +0.000 A 
ATOM     11  C   UNL     1       1.375   8.301  20.525  0.00  0.00    +0.000 A 
ATOM     12  C   UNL     1       0.785   8.822  21.816  0.00  0.00    +0.000 C 
ATOM     13  C   UNL     1      -0.103   9.932  21.260  0.00  0.00    +0.000 C 
ENDROOT
BRANCH   9  14
ATOM     14  N   UNL     1       3.300   5.688  18.791  0.00  0.00    +0.000 N 
ATOM     15  C   UNL     1       4.646   5.648  18.200  0.00  0.00    +0.000 C 
ATOM     16  C   UNL     1       4.625   4.940  16.838  0.00  0.00    +0.000 C 
ATOM     17  O   UNL     1       4.010   3.643  16.924  0.00  0.00    +0.000 OA
ATOM     18  C   UNL     1       2.655   3.769  17.388  0.00  0.00    +0.000 C 
ATOM     19  C   UNL     1       2.587   4.402  18.789  0.00  0.00    +0.000 C 
ENDBRANCH   9  14
BRANCH   1  20
ATOM     20  C   UNL     1      -1.336  11.391  22.880  0.00  0.00    +0.000 C 
BRANCH  20  24
ATOM     21  C   UNL     1      -4.538  13.363  22.456  0.00  0.00    +0.000 C 
ATOM     22  C   UNL     1      -3.546  12.454  23.127  0.00  0.00    +0.000 C 
ATOM     23  O   UNL     1      -3.762  11.906  24.201  0.00  0.00    +0.000 OA
ATOM     24  N   UNL     1      -2.387  12.270  22.407  0.00  0.00    +0.000 N 
ATOM     25  H   UNL     1      -2.160  12.927  21.670  0.00  0.00    +0.000 HD
ENDBRANCH  20  24
ENDBRANCH   1  20
TORSDOF 3
ENDMDL
MODEL 6
REMARK VINA RESULT:      -7.4      0.990      1.188
REMARK  Name = 
REMARK  4 active torsions:
REMARK  status: ('A' for Active; 'I' for Inactive)
REMARK    1  A    between atoms: C_1  and  C_2
REMARK    2  A    between atoms: N_4  and  C_5
REMARK    3  A    between atoms: C_5  and  C_6
REMARK    4  A    between atoms: C_14  and  N_15
REMARK                            x       y       z     vdW  Elec       q    Type
REMARK                         _______ _______ _______ _____ _____    ______ ____
ROOT
ATOM      1  C   UNL     1       6.210   4.895  16.631  0.00  0.00    +0.000 C 
ATOM      2  O   UNL     1       6.185   3.809  17.610  0.00  0.00    +0.000 OA
ATOM      3  C   UNL     1       5.257   4.144  18.585  0.00  0.00    +0.000 C 
ATOM      4  O   UNL     1       5.196   3.610  19.675  0.00  0.00    +0.000 OA
ATOM      5  N   UNL     1       4.512   5.165  18.089  0.00  0.00    +0.000 N 
ATOM      6  C   UNL     1       3.627   6.091  18.592  0.00  0.00    +0.000 A 
ATOM      7  C   UNL     1       2.939   6.116  19.779  0.00  0.00    +0.000 A 
ATOM      8  C   UNL     1       2.077   7.203  19.990  0.00  0.00    +0.000 A 
ATOM      9  C   UNL     1       1.927   8.260  19.050  0.00  0.00    +0.000 A 
ATOM     10  C   UNL     1       2.693   8.208  17.876  0.00  0.00    +0.000 A 
ATOM     11  C   UNL     1       3.528   7.127  17.657  0.00  0.00    +0.000 A 
ATOM     12  C   UNL     1       4.503   6.917  16.520  0.00  0.00    +0.000 C 
ATOM     13  C   UNL     1       4.807   5.435  16.716  0.00  0.00    +0.000 C 
ENDROOT
BRANCH   9  14
ATOM     14  N   UNL     1       1.044   9.293  19.293  0.00  0.00    +0.000 N 
ATOM     15  C   UNL     1       0.884  10.440  18.386  0.00  0.00    +0.000 C 
ATOM     16  C   UNL     1       1.270  11.749  19.088  0.00  0.00    +0.000 C 
ATOM     17  O   UNL     1       0.564  11.913  20.330  0.00  0.00    +0.000 OA
ATOM     18  C   UNL     1       0.865  10.822  21.216  0.00  0.00    +0.000 C 
ATOM     19  C   UNL     1       0.438   9.469  20.622  0.00  0.00    +0.000 C 
ENDBRANCH   9  14
BRANCH   1  20
ATOM     20  C   UNL     1       6.520   4.367  15.233  0.00  0.00    +0.000 C 
BRANCH  20  24
ATOM     21  C   UNL     1       8.605   6.045  12.559  0.00  0.00    +0.000 C 
ATOM     22  C   UNL     1       7.602   5.088  13.140  0.00  0.00    +0.000 C 
ATOM     23  O   UNL     1       7.025   4.239  12.471  0.00  0.00    +0.000 OA
ATOM     24  N   UNL     1       7.418   5.234  14.496  0.00  0.00    +0.000 N 
ATOM     25  H   UNL     1       7.720   6.093  14.940  0.00  0.00    +0.000 HD
ENDBRANCH  20  24
ENDBRANCH   1  20
TORSDOF 3
ENDMDL
MODEL 7
REMARK VINA RESULT:      -7.3      1.995      3.071
REMARK  Name = 
REMARK  4 active torsions:
REMARK  status: ('A' for Active; 'I' for Inactive)
REMARK    1  A    between atoms: C_1  and  C_2
REMARK    2  A    between atoms: N_4  and  C_5
REMARK    3  A    between atoms: C_5  and  C_6
REMARK    4  A    between atoms: C_14  and  N_15
REMARK                            x       y       z     vdW  Elec       q    Type
REMARK                         _______ _______ _______ _____ _____    ______ ____
ROOT
ATOM      1  C   UNL     1       3.982   4.676  18.448  0.00  0.00    +0.000 C 
ATOM      2  O   UNL     1       3.513   3.894  19.592  0.00  0.00    +0.000 OA
ATOM      3  C   UNL     1       2.725   4.726  20.373  0.00  0.00    +0.000 C 
ATOM      4  O   UNL     1       2.419   4.487  21.524  0.00  0.00    +0.000 OA
ATOM      5  N   UNL     1       2.431   5.817  19.619  0.00  0.00    +0.000 N 
ATOM      6  C   UNL     1       1.923   7.077  19.841  0.00  0.00    +0.000 A 
ATOM      7  C   UNL     1       1.234   7.586  20.912  0.00  0.00    +0.000 A 
ATOM      8  C   UNL     1       0.821   8.924  20.823  0.00  0.00    +0.000 A 
ATOM      9  C   UNL     1       1.115   9.747  19.702  0.00  0.00    +0.000 A 
ATOM     10  C   UNL     1       1.866   9.189  18.656  0.00  0.00    +0.000 A 
ATOM     11  C   UNL     1       2.257   7.864  18.734  0.00  0.00    +0.000 A 
ATOM     12  C   UNL     1       3.142   7.096  17.778  0.00  0.00    +0.000 C 
ATOM     13  C   UNL     1       2.873   5.676  18.266  0.00  0.00    +0.000 C 
ENDROOT
BRANCH   9  14
ATOM     14  N   UNL     1       0.660  11.050  19.650  0.00  0.00    +0.000 N 
ATOM     15  C   UNL     1       0.982  12.052  20.678  0.00  0.00    +0.000 C 
ATOM     16  C   UNL     1      -0.290  12.543  21.380  0.00  0.00    +0.000 C 
ATOM     17  O   UNL     1      -1.274  13.002  20.437  0.00  0.00    +0.000 OA
ATOM     18  C   UNL     1      -1.636  11.936  19.543  0.00  0.00    +0.000 C 
ATOM     19  C   UNL     1      -0.427  11.432  18.736  0.00  0.00    +0.000 C 
ENDBRANCH   9  14
BRANCH   1  20
ATOM     20  C   UNL     1       4.147   3.795  17.213  0.00  0.00    +0.000 C 
BRANCH  20  24
ATOM     21  C   UNL     1       7.249   4.681  15.235  0.00  0.00    +0.000 C 
ATOM     22  C   UNL     1       5.834   4.806  15.728  0.00  0.00    +0.000 C 
ATOM     23  O   UNL     1       5.056   5.659  15.316  0.00  0.00    +0.000 OA
ATOM     24  N   UNL     1       5.485   3.854  16.660  0.00  0.00    +0.000 N 
ATOM     25  H   UNL     1       6.220   3.348  17.139  0.00  0.00    +0.000 HD
ENDBRANCH  20  24
ENDBRANCH   1  20
TORSDOF 3
ENDMDL
MODEL 8
REMARK VINA RESULT:      -7.3      2.002      7.982
REMARK  Name = 
REMARK  4 active torsions:
REMARK  status: ('A' for Active; 'I' for Inactive)
REMARK    1  A    between atoms: C_1  and  C_2
REMARK    2  A    between atoms: N_4  and  C_5
REMARK    3  A    between atoms: C_5  and  C_6
REMARK    4  A    between atoms: C_14  and  N_15
REMARK                            x       y       z     vdW  Elec       q    Type
REMARK                         _______ _______ _______ _____ _____    ______ ____
ROOT
ATOM      1  C   UNL     1      -0.130  10.540  19.012  0.00  0.00    +0.000 C 
ATOM      2  O   UNL     1      -0.603  10.293  20.374  0.00  0.00    +0.000 OA
ATOM      3  C   UNL     1      -0.001   9.127  20.821  0.00  0.00    +0.000 C 
ATOM      4  O   UNL     1      -0.386   8.490  21.782  0.00  0.00    +0.000 OA
ATOM      5  N   UNL     1       1.022   8.856  19.969  0.00  0.00    +0.000 N 
ATOM      6  C   UNL     1       1.834   7.779  19.694  0.00  0.00    +0.000 A 
ATOM      7  C   UNL     1       2.093   6.647  20.424  0.00  0.00    +0.000 A 
ATOM      8  C   UNL     1       3.005   5.732  19.874  0.00  0.00    +0.000 A 
ATOM      9  C   UNL     1       3.623   5.928  18.609  0.00  0.00    +0.000 A 
ATOM     10  C   UNL     1       3.283   7.080  17.883  0.00  0.00    +0.000 A 
ATOM     11  C   UNL     1       2.399   7.992  18.432  0.00  0.00    +0.000 A 
ATOM     12  C   UNL     1       1.827   9.237  17.792  0.00  0.00    +0.000 C 
ATOM     13  C   UNL     1       1.237   9.910  19.028  0.00  0.00    +0.000 C 
ENDROOT
BRANCH   9  14
ATOM     14  N   UNL     1       4.536   5.012  18.125  0.00  0.00    +0.000 N 
ATOM     15  C   UNL     1       5.842   4.774  18.757  0.00  0.00    +0.000 C 
ATOM     16  C   UNL     1       6.986   5.129  17.798  0.00  0.00    +0.000 C 
ATOM     17  O   UNL     1       6.844   4.462  16.532  0.00  0.00    +0.000 OA
ATOM     18  C   UNL     1       5.603   4.838  15.912  0.00  0.00    +0.000 C 
ATOM     19  C   UNL     1       4.391   4.447  16.775  0.00  0.00    +0.000 C 
ENDBRANCH   9  14
BRANCH   1  20
ATOM     20  C   UNL     1      -0.051  12.037  18.722  0.00  0.00    +0.000 C 
BRANCH  20  24
ATOM     21  C   UNL     1       3.283  13.766  18.256  0.00  0.00    +0.000 C 
ATOM     22  C   UNL     1       1.965  13.445  18.902  0.00  0.00    +0.000 C 
ATOM     23  O   UNL     1       1.543  14.037  19.888  0.00  0.00    +0.000 OA
ATOM     24  N   UNL     1       1.262  12.447  18.264  0.00  0.00    +0.000 N 
ATOM     25  H   UNL     1       1.755  11.835  17.625  0.00  0.00    +0.000 HD
ENDBRANCH  20  24
ENDBRANCH   1  20
TORSDOF 3
ENDMDL
MODEL 9
REMARK VINA RESULT:      -7.2      3.127      8.303
REMARK  Name = 
REMARK  4 active torsions:
REMARK  status: ('A' for Active; 'I' for Inactive)
REMARK    1  A    between atoms: C_1  and  C_2
REMARK    2  A    between atoms: N_4  and  C_5
REMARK    3  A    between atoms: C_5  and  C_6
REMARK    4  A    between atoms: C_14  and  N_15
REMARK                            x       y       z     vdW  Elec       q    Type
REMARK                         _______ _______ _______ _____ _____    ______ ____
ROOT
ATOM      1  C   UNL     1       0.329  10.911  19.126  0.00  0.00    +0.000 C 
ATOM      2  O   UNL     1      -0.140  10.851  20.511  0.00  0.00    +0.000 OA
ATOM      3  C   UNL     1       0.184   9.598  21.008  0.00  0.00    +0.000 C 
ATOM      4  O   UNL     1      -0.305   9.119  22.012  0.00  0.00    +0.000 OA
ATOM      5  N   UNL     1       1.081   9.049  20.149  0.00  0.00    +0.000 N 
ATOM      6  C   UNL     1       1.604   7.797  19.916  0.00  0.00    +0.000 A 
ATOM      7  C   UNL     1       1.613   6.673  20.702  0.00  0.00    +0.000 A 
ATOM      8  C   UNL     1       2.261   5.541  20.183  0.00  0.00    +0.000 A 
ATOM      9  C   UNL     1       2.861   5.522  18.894  0.00  0.00    +0.000 A 
ATOM     10  C   UNL     1       2.779   6.685  18.113  0.00  0.00    +0.000 A 
ATOM     11  C   UNL     1       2.157   7.808  18.631  0.00  0.00    +0.000 A 
ATOM     12  C   UNL     1       1.874   9.120  17.935  0.00  0.00    +0.000 C 
ATOM     13  C   UNL     1       1.507   9.974  19.145  0.00  0.00    +0.000 C 
ENDROOT
BRANCH   9  14
ATOM     14  N   UNL     1       3.512   4.392  18.441  0.00  0.00    +0.000 N 
ATOM     15  C   UNL     1       3.036   3.596  17.300  0.00  0.00    +0.000 C 
ATOM     16  C   UNL     1       2.679   2.169  17.738  0.00  0.00    +0.000 C 
ATOM     17  O   UNL     1       3.765   1.544  18.444  0.00  0.00    +0.000 OA
ATOM     18  C   UNL     1       4.095   2.306  19.617  0.00  0.00    +0.000 C 
ATOM     19  C   UNL     1       4.541   3.736  19.263  0.00  0.00    +0.000 C 
ENDBRANCH   9  14
BRANCH   1  20
ATOM     20  C   UNL     1       0.750  12.329  18.751  0.00  0.00    +0.000 C 
BRANCH  20  24
ATOM     21  C   UNL     1       3.361  14.009  20.914  0.00  0.00    +0.000 C 
ATOM     22  C   UNL     1       1.988  13.684  20.396  0.00  0.00    +0.000 C 
ATOM     23  O   UNL     1       0.972  14.235  20.805  0.00  0.00    +0.000 OA
ATOM     24  N   UNL     1       1.982  12.735  19.399  0.00  0.00    +0.000 N 
ATOM     25  H   UNL     1       2.796  12.145  19.282  0.00  0.00    +0.000 HD
ENDBRANCH  20  24
ENDBRANCH   1  20
TORSDOF 3
ENDMDL
