MODEL 1
REMARK VINA RESULT:      -7.6      0.000      0.000
REMARK  Name = 
REMARK  3 active torsions:
REMARK  status: ('A' for Active; 'I' for Inactive)
REMARK    1  A    between atoms: C_4  and  C_5
REMARK    2  A    between atoms: C_5  and  S_6
REMARK    3  A    between atoms: S_6  and  C_9
REMARK                            x       y       z     vdW  Elec       q    Type
REMARK                         _______ _______ _______ _____ _____    ______ ____
ROOT
ATOM      1  O   UNL     1       2.185   7.893  20.164  0.00  0.00    +0.000 OA
ATOM      2  C   UNL     1       2.316   6.776  19.680  0.00  0.00    +0.000 A 
ATOM      3  C   UNL     1       3.262   6.543  18.577  0.00  0.00    +0.000 A 
ATOM      4  C   UNL     1       3.438   5.355  17.972  0.00  0.00    +0.000 A 
ATOM      5  C   UNL     1       2.599   4.231  18.421  0.00  0.00    +0.000 A 
ATOM      6  C   UNL     1       2.617   2.955  17.843  0.00  0.00    +0.000 A 
ATOM      7  C   UNL     1       1.792   1.930  18.328  0.00  0.00    +0.000 A 
ATOM      8  C   UNL     1       0.936   2.161  19.401  0.00  0.00    +0.000 A 
ATOM      9  C   UNL     1       0.897   3.420  19.990  0.00  0.00    +0.000 A 
ATOM     10  C   UNL     1       1.718   4.433  19.491  0.00  0.00    +0.000 A 
ATOM     11  O   UNL     1       1.596   5.684  20.123  0.00  0.00    +0.000 OA
ENDROOT
BRANCH   4  12
ATOM     12  C   UNL     1       4.432   5.209  16.838  0.00  0.00    +0.000 C 
BRANCH  12  13
ATOM     13  S   UNL     1       6.022   4.688  17.491  0.00  0.00    +0.000 S 
ATOM     14  O   UNL     1       5.813   4.028  18.765  0.00  0.00    +0.000 OA
ATOM     15  O   UNL     1       6.786   4.050  16.435  0.00  0.00    +0.000 OA
BRANCH  13  16
ATOM     16  C   UNL     1       6.851   6.230  17.852  0.00  0.00    +0.000 A 
ATOM     17  C   UNL     1       7.853   6.260  18.829  0.00  0.00    +0.000 A 
ATOM     18  C   UNL     1       8.555   7.446  19.061  0.00  0.00    +0.000 A 
ATOM     19  C   UNL     1       8.260   8.586  18.312  0.00  0.00    +0.000 A 
ATOM     20 CL   UNL     1       9.135  10.041  18.594  0.00  0.00    +0.000 Cl
ATOM     21  C   UNL     1       7.273   8.550  17.327  0.00  0.00    +0.000 A 
ATOM     22  C   UNL     1       6.567   7.368  17.089  0.00  0.00    +0.000 A 
ENDBRANCH  13  16
ENDBRANCH  12  13
ENDBRANCH   4  12
TORSDOF 3
ENDMDL
MODEL 2
REMARK VINA RESULT:      -7.6      0.159      1.047
REMARK  Name = 
REMARK  3 active torsions:
REMARK  status: ('A' for Active; 'I' for Inactive)
REMARK    1  A    between atoms: C_4  and  C_5
REMARK    2  A    between atoms: C_5  and  S_6
REMARK    3  A    between atoms: S_6  and  C_9
REMARK                            x       y       z     vdW  Elec       q    Type
REMARK                         _______ _______ _______ _____ _____    ______ ____
ROOT
ATOM      1  O   UNL     1       2.124   7.787  20.447  0.00  0.00    +0.000 OA
ATOM      2  C   UNL     1       2.258   6.706  19.887  0.00  0.00    +0.000 A 
ATOM      3  C   UNL     1       3.194   6.556  18.761  0.00  0.00    +0.000 A 
ATOM      4  C   UNL     1       3.373   5.414  18.075  0.00  0.00    +0.000 A 
ATOM      5  C   UNL     1       2.545   4.255  18.454  0.00  0.00    +0.000 A 
ATOM      6  C   UNL     1       2.567   3.022  17.790  0.00  0.00    +0.000 A 
ATOM      7  C   UNL     1       1.753   1.960  18.211  0.00  0.00    +0.000 A 
ATOM      8  C   UNL     1       0.907   2.111  19.306  0.00  0.00    +0.000 A 
ATOM      9  C   UNL     1       0.865   3.326  19.980  0.00  0.00    +0.000 A 
ATOM     10  C   UNL     1       1.674   4.377  19.543  0.00  0.00    +0.000 A 
ATOM     11  O   UNL     1       1.550   5.581  20.261  0.00  0.00    +0.000 OA
ENDROOT
BRANCH   4  12
ATOM     12  C   UNL     1       4.355   5.353  16.924  0.00  0.00    +0.000 C 
BRANCH  12  13
ATOM     13  S   UNL     1       5.922   4.689  17.501  0.00  0.00    +0.000 S 
ATOM     14  O   UNL     1       5.715   4.049  18.786  0.00  0.00    +0.000 OA
ATOM     15  O   UNL     1       6.573   3.986  16.411  0.00  0.00    +0.000 OA
BRANCH  13  16
ATOM     16  C   UNL     1       6.904   6.149  17.817  0.00  0.00    +0.000 A 
ATOM     17  C   UNL     1       6.640   7.323  17.102  0.00  0.00    +0.000 A 
ATOM     18  C   UNL     1       7.356   8.487  17.400  0.00  0.00    +0.000 A 
ATOM     19  C   UNL     1       8.318   8.472  18.410  0.00  0.00    +0.000 A 
ATOM     20 CL   UNL     1       9.188   9.910  18.780  0.00  0.00    +0.000 Cl
ATOM     21  C   UNL     1       8.568   7.305  19.133  0.00  0.00    +0.000 A 
ATOM     22  C   UNL     1       7.856   6.138  18.842  0.00  0.00    +0.000 A 
ENDBRANCH  13  16
ENDBRANCH  12  13
ENDBRANCH   4  12
TORSDOF 3
ENDMDL
MODEL 3
REMARK VINA RESULT:      -7.4      2.926      3.555
REMARK  Name = 
REMARK  3 active torsions:
REMARK  status: ('A' for Active; 'I' for Inactive)
REMARK    1  A    between atoms: C_4  and  C_5
REMARK    2  A    between atoms: C_5  and  S_6
REMARK    3  A    between atoms: S_6  and  C_9
REMARK                            x       y       z     vdW  Elec       q    Type
REMARK                         _______ _______ _______ _____ _____    ______ ____
ROOT
ATOM      1  O   UNL     1       1.572   7.970  21.293  0.00  0.00    +0.000 OA
ATOM      2  C   UNL     1       1.794   7.023  20.548  0.00  0.00    +0.000 A 
ATOM      3  C   UNL     1       2.587   7.204  19.321  0.00  0.00    +0.000 A 
ATOM      4  C   UNL     1       2.845   6.225  18.438  0.00  0.00    +0.000 A 
ATOM      5  C   UNL     1       2.260   4.898  18.701  0.00  0.00    +0.000 A 
ATOM      6  C   UNL     1       2.381   3.800  17.841  0.00  0.00    +0.000 A 
ATOM      7  C   UNL     1       1.800   2.564  18.161  0.00  0.00    +0.000 A 
ATOM      8  C   UNL     1       1.091   2.403  19.348  0.00  0.00    +0.000 A 
ATOM      9  C   UNL     1       0.954   3.479  20.216  0.00  0.00    +0.000 A 
ATOM     10  C   UNL     1       1.530   4.706  19.881  0.00  0.00    +0.000 A 
ATOM     11  O   UNL     1       1.320   5.751  20.799  0.00  0.00    +0.000 OA
ENDROOT
BRANCH   4  12
ATOM     12  C   UNL     1       3.667   6.504  17.197  0.00  0.00    +0.000 C 
BRANCH  12  13
ATOM     13  S   UNL     1       5.379   6.047  17.489  0.00  0.00    +0.000 S 
ATOM     14  O   UNL     1       6.179   7.254  17.579  0.00  0.00    +0.000 OA
ATOM     15  O   UNL     1       5.433   5.036  18.530  0.00  0.00    +0.000 OA
BRANCH  13  16
ATOM     16  C   UNL     1       5.860   5.234  15.972  0.00  0.00    +0.000 A 
ATOM     17  C   UNL     1       4.969   4.350  15.352  0.00  0.00    +0.000 A 
ATOM     18  C   UNL     1       5.312   3.771  14.127  0.00  0.00    +0.000 A 
ATOM     19  C   UNL     1       6.533   4.085  13.528  0.00  0.00    +0.000 A 
ATOM     20 CL   UNL     1       6.946   3.378  12.014  0.00  0.00    +0.000 Cl
ATOM     21  C   UNL     1       7.413   4.979  14.138  0.00  0.00    +0.000 A 
ATOM     22  C   UNL     1       7.077   5.562  15.364  0.00  0.00    +0.000 A 
ENDBRANCH  13  16
ENDBRANCH  12  13
ENDBRANCH   4  12
TORSDOF 3
ENDMDL
MODEL 4
REMARK VINA RESULT:      -7.2      1.457      2.979
REMARK  Name = 
REMARK  3 active torsions:
REMARK  status: ('A' for Active; 'I' for Inactive)
REMARK    1  A    between atoms: C_4  and  C_5
REMARK    2  A    between atoms: C_5  and  S_6
REMARK    3  A    between atoms: S_6  and  C_9
REMARK                            x       y       z     vdW  Elec       q    Type
REMARK                         _______ _______ _______ _____ _____    ______ ____
ROOT
ATOM      1  O   UNL     1       2.215   3.265  21.903  0.00  0.00    +0.000 OA
ATOM      2  C   UNL     1       2.231   4.149  21.056  0.00  0.00    +0.000 A 
ATOM      3  C   UNL     1       2.765   3.887  19.709  0.00  0.00    +0.000 A 
ATOM      4  C   UNL     1       2.849   4.812  18.738  0.00  0.00    +0.000 A 
ATOM      5  C   UNL     1       2.413   6.182  19.062  0.00  0.00    +0.000 A 
ATOM      6  C   UNL     1       2.504   7.266  18.180  0.00  0.00    +0.000 A 
ATOM      7  C   UNL     1       2.063   8.543  18.557  0.00  0.00    +0.000 A 
ATOM      8  C   UNL     1       1.521   8.759  19.821  0.00  0.00    +0.000 A 
ATOM      9  C   UNL     1       1.424   7.700  20.716  0.00  0.00    +0.000 A 
ATOM     10  C   UNL     1       1.874   6.435  20.329  0.00  0.00    +0.000 A 
ATOM     11  O   UNL     1       1.767   5.425  21.303  0.00  0.00    +0.000 OA
ENDROOT
BRANCH   4  12
ATOM     12  C   UNL     1       3.419   4.455  17.381  0.00  0.00    +0.000 C 
BRANCH  12  13
ATOM     13  S   UNL     1       5.118   3.903  17.565  0.00  0.00    +0.000 S 
ATOM     14  O   UNL     1       5.249   3.196  18.825  0.00  0.00    +0.000 OA
ATOM     15  O   UNL     1       5.563   3.301  16.321  0.00  0.00    +0.000 OA
BRANCH  13  16
ATOM     16  C   UNL     1       6.036   5.426  17.744  0.00  0.00    +0.000 A 
ATOM     17  C   UNL     1       7.173   5.452  18.559  0.00  0.00    +0.000 A 
ATOM     18  C   UNL     1       7.936   6.621  18.642  0.00  0.00    +0.000 A 
ATOM     19  C   UNL     1       7.565   7.747  17.905  0.00  0.00    +0.000 A 
ATOM     20 CL   UNL     1       8.513   9.179  18.002  0.00  0.00    +0.000 Cl
ATOM     21  C   UNL     1       6.440   7.714  17.080  0.00  0.00    +0.000 A 
ATOM     22  C   UNL     1       5.673   6.549  16.992  0.00  0.00    +0.000 A 
ENDBRANCH  13  16
ENDBRANCH  12  13
ENDBRANCH   4  12
TORSDOF 3
ENDMDL
MODEL 5
REMARK VINA RESULT:      -7.2      2.875      5.939
REMARK  Name = 
REMARK  3 active torsions:
REMARK  status: ('A' for Active; 'I' for Inactive)
REMARK    1  A    between atoms: C_4  and  C_5
REMARK    2  A    between atoms: C_5  and  S_6
REMARK    3  A    between atoms: S_6  and  C_9
REMARK                            x       y       z     vdW  Elec       q    Type
REMARK                         _______ _______ _______ _____ _____    ______ ____
ROOT
ATOM      1  O   UNL     1       5.258   4.407  13.649  0.00  0.00    +0.000 OA
ATOM      2  C   UNL     1       5.503   4.498  14.845  0.00  0.00    +0.000 A 
ATOM      3  C   UNL     1       4.806   3.645  15.821  0.00  0.00    +0.000 A 
ATOM      4  C   UNL     1       4.994   3.709  17.150  0.00  0.00    +0.000 A 
ATOM      5  C   UNL     1       5.931   4.728  17.657  0.00  0.00    +0.000 A 
ATOM      6  C   UNL     1       6.179   4.962  19.015  0.00  0.00    +0.000 A 
ATOM      7  C   UNL     1       7.089   5.947  19.424  0.00  0.00    +0.000 A 
ATOM      8  C   UNL     1       7.771   6.713  18.482  0.00  0.00    +0.000 A 
ATOM      9  C   UNL     1       7.539   6.502  17.128  0.00  0.00    +0.000 A 
ATOM     10  C   UNL     1       6.623   5.523  16.737  0.00  0.00    +0.000 A 
ATOM     11  O   UNL     1       6.425   5.393  15.349  0.00  0.00    +0.000 OA
ENDROOT
BRANCH   4  12
ATOM     12  C   UNL     1       4.227   2.794  18.082  0.00  0.00    +0.000 C 
BRANCH  12  13
ATOM     13  S   UNL     1       2.472   3.160  17.979  0.00  0.00    +0.000 S 
ATOM     14  O   UNL     1       2.127   3.424  16.595  0.00  0.00    +0.000 OA
ATOM     15  O   UNL     1       1.734   2.184  18.760  0.00  0.00    +0.000 OA
BRANCH  13  16
ATOM     16  C   UNL     1       2.317   4.717  18.843  0.00  0.00    +0.000 A 
ATOM     17  C   UNL     1       2.499   5.914  18.140  0.00  0.00    +0.000 A 
ATOM     18  C   UNL     1       2.305   7.134  18.795  0.00  0.00    +0.000 A 
ATOM     19  C   UNL     1       1.923   7.150  20.137  0.00  0.00    +0.000 A 
ATOM     20 CL   UNL     1       1.675   8.653  20.936  0.00  0.00    +0.000 Cl
ATOM     21  C   UNL     1       1.725   5.955  20.831  0.00  0.00    +0.000 A 
ATOM     22  C   UNL     1       1.917   4.732  20.183  0.00  0.00    +0.000 A 
ENDBRANCH  13  16
ENDBRANCH  12  13
ENDBRANCH   4  12
TORSDOF 3
ENDMDL
MODEL 6
REMARK VINA RESULT:      -7.1      2.877      5.908
REMARK  Name = 
REMARK  3 active torsions:
REMARK  status: ('A' for Active; 'I' for Inactive)
REMARK    1  A    between atoms: C_4  and  C_5
REMARK    2  A    between atoms: C_5  and  S_6
REMARK    3  A    between atoms: S_6  and  C_9
REMARK                            x       y       z     vdW  Elec       q    Type
REMARK                         _______ _______ _______ _____ _____    ______ ____
ROOT
ATOM      1  O   UNL     1       5.250   4.202  13.731  0.00  0.00    +0.000 OA
ATOM      2  C   UNL     1       5.483   4.323  14.927  0.00  0.00    +0.000 A 
ATOM      3  C   UNL     1       4.743   3.526  15.920  0.00  0.00    +0.000 A 
ATOM      4  C   UNL     1       4.917   3.627  17.249  0.00  0.00    +0.000 A 
ATOM      5  C   UNL     1       5.881   4.629  17.736  0.00  0.00    +0.000 A 
ATOM      6  C   UNL     1       6.119   4.899  19.090  0.00  0.00    +0.000 A 
ATOM      7  C   UNL     1       7.057   5.865  19.480  0.00  0.00    +0.000 A 
ATOM      8  C   UNL     1       7.777   6.577  18.524  0.00  0.00    +0.000 A 
ATOM      9  C   UNL     1       7.556   6.330  17.174  0.00  0.00    +0.000 A 
ATOM     10  C   UNL     1       6.612   5.371  16.801  0.00  0.00    +0.000 A 
ATOM     11  O   UNL     1       6.428   5.202  15.416  0.00  0.00    +0.000 OA
ENDROOT
BRANCH   4  12
ATOM     12  C   UNL     1       4.106   2.769  18.198  0.00  0.00    +0.000 C 
BRANCH  12  13
ATOM     13  S   UNL     1       2.356   3.101  17.969  0.00  0.00    +0.000 S 
ATOM     14  O   UNL     1       2.107   3.358  16.563  0.00  0.00    +0.000 OA
ATOM     15  O   UNL     1       1.583   2.110  18.696  0.00  0.00    +0.000 OA
BRANCH  13  16
ATOM     16  C   UNL     1       2.110   4.655  18.817  0.00  0.00    +0.000 A 
ATOM     17  C   UNL     1       1.652   4.651  20.140  0.00  0.00    +0.000 A 
ATOM     18  C   UNL     1       1.530   5.860  20.831  0.00  0.00    +0.000 A 
ATOM     19  C   UNL     1       1.874   7.057  20.202  0.00  0.00    +0.000 A 
ATOM     20 CL   UNL     1       1.733   8.542  21.061  0.00  0.00    +0.000 Cl
ATOM     21  C   UNL     1       2.346   7.058  18.889  0.00  0.00    +0.000 A 
ATOM     22  C   UNL     1       2.471   5.853  18.192  0.00  0.00    +0.000 A 
ENDBRANCH  13  16
ENDBRANCH  12  13
ENDBRANCH   4  12
TORSDOF 3
ENDMDL
MODEL 7
REMARK VINA RESULT:      -7.1      3.196      6.035
REMARK  Name = 
REMARK  3 active torsions:
REMARK  status: ('A' for Active; 'I' for Inactive)
REMARK    1  A    between atoms: C_4  and  C_5
REMARK    2  A    between atoms: C_5  and  S_6
REMARK    3  A    between atoms: S_6  and  C_9
REMARK                            x       y       z     vdW  Elec       q    Type
REMARK                         _______ _______ _______ _____ _____    ______ ____
ROOT
ATOM      1  O   UNL     1       7.799   6.815  17.677  0.00  0.00    +0.000 OA
ATOM      2  C   UNL     1       7.217   6.140  16.837  0.00  0.00    +0.000 A 
ATOM      3  C   UNL     1       5.970   5.434  17.175  0.00  0.00    +0.000 A 
ATOM      4  C   UNL     1       5.292   4.648  16.321  0.00  0.00    +0.000 A 
ATOM      5  C   UNL     1       5.861   4.454  14.976  0.00  0.00    +0.000 A 
ATOM      6  C   UNL     1       5.310   3.612  14.002  0.00  0.00    +0.000 A 
ATOM      7  C   UNL     1       5.905   3.480  12.740  0.00  0.00    +0.000 A 
ATOM      8  C   UNL     1       7.061   4.191  12.426  0.00  0.00    +0.000 A 
ATOM      9  C   UNL     1       7.630   5.030  13.377  0.00  0.00    +0.000 A 
ATOM     10  C   UNL     1       7.030   5.144  14.633  0.00  0.00    +0.000 A 
ATOM     11  O   UNL     1       7.684   5.991  15.547  0.00  0.00    +0.000 OA
ENDROOT
BRANCH   4  12
ATOM     12  C   UNL     1       4.018   3.955  16.758  0.00  0.00    +0.000 C 
BRANCH  12  13
ATOM     13  S   UNL     1       4.131   3.522  18.498  0.00  0.00    +0.000 S 
ATOM     14  O   UNL     1       3.393   2.294  18.724  0.00  0.00    +0.000 OA
ATOM     15  O   UNL     1       5.508   3.659  18.936  0.00  0.00    +0.000 OA
BRANCH  13  16
ATOM     16  C   UNL     1       3.211   4.820  19.313  0.00  0.00    +0.000 A 
ATOM     17  C   UNL     1       3.262   6.123  18.804  0.00  0.00    +0.000 A 
ATOM     18  C   UNL     1       2.485   7.124  19.394  0.00  0.00    +0.000 A 
ATOM     19  C   UNL     1       1.659   6.817  20.476  0.00  0.00    +0.000 A 
ATOM     20 CL   UNL     1       0.697   8.050  21.191  0.00  0.00    +0.000 Cl
ATOM     21  C   UNL     1       1.597   5.514  20.972  0.00  0.00    +0.000 A 
ATOM     22  C   UNL     1       2.371   4.507  20.387  0.00  0.00    +0.000 A 
ENDBRANCH  13  16
ENDBRANCH  12  13
ENDBRANCH   4  12
TORSDOF 3
ENDMDL
MODEL 8
REMARK VINA RESULT:      -7.1      1.373      3.190
REMARK  Name = 
REMARK  3 active torsions:
REMARK  status: ('A' for Active; 'I' for Inactive)
REMARK    1  A    between atoms: C_4  and  C_5
REMARK    2  A    between atoms: C_5  and  S_6
REMARK    3  A    between atoms: S_6  and  C_9
REMARK                            x       y       z     vdW  Elec       q    Type
REMARK                         _______ _______ _______ _____ _____    ______ ____
ROOT
ATOM      1  O   UNL     1       2.125   4.113  21.569  0.00  0.00    +0.000 OA
ATOM      2  C   UNL     1       2.230   4.942  20.674  0.00  0.00    +0.000 A 
ATOM      3  C   UNL     1       2.942   4.614  19.428  0.00  0.00    +0.000 A 
ATOM      4  C   UNL     1       3.128   5.479  18.415  0.00  0.00    +0.000 A 
ATOM      5  C   UNL     1       2.619   6.851  18.589  0.00  0.00    +0.000 A 
ATOM      6  C   UNL     1       2.796   7.880  17.655  0.00  0.00    +0.000 A 
ATOM      7  C   UNL     1       2.279   9.162  17.886  0.00  0.00    +0.000 A 
ATOM      8  C   UNL     1       1.571   9.438  19.053  0.00  0.00    +0.000 A 
ATOM      9  C   UNL     1       1.384   8.435  19.997  0.00  0.00    +0.000 A 
ATOM     10  C   UNL     1       1.913   7.165  19.756  0.00  0.00    +0.000 A 
ATOM     11  O   UNL     1       1.706   6.215  20.774  0.00  0.00    +0.000 OA
ENDROOT
BRANCH   4  12
ATOM     12  C   UNL     1       3.878   5.056  17.170  0.00  0.00    +0.000 C 
BRANCH  12  13
ATOM     13  S   UNL     1       5.490   4.406  17.627  0.00  0.00    +0.000 S 
ATOM     14  O   UNL     1       5.407   3.838  18.959  0.00  0.00    +0.000 OA
ATOM     15  O   UNL     1       6.027   3.637  16.518  0.00  0.00    +0.000 OA
BRANCH  13  16
ATOM     16  C   UNL     1       6.507   5.869  17.765  0.00  0.00    +0.000 A 
ATOM     17  C   UNL     1       6.195   6.998  16.999  0.00  0.00    +0.000 A 
ATOM     18  C   UNL     1       6.943   8.169  17.160  0.00  0.00    +0.000 A 
ATOM     19  C   UNL     1       7.985   8.205  18.088  0.00  0.00    +0.000 A 
ATOM     20 CL   UNL     1       8.895   9.651  18.291  0.00  0.00    +0.000 Cl
ATOM     21  C   UNL     1       8.284   7.084  18.863  0.00  0.00    +0.000 A 
ATOM     22  C   UNL     1       7.541   5.910  18.707  0.00  0.00    +0.000 A 
ENDBRANCH  13  16
ENDBRANCH  12  13
ENDBRANCH   4  12
TORSDOF 3
ENDMDL
MODEL 9
REMARK VINA RESULT:      -6.9      3.290      6.059
REMARK  Name = 
REMARK  3 active torsions:
REMARK  status: ('A' for Active; 'I' for Inactive)
REMARK    1  A    between atoms: C_4  and  C_5
REMARK    2  A    between atoms: C_5  and  S_6
REMARK    3  A    between atoms: S_6  and  C_9
REMARK                            x       y       z     vdW  Elec       q    Type
REMARK                         _______ _______ _______ _____ _____    ______ ____
ROOT
ATOM      1  O   UNL     1       7.855   6.924  17.130  0.00  0.00    +0.000 OA
ATOM      2  C   UNL     1       7.254   6.199  16.347  0.00  0.00    +0.000 A 
ATOM      3  C   UNL     1       6.001   5.538  16.747  0.00  0.00    +0.000 A 
ATOM      4  C   UNL     1       5.303   4.703  15.959  0.00  0.00    +0.000 A 
ATOM      5  C   UNL     1       5.854   4.405  14.625  0.00  0.00    +0.000 A 
ATOM      6  C   UNL     1       5.280   3.504  13.720  0.00  0.00    +0.000 A 
ATOM      7  C   UNL     1       5.859   3.274  12.464  0.00  0.00    +0.000 A 
ATOM      8  C   UNL     1       7.021   3.943  12.088  0.00  0.00    +0.000 A 
ATOM      9  C   UNL     1       7.612   4.839  12.971  0.00  0.00    +0.000 A 
ATOM     10  C   UNL     1       7.028   5.052  14.222  0.00  0.00    +0.000 A 
ATOM     11  O   UNL     1       7.705   5.952  15.066  0.00  0.00    +0.000 OA
ENDROOT
BRANCH   4  12
ATOM     12  C   UNL     1       4.024   4.063  16.457  0.00  0.00    +0.000 C 
BRANCH  12  13
ATOM     13  S   UNL     1       4.193   3.649  18.197  0.00  0.00    +0.000 S 
ATOM     14  O   UNL     1       3.553   2.370  18.439  0.00  0.00    +0.000 OA
ATOM     15  O   UNL     1       5.561   3.892  18.615  0.00  0.00    +0.000 OA
BRANCH  13  16
ATOM     16  C   UNL     1       3.189   4.879  19.018  0.00  0.00    +0.000 A 
ATOM     17  C   UNL     1       2.421   4.510  20.129  0.00  0.00    +0.000 A 
ATOM     18  C   UNL     1       1.694   5.484  20.819  0.00  0.00    +0.000 A 
ATOM     19  C   UNL     1       1.746   6.815  20.403  0.00  0.00    +0.000 A 
ATOM     20 CL   UNL     1       0.859   8.013  21.263  0.00  0.00    +0.000 Cl
ATOM     21  C   UNL     1       2.526   7.184  19.306  0.00  0.00    +0.000 A 
ATOM     22  C   UNL     1       3.256   6.216  18.611  0.00  0.00    +0.000 A 
ENDBRANCH  13  16
ENDBRANCH  12  13
ENDBRANCH   4  12
TORSDOF 3
ENDMDL
