MODEL 1
REMARK VINA RESULT:      -7.1      0.000      0.000
REMARK  Name = 
REMARK  5 active torsions:
REMARK  status: ('A' for Active; 'I' for Inactive)
REMARK    1  A    between atoms: N_3  and  C_4
REMARK    2  A    between atoms: C_6  and  C_7
REMARK    3  A    between atoms: N_12  and  C_13
REMARK    4  A    between atoms: C_19  and  C_20
REMARK    5  A    between atoms: C_20  and  O_21
REMARK                            x       y       z     vdW  Elec       q    Type
REMARK                         _______ _______ _______ _____ _____    ______ ____
ROOT
ATOM      1  O   UNL     1       4.083   5.312  16.837  0.00  0.00    +0.000 OA
ATOM      2  C   UNL     1       4.694   4.428  17.422  0.00  0.00    +0.000 C 
ATOM      3  N   UNL     1       5.786   3.749  16.905  0.00  0.00    +0.000 N 
ATOM      4  N   UNL     1       4.370   3.944  18.676  0.00  0.00    +0.000 N 
ATOM      5  H   UNL     1       5.869   2.786  17.189  0.00  0.00    +0.000 HD
ATOM      6  H   UNL     1       5.119   3.499  19.204  0.00  0.00    +0.000 HD
ENDROOT
BRANCH   4   7
ATOM      7  C   UNL     1       3.187   4.204  19.403  0.00  0.00    +0.000 A 
ATOM      8  C   UNL     1       2.913   5.459  19.948  0.00  0.00    +0.000 A 
ATOM      9  C   UNL     1       1.725   5.634  20.623  0.00  0.00    +0.000 A 
ATOM     10  F   UNL     1       1.451   6.846  21.133  0.00  0.00    +0.000 F 
ATOM     11  N   UNL     1       0.806   4.670  20.809  0.00  0.00    +0.000 NA
ATOM     12  C   UNL     1       1.086   3.467  20.263  0.00  0.00    +0.000 A 
ATOM     13  C   UNL     1       2.238   3.181  19.530  0.00  0.00    +0.000 A 
BRANCH  13  14
ATOM     14  C   UNL     1       2.422   1.779  19.013  0.00  0.00    +0.000 C 
BRANCH  14  15
ATOM     15  O   UNL     1       2.441   1.755  17.585  0.00  0.00    +0.000 OA
ATOM     16  H   UNL     1       1.870   2.489  17.290  0.00  0.00    +0.000 HD
ENDBRANCH  14  15
ENDBRANCH  13  14
ENDBRANCH   4   7
BRANCH   3  17
ATOM     17  C   UNL     1       6.235   4.062  15.644  0.00  0.00    +0.000 A 
ATOM     18  C   UNL     1       5.950   3.574  14.393  0.00  0.00    +0.000 A 
ATOM     19  C   UNL     1       6.774   4.224  13.410  0.00  0.00    +0.000 A 
ATOM     20  N   UNL     1       7.628   5.143  13.887  0.00  0.00    +0.000 NA
ATOM     21  S   UNL     1       7.407   5.281  15.526  0.00  0.00    +0.000 S 
BRANCH  19  22
ATOM     22  C   UNL     1       6.721   3.960  11.938  0.00  0.00    +0.000 C 
ATOM     23  F   UNL     1       7.532   2.923  11.588  0.00  0.00    +0.000 F 
ATOM     24  F   UNL     1       5.464   3.595  11.557  0.00  0.00    +0.000 F 
ENDBRANCH  19  22
ENDBRANCH   3  17
TORSDOF 5
ENDMDL
MODEL 2
REMARK VINA RESULT:      -7.0      1.475      1.624
REMARK  Name = 
REMARK  5 active torsions:
REMARK  status: ('A' for Active; 'I' for Inactive)
REMARK    1  A    between atoms: N_3  and  C_4
REMARK    2  A    between atoms: C_6  and  C_7
REMARK    3  A    between atoms: N_12  and  C_13
REMARK    4  A    between atoms: C_19  and  C_20
REMARK    5  A    between atoms: C_20  and  O_21
REMARK                            x       y       z     vdW  Elec       q    Type
REMARK                         _______ _______ _______ _____ _____    ______ ____
ROOT
ATOM      1  O   UNL     1       3.698   4.321  17.105  0.00  0.00    +0.000 OA
ATOM      2  C   UNL     1       4.675   4.192  17.830  0.00  0.00    +0.000 C 
ATOM      3  N   UNL     1       5.988   4.168  17.389  0.00  0.00    +0.000 N 
ATOM      4  N   UNL     1       4.619   4.015  19.201  0.00  0.00    +0.000 N 
ATOM      5  H   UNL     1       6.610   3.578  17.919  0.00  0.00    +0.000 HD
ATOM      6  H   UNL     1       5.448   4.279  19.731  0.00  0.00    +0.000 HD
ENDROOT
BRANCH   4   7
ATOM      7  C   UNL     1       3.469   3.734  19.971  0.00  0.00    +0.000 A 
ATOM      8  C   UNL     1       2.319   4.522  19.900  0.00  0.00    +0.000 A 
ATOM      9  C   UNL     1       1.233   4.165  20.668  0.00  0.00    +0.000 A 
ATOM     10  F   UNL     1       0.119   4.911  20.588  0.00  0.00    +0.000 F 
ATOM     11  N   UNL     1       1.203   3.108  21.500  0.00  0.00    +0.000 NA
ATOM     12  C   UNL     1       2.321   2.353  21.544  0.00  0.00    +0.000 A 
ATOM     13  C   UNL     1       3.469   2.596  20.788  0.00  0.00    +0.000 A 
BRANCH  13  14
ATOM     14  C   UNL     1       4.650   1.680  20.974  0.00  0.00    +0.000 C 
BRANCH  14  15
ATOM     15  O   UNL     1       5.108   1.171  19.721  0.00  0.00    +0.000 OA
ATOM     16  H   UNL     1       5.335   1.947  19.175  0.00  0.00    +0.000 HD
ENDBRANCH  14  15
ENDBRANCH  13  14
ENDBRANCH   4   7
BRANCH   3  17
ATOM     17  C   UNL     1       6.246   4.287  16.045  0.00  0.00    +0.000 A 
ATOM     18  C   UNL     1       5.989   3.487  14.959  0.00  0.00    +0.000 A 
ATOM     19  C   UNL     1       6.551   4.070  13.771  0.00  0.00    +0.000 A 
ATOM     20  N   UNL     1       7.192   5.236  13.947  0.00  0.00    +0.000 NA
ATOM     21  S   UNL     1       7.076   5.678  15.542  0.00  0.00    +0.000 S 
BRANCH  19  22
ATOM     22  C   UNL     1       6.446   3.485  12.398  0.00  0.00    +0.000 C 
ATOM     23  F   UNL     1       5.188   3.622  11.893  0.00  0.00    +0.000 F 
ATOM     24  F   UNL     1       7.269   4.138  11.530  0.00  0.00    +0.000 F 
ENDBRANCH  19  22
ENDBRANCH   3  17
TORSDOF 5
ENDMDL
MODEL 3
REMARK VINA RESULT:      -6.9      1.087      1.097
REMARK  Name = 
REMARK  5 active torsions:
REMARK  status: ('A' for Active; 'I' for Inactive)
REMARK    1  A    between atoms: N_3  and  C_4
REMARK    2  A    between atoms: C_6  and  C_7
REMARK    3  A    between atoms: N_12  and  C_13
REMARK    4  A    between atoms: C_19  and  C_20
REMARK    5  A    between atoms: C_20  and  O_21
REMARK                            x       y       z     vdW  Elec       q    Type
REMARK                         _______ _______ _______ _____ _____    ______ ____
ROOT
ATOM      1  O   UNL     1       4.002   4.654  16.844  0.00  0.00    +0.000 OA
ATOM      2  C   UNL     1       4.994   4.341  17.488  0.00  0.00    +0.000 C 
ATOM      3  N   UNL     1       6.248   4.111  16.944  0.00  0.00    +0.000 N 
ATOM      4  N   UNL     1       5.011   4.134  18.855  0.00  0.00    +0.000 N 
ATOM      5  H   UNL     1       6.799   3.409  17.414  0.00  0.00    +0.000 HD
ATOM      6  H   UNL     1       5.910   4.240  19.324  0.00  0.00    +0.000 HD
ENDROOT
BRANCH   4   7
ATOM      7  C   UNL     1       3.891   4.025  19.708  0.00  0.00    +0.000 A 
ATOM      8  C   UNL     1       3.031   5.100  19.942  0.00  0.00    +0.000 A 
ATOM      9  C   UNL     1       1.948   4.903  20.770  0.00  0.00    +0.000 A 
ATOM     10  F   UNL     1       1.109   5.930  20.982  0.00  0.00    +0.000 F 
ATOM     11  N   UNL     1       1.662   3.742  21.387  0.00  0.00    +0.000 NA
ATOM     12  C   UNL     1       2.500   2.713  21.137  0.00  0.00    +0.000 A 
ATOM     13  C   UNL     1       3.608   2.783  20.291  0.00  0.00    +0.000 A 
BRANCH  13  14
ATOM     14  C   UNL     1       4.467   1.556  20.141  0.00  0.00    +0.000 C 
BRANCH  14  15
ATOM     15  O   UNL     1       4.411   1.048  18.808  0.00  0.00    +0.000 OA
ATOM     16  H   UNL     1       3.468   0.893  18.612  0.00  0.00    +0.000 HD
ENDBRANCH  14  15
ENDBRANCH  13  14
ENDBRANCH   4   7
BRANCH   3  17
ATOM     17  C   UNL     1       6.421   4.227  15.587  0.00  0.00    +0.000 A 
ATOM     18  C   UNL     1       6.000   3.481  14.513  0.00  0.00    +0.000 A 
ATOM     19  C   UNL     1       6.538   4.021  13.294  0.00  0.00    +0.000 A 
ATOM     20  N   UNL     1       7.317   5.105  13.436  0.00  0.00    +0.000 NA
ATOM     21  S   UNL     1       7.364   5.526  15.040  0.00  0.00    +0.000 S 
BRANCH  19  22
ATOM     22  C   UNL     1       6.271   3.477  11.926  0.00  0.00    +0.000 C 
ATOM     23  F   UNL     1       7.148   2.485  11.605  0.00  0.00    +0.000 F 
ATOM     24  F   UNL     1       5.032   2.914  11.863  0.00  0.00    +0.000 F 
ENDBRANCH  19  22
ENDBRANCH   3  17
TORSDOF 5
ENDMDL
MODEL 4
REMARK VINA RESULT:      -6.5      1.842      2.010
REMARK  Name = 
REMARK  5 active torsions:
REMARK  status: ('A' for Active; 'I' for Inactive)
REMARK    1  A    between atoms: N_3  and  C_4
REMARK    2  A    between atoms: C_6  and  C_7
REMARK    3  A    between atoms: N_12  and  C_13
REMARK    4  A    between atoms: C_19  and  C_20
REMARK    5  A    between atoms: C_20  and  O_21
REMARK                            x       y       z     vdW  Elec       q    Type
REMARK                         _______ _______ _______ _____ _____    ______ ____
ROOT
ATOM      1  O   UNL     1       4.960   4.743  17.954  0.00  0.00    +0.000 OA
ATOM      2  C   UNL     1       4.779   3.596  17.568  0.00  0.00    +0.000 C 
ATOM      3  N   UNL     1       5.271   3.075  16.382  0.00  0.00    +0.000 N 
ATOM      4  N   UNL     1       4.027   2.649  18.240  0.00  0.00    +0.000 N 
ATOM      5  H   UNL     1       4.685   2.385  15.938  0.00  0.00    +0.000 HD
ATOM      6  H   UNL     1       4.235   1.672  18.040  0.00  0.00    +0.000 HD
ENDROOT
BRANCH   4   7
ATOM      7  C   UNL     1       3.170   2.876  19.339  0.00  0.00    +0.000 A 
ATOM      8  C   UNL     1       1.926   3.493  19.195  0.00  0.00    +0.000 A 
ATOM      9  C   UNL     1       1.141   3.655  20.315  0.00  0.00    +0.000 A 
ATOM     10  F   UNL     1      -0.063   4.232  20.176  0.00  0.00    +0.000 F 
ATOM     11  N   UNL     1       1.495   3.269  21.554  0.00  0.00    +0.000 NA
ATOM     12  C   UNL     1       2.697   2.664  21.669  0.00  0.00    +0.000 A 
ATOM     13  C   UNL     1       3.562   2.415  20.603  0.00  0.00    +0.000 A 
BRANCH  13  14
ATOM     14  C   UNL     1       4.884   1.759  20.899  0.00  0.00    +0.000 C 
BRANCH  14  15
ATOM     15  O   UNL     1       5.237   0.827  19.875  0.00  0.00    +0.000 OA
ATOM     16  H   UNL     1       5.591   1.354  19.134  0.00  0.00    +0.000 HD
ENDBRANCH  14  15
ENDBRANCH  13  14
ENDBRANCH   4   7
BRANCH   3  17
ATOM     17  C   UNL     1       6.012   3.881  15.552  0.00  0.00    +0.000 A 
ATOM     18  C   UNL     1       6.132   3.976  14.188  0.00  0.00    +0.000 A 
ATOM     19  C   UNL     1       7.122   4.962  13.846  0.00  0.00    +0.000 A 
ATOM     20  N   UNL     1       7.713   5.572  14.885  0.00  0.00    +0.000 NA
ATOM     21  S   UNL     1       7.040   5.009  16.293  0.00  0.00    +0.000 S 
BRANCH  19  22
ATOM     22  C   UNL     1       7.500   5.347  12.451  0.00  0.00    +0.000 C 
ATOM     23  F   UNL     1       8.733   5.925  12.411  0.00  0.00    +0.000 F 
ATOM     24  F   UNL     1       7.578   4.247  11.650  0.00  0.00    +0.000 F 
ENDBRANCH  19  22
ENDBRANCH   3  17
TORSDOF 5
ENDMDL
MODEL 5
REMARK VINA RESULT:      -6.4      4.429      6.193
REMARK  Name = 
REMARK  5 active torsions:
REMARK  status: ('A' for Active; 'I' for Inactive)
REMARK    1  A    between atoms: N_3  and  C_4
REMARK    2  A    between atoms: C_6  and  C_7
REMARK    3  A    between atoms: N_12  and  C_13
REMARK    4  A    between atoms: C_19  and  C_20
REMARK    5  A    between atoms: C_20  and  O_21
REMARK                            x       y       z     vdW  Elec       q    Type
REMARK                         _______ _______ _______ _____ _____    ______ ____
ROOT
ATOM      1  O   UNL     1       1.694   6.421  20.502  0.00  0.00    +0.000 OA
ATOM      2  C   UNL     1       2.082   7.192  19.635  0.00  0.00    +0.000 C 
ATOM      3  N   UNL     1       2.956   6.856  18.614  0.00  0.00    +0.000 N 
ATOM      4  N   UNL     1       1.736   8.529  19.559  0.00  0.00    +0.000 N 
ATOM      5  H   UNL     1       3.574   7.594  18.315  0.00  0.00    +0.000 HD
ATOM      6  H   UNL     1       1.804   8.969  18.643  0.00  0.00    +0.000 HD
ENDROOT
BRANCH   4   7
ATOM      7  C   UNL     1       1.078   9.290  20.550  0.00  0.00    +0.000 A 
ATOM      8  C   UNL     1       0.954   8.843  21.866  0.00  0.00    +0.000 A 
ATOM      9  C   UNL     1       0.317   9.656  22.777  0.00  0.00    +0.000 A 
ATOM     10  F   UNL     1       0.213   9.237  24.048  0.00  0.00    +0.000 F 
ATOM     11  N   UNL     1      -0.211  10.858  22.485  0.00  0.00    +0.000 NA
ATOM     12  C   UNL     1      -0.070  11.276  21.209  0.00  0.00    +0.000 A 
ATOM     13  C   UNL     1       0.584  10.556  20.209  0.00  0.00    +0.000 A 
BRANCH  13  14
ATOM     14  C   UNL     1       0.630  11.143  18.823  0.00  0.00    +0.000 C 
BRANCH  14  15
ATOM     15  O   UNL     1       0.070  10.245  17.865  0.00  0.00    +0.000 OA
ATOM     16  H   UNL     1      -0.037  10.755  17.040  0.00  0.00    +0.000 HD
ENDBRANCH  14  15
ENDBRANCH  13  14
ENDBRANCH   4   7
BRANCH   3  17
ATOM     17  C   UNL     1       3.447   5.575  18.546  0.00  0.00    +0.000 A 
ATOM     18  C   UNL     1       2.961   4.403  18.018  0.00  0.00    +0.000 A 
ATOM     19  C   UNL     1       3.870   3.323  18.294  0.00  0.00    +0.000 A 
ATOM     20  N   UNL     1       4.971   3.655  18.985  0.00  0.00    +0.000 NA
ATOM     21  S   UNL     1       4.957   5.291  19.264  0.00  0.00    +0.000 S 
BRANCH  19  22
ATOM     22  C   UNL     1       3.676   1.908  17.850  0.00  0.00    +0.000 C 
ATOM     23  F   UNL     1       3.893   1.032  18.871  0.00  0.00    +0.000 F 
ATOM     24  F   UNL     1       2.391   1.699  17.447  0.00  0.00    +0.000 F 
ENDBRANCH  19  22
ENDBRANCH   3  17
TORSDOF 5
ENDMDL
MODEL 6
REMARK VINA RESULT:      -6.4      4.231      4.766
REMARK  Name = 
REMARK  5 active torsions:
REMARK  status: ('A' for Active; 'I' for Inactive)
REMARK    1  A    between atoms: N_3  and  C_4
REMARK    2  A    between atoms: C_6  and  C_7
REMARK    3  A    between atoms: N_12  and  C_13
REMARK    4  A    between atoms: C_19  and  C_20
REMARK    5  A    between atoms: C_20  and  O_21
REMARK                            x       y       z     vdW  Elec       q    Type
REMARK                         _______ _______ _______ _____ _____    ______ ____
ROOT
ATOM      1  O   UNL     1       4.570   5.712  19.301  0.00  0.00    +0.000 OA
ATOM      2  C   UNL     1       5.286   4.729  19.165  0.00  0.00    +0.000 C 
ATOM      3  N   UNL     1       6.592   4.762  18.704  0.00  0.00    +0.000 N 
ATOM      4  N   UNL     1       4.891   3.428  19.417  0.00  0.00    +0.000 N 
ATOM      5  H   UNL     1       6.880   3.959  18.167  0.00  0.00    +0.000 HD
ATOM      6  H   UNL     1       5.630   2.757  19.624  0.00  0.00    +0.000 HD
ENDROOT
BRANCH   4   7
ATOM      7  C   UNL     1       3.575   2.974  19.654  0.00  0.00    +0.000 A 
ATOM      8  C   UNL     1       3.040   2.890  20.940  0.00  0.00    +0.000 A 
ATOM      9  C   UNL     1       1.740   2.459  21.082  0.00  0.00    +0.000 A 
ATOM     10  F   UNL     1       1.217   2.394  22.317  0.00  0.00    +0.000 F 
ATOM     11  N   UNL     1       0.943   2.097  20.061  0.00  0.00    +0.000 NA
ATOM     12  C   UNL     1       1.476   2.197  18.824  0.00  0.00    +0.000 A 
ATOM     13  C   UNL     1       2.767   2.653  18.555  0.00  0.00    +0.000 A 
BRANCH  13  14
ATOM     14  C   UNL     1       3.229   2.676  17.122  0.00  0.00    +0.000 C 
BRANCH  14  15
ATOM     15  O   UNL     1       3.862   3.916  16.805  0.00  0.00    +0.000 OA
ATOM     16  H   UNL     1       3.288   4.617  17.167  0.00  0.00    +0.000 HD
ENDBRANCH  14  15
ENDBRANCH  13  14
ENDBRANCH   4   7
BRANCH   3  17
ATOM     17  C   UNL     1       7.151   5.968  18.358  0.00  0.00    +0.000 A 
ATOM     18  C   UNL     1       8.002   6.834  19.001  0.00  0.00    +0.000 A 
ATOM     19  C   UNL     1       8.213   8.007  18.196  0.00  0.00    +0.000 A 
ATOM     20  N   UNL     1       7.564   8.028  17.022  0.00  0.00    +0.000 NA
ATOM     21  S   UNL     1       6.734   6.603  16.842  0.00  0.00    +0.000 S 
BRANCH  19  22
ATOM     22  C   UNL     1       9.100   9.153  18.570  0.00  0.00    +0.000 C 
ATOM     23  F   UNL     1       8.867  10.240  17.783  0.00  0.00    +0.000 F 
ATOM     24  F   UNL     1       8.854   9.558  19.848  0.00  0.00    +0.000 F 
ENDBRANCH  19  22
ENDBRANCH   3  17
TORSDOF 5
ENDMDL
MODEL 7
REMARK VINA RESULT:      -6.4      1.605      2.300
REMARK  Name = 
REMARK  5 active torsions:
REMARK  status: ('A' for Active; 'I' for Inactive)
REMARK    1  A    between atoms: N_3  and  C_4
REMARK    2  A    between atoms: C_6  and  C_7
REMARK    3  A    between atoms: N_12  and  C_13
REMARK    4  A    between atoms: C_19  and  C_20
REMARK    5  A    between atoms: C_20  and  O_21
REMARK                            x       y       z     vdW  Elec       q    Type
REMARK                         _______ _______ _______ _____ _____    ______ ____
ROOT
ATOM      1  O   UNL     1       3.886   4.651  16.994  0.00  0.00    +0.000 OA
ATOM      2  C   UNL     1       4.827   4.371  17.724  0.00  0.00    +0.000 C 
ATOM      3  N   UNL     1       6.132   4.191  17.295  0.00  0.00    +0.000 N 
ATOM      4  N   UNL     1       4.728   4.157  19.087  0.00  0.00    +0.000 N 
ATOM      5  H   UNL     1       6.664   3.507  17.810  0.00  0.00    +0.000 HD
ATOM      6  H   UNL     1       5.577   4.293  19.635  0.00  0.00    +0.000 HD
ENDROOT
BRANCH   4   7
ATOM      7  C   UNL     1       3.541   4.003  19.835  0.00  0.00    +0.000 A 
ATOM      8  C   UNL     1       3.196   2.792  20.437  0.00  0.00    +0.000 A 
ATOM      9  C   UNL     1       2.031   2.732  21.168  0.00  0.00    +0.000 A 
ATOM     10  F   UNL     1       1.707   1.573  21.763  0.00  0.00    +0.000 F 
ATOM     11  N   UNL     1       1.184   3.764  21.336  0.00  0.00    +0.000 NA
ATOM     12  C   UNL     1       1.543   4.929  20.755  0.00  0.00    +0.000 A 
ATOM     13  C   UNL     1       2.713   5.118  20.020  0.00  0.00    +0.000 A 
BRANCH  13  14
ATOM     14  C   UNL     1       2.956   6.471  19.406  0.00  0.00    +0.000 C 
BRANCH  14  15
ATOM     15  O   UNL     1       2.224   6.622  18.189  0.00  0.00    +0.000 OA
ATOM     16  H   UNL     1       2.364   7.543  17.897  0.00  0.00    +0.000 HD
ENDBRANCH  14  15
ENDBRANCH  13  14
ENDBRANCH   4   7
BRANCH   3  17
ATOM     17  C   UNL     1       6.423   4.321  15.959  0.00  0.00    +0.000 A 
ATOM     18  C   UNL     1       6.116   3.574  14.848  0.00  0.00    +0.000 A 
ATOM     19  C   UNL     1       6.747   4.135  13.685  0.00  0.00    +0.000 A 
ATOM     20  N   UNL     1       7.486   5.235  13.901  0.00  0.00    +0.000 NA
ATOM     21  S   UNL     1       7.381   5.645  15.506  0.00  0.00    +0.000 S 
BRANCH  19  22
ATOM     22  C   UNL     1       6.615   3.596  12.295  0.00  0.00    +0.000 C 
ATOM     23  F   UNL     1       5.311   3.537  11.906  0.00  0.00    +0.000 F 
ATOM     24  F   UNL     1       7.235   4.414  11.398  0.00  0.00    +0.000 F 
ENDBRANCH  19  22
ENDBRANCH   3  17
TORSDOF 5
ENDMDL
MODEL 8
REMARK VINA RESULT:      -6.2      3.266      8.111
REMARK  Name = 
REMARK  5 active torsions:
REMARK  status: ('A' for Active; 'I' for Inactive)
REMARK    1  A    between atoms: N_3  and  C_4
REMARK    2  A    between atoms: C_6  and  C_7
REMARK    3  A    between atoms: N_12  and  C_13
REMARK    4  A    between atoms: C_19  and  C_20
REMARK    5  A    between atoms: C_20  and  O_21
REMARK                            x       y       z     vdW  Elec       q    Type
REMARK                         _______ _______ _______ _____ _____    ______ ____
ROOT
ATOM      1  O   UNL     1       4.273   7.695  17.844  0.00  0.00    +0.000 OA
ATOM      2  C   UNL     1       3.603   6.672  17.857  0.00  0.00    +0.000 C 
ATOM      3  N   UNL     1       2.401   6.525  18.531  0.00  0.00    +0.000 N 
ATOM      4  N   UNL     1       3.957   5.491  17.230  0.00  0.00    +0.000 N 
ATOM      5  H   UNL     1       2.222   5.602  18.897  0.00  0.00    +0.000 HD
ATOM      6  H   UNL     1       3.199   4.851  16.997  0.00  0.00    +0.000 HD
ENDROOT
BRANCH   4   7
ATOM      7  C   UNL     1       5.213   5.177  16.666  0.00  0.00    +0.000 A 
ATOM      8  C   UNL     1       5.457   5.283  15.296  0.00  0.00    +0.000 A 
ATOM      9  C   UNL     1       6.717   4.979  14.830  0.00  0.00    +0.000 A 
ATOM     10  F   UNL     1       6.960   5.097  13.515  0.00  0.00    +0.000 F 
ATOM     11  N   UNL     1       7.737   4.570  15.605  0.00  0.00    +0.000 NA
ATOM     12  C   UNL     1       7.482   4.486  16.929  0.00  0.00    +0.000 A 
ATOM     13  C   UNL     1       6.258   4.800  17.520  0.00  0.00    +0.000 A 
BRANCH  13  14
ATOM     14  C   UNL     1       6.120   4.623  19.008  0.00  0.00    +0.000 C 
BRANCH  14  15
ATOM     15  O   UNL     1       5.367   3.450  19.320  0.00  0.00    +0.000 OA
ATOM     16  H   UNL     1       5.728   3.106  20.158  0.00  0.00    +0.000 HD
ENDBRANCH  14  15
ENDBRANCH  13  14
ENDBRANCH   4   7
BRANCH   3  17
ATOM     17  C   UNL     1       1.903   7.583  19.252  0.00  0.00    +0.000 A 
ATOM     18  C   UNL     1       1.594   7.760  20.578  0.00  0.00    +0.000 A 
ATOM     19  C   UNL     1       1.026   9.065  20.783  0.00  0.00    +0.000 A 
ATOM     20  N   UNL     1       0.911   9.825  19.683  0.00  0.00    +0.000 NA
ATOM     21  S   UNL     1       1.544   8.999  18.391  0.00  0.00    +0.000 S 
BRANCH  19  22
ATOM     22  C   UNL     1       0.593   9.611  22.107  0.00  0.00    +0.000 C 
ATOM     23  F   UNL     1      -0.594   9.071  22.504  0.00  0.00    +0.000 F 
ATOM     24  F   UNL     1       1.492   9.292  23.080  0.00  0.00    +0.000 F 
ENDBRANCH  19  22
ENDBRANCH   3  17
TORSDOF 5
ENDMDL
MODEL 9
REMARK VINA RESULT:      -6.2      3.919      7.926
REMARK  Name = 
REMARK  5 active torsions:
REMARK  status: ('A' for Active; 'I' for Inactive)
REMARK    1  A    between atoms: N_3  and  C_4
REMARK    2  A    between atoms: C_6  and  C_7
REMARK    3  A    between atoms: N_12  and  C_13
REMARK    4  A    between atoms: C_19  and  C_20
REMARK    5  A    between atoms: C_20  and  O_21
REMARK                            x       y       z     vdW  Elec       q    Type
REMARK                         _______ _______ _______ _____ _____    ______ ____
ROOT
ATOM      1  O   UNL     1       3.830   7.560  17.432  0.00  0.00    +0.000 OA
ATOM      2  C   UNL     1       3.499   6.622  18.145  0.00  0.00    +0.000 C 
ATOM      3  N   UNL     1       2.536   6.688  19.138  0.00  0.00    +0.000 N 
ATOM      4  N   UNL     1       4.060   5.359  18.093  0.00  0.00    +0.000 N 
ATOM      5  H   UNL     1       2.702   6.098  19.939  0.00  0.00    +0.000 HD
ATOM      6  H   UNL     1       3.492   4.591  18.446  0.00  0.00    +0.000 HD
ENDROOT
BRANCH   4   7
ATOM      7  C   UNL     1       5.229   4.981  17.396  0.00  0.00    +0.000 A 
ATOM      8  C   UNL     1       5.195   4.568  16.063  0.00  0.00    +0.000 A 
ATOM      9  C   UNL     1       6.384   4.238  15.450  0.00  0.00    +0.000 A 
ATOM     10  F   UNL     1       6.356   3.858  14.163  0.00  0.00    +0.000 F 
ATOM     11  N   UNL     1       7.586   4.272  16.052  0.00  0.00    +0.000 NA
ATOM     12  C   UNL     1       7.597   4.686  17.338  0.00  0.00    +0.000 A 
ATOM     13  C   UNL     1       6.464   5.078  18.051  0.00  0.00    +0.000 A 
BRANCH  13  14
ATOM     14  C   UNL     1       6.635   5.483  19.491  0.00  0.00    +0.000 C 
BRANCH  14  15
ATOM     15  O   UNL     1       8.006   5.423  19.883  0.00  0.00    +0.000 OA
ATOM     16  H   UNL     1       8.322   4.531  19.643  0.00  0.00    +0.000 HD
ENDBRANCH  14  15
ENDBRANCH  13  14
ENDBRANCH   4   7
BRANCH   3  17
ATOM     17  C   UNL     1       1.892   7.879  19.371  0.00  0.00    +0.000 A 
ATOM     18  C   UNL     1       1.569   8.950  18.574  0.00  0.00    +0.000 A 
ATOM     19  C   UNL     1       0.949   9.981  19.360  0.00  0.00    +0.000 A 
ATOM     20  N   UNL     1       0.812   9.709  20.667  0.00  0.00    +0.000 NA
ATOM     21  S   UNL     1       1.376   8.176  20.958  0.00  0.00    +0.000 S 
BRANCH  19  22
ATOM     22  C   UNL     1       0.446  11.283  18.821  0.00  0.00    +0.000 C 
ATOM     23  F   UNL     1      -0.749  11.130  18.184  0.00  0.00    +0.000 F 
ATOM     24  F   UNL     1       0.220  12.170  19.830  0.00  0.00    +0.000 F 
ENDBRANCH  19  22
ENDBRANCH   3  17
TORSDOF 5
ENDMDL
