MODEL 1
REMARK VINA RESULT:      -8.0      0.000      0.000
REMARK  Name = 
REMARK  11 active torsions:
REMARK  status: ('A' for Active; 'I' for Inactive)
REMARK    1  A    between atoms: C_1  and  C_2
REMARK    2  A    between atoms: C_2  and  C_3
REMARK    3  A    between atoms: C_2  and  C_4
REMARK    4  A    between atoms: C_4  and  C_5
REMARK    5  A    between atoms: C_8  and  C_9
REMARK    6  A    between atoms: C_9  and  C_10
REMARK    7  A    between atoms: C_9  and  C_11
REMARK    8  A    between atoms: C_14  and  S_15
REMARK    9  A    between atoms: S_15  and  C_16
REMARK   10  A    between atoms: C_16  and  C_17
REMARK   11  A    between atoms: N_19  and  C_20
REMARK                            x       y       z     vdW  Elec       q    Type
REMARK                         _______ _______ _______ _____ _____    ______ ____
ROOT
ATOM      1  C   UNL     1       3.850   4.775  19.292  0.00  0.00    +0.000 A 
ATOM      2  N   UNL     1       4.375   3.582  19.143  0.00  0.00    +0.000 NA
ATOM      3  N   UNL     1       5.731   3.752  19.200  0.00  0.00    +0.000 NA
ATOM      4  C   UNL     1       5.967   5.041  19.378  0.00  0.00    +0.000 A 
ATOM      5  O   UNL     1       4.804   5.767  19.450  0.00  0.00    +0.000 OA
ENDROOT
BRANCH   1   6
ATOM      6  C   UNL     1       2.401   5.168  19.189  0.00  0.00    +0.000 C 
ATOM      7  C   UNL     1       1.743   4.455  17.999  0.00  0.00    +0.000 C 
BRANCH   6  11
ATOM      8  C   UNL     1       1.544   9.438  19.002  0.00  0.00    +0.000 A 
ATOM      9  C   UNL     1       1.395   8.727  20.198  0.00  0.00    +0.000 A 
ATOM     10  C   UNL     1       1.706   7.365  20.256  0.00  0.00    +0.000 A 
ATOM     11  C   UNL     1       2.156   6.670  19.125  0.00  0.00    +0.000 A 
ATOM     12  C   UNL     1       2.320   7.399  17.929  0.00  0.00    +0.000 A 
ATOM     13  C   UNL     1       2.026   8.763  17.879  0.00  0.00    +0.000 A 
BRANCH   8  14
ATOM     14  C   UNL     1       1.193  10.909  18.901  0.00  0.00    +0.000 C 
BRANCH  14  16
ATOM     15  C   UNL     1       0.037  12.790  20.111  0.00  0.00    +0.000 C 
ATOM     16  C   UNL     1      -0.054  11.318  19.707  0.00  0.00    +0.000 C 
ATOM     17  C   UNL     1      -1.342  11.073  18.914  0.00  0.00    +0.000 C 
ENDBRANCH  14  16
ENDBRANCH   8  14
ENDBRANCH   6  11
ENDBRANCH   1   6
BRANCH   4  18
ATOM     18  S   UNL     1       7.581   5.671  19.392  0.00  0.00    +0.000 S 
BRANCH  18  19
ATOM     19  C   UNL     1       7.570   6.945  18.111  0.00  0.00    +0.000 C 
BRANCH  19  20
ATOM     20  C   UNL     1       6.879   6.424  16.896  0.00  0.00    +0.000 A 
ATOM     21  C   UNL     1       7.251   5.430  16.021  0.00  0.00    +0.000 A 
ATOM     22  N   UNL     1       6.302   5.442  15.025  0.00  0.00    +0.000 N 
ATOM     23  N   UNL     1       5.403   6.426  15.285  0.00  0.00    +0.000 NA
ATOM     24  N   UNL     1       5.717   6.993  16.438  0.00  0.00    +0.000 NA
BRANCH  22  25
ATOM     25  C   UNL     1       6.230   4.634  13.873  0.00  0.00    +0.000 A 
ATOM     26  C   UNL     1       5.068   3.893  13.609  0.00  0.00    +0.000 A 
ATOM     27  C   UNL     1       4.994   3.096  12.471  0.00  0.00    +0.000 A 
ATOM     28  C   UNL     1       6.082   3.012  11.604  0.00  0.00    +0.000 A 
ATOM     29  C   UNL     1       7.243   3.742  11.866  0.00  0.00    +0.000 A 
ATOM     30  C   UNL     1       7.316   4.561  12.989  0.00  0.00    +0.000 A 
ENDBRANCH  22  25
ENDBRANCH  19  20
ENDBRANCH  18  19
ENDBRANCH   4  18
TORSDOF 8
ENDMDL
MODEL 2
REMARK VINA RESULT:      -7.9      0.569      1.497
REMARK  Name = 
REMARK  11 active torsions:
REMARK  status: ('A' for Active; 'I' for Inactive)
REMARK    1  A    between atoms: C_1  and  C_2
REMARK    2  A    between atoms: C_2  and  C_3
REMARK    3  A    between atoms: C_2  and  C_4
REMARK    4  A    between atoms: C_4  and  C_5
REMARK    5  A    between atoms: C_8  and  C_9
REMARK    6  A    between atoms: C_9  and  C_10
REMARK    7  A    between atoms: C_9  and  C_11
REMARK    8  A    between atoms: C_14  and  S_15
REMARK    9  A    between atoms: S_15  and  C_16
REMARK   10  A    between atoms: C_16  and  C_17
REMARK   11  A    between atoms: N_19  and  C_20
REMARK                            x       y       z     vdW  Elec       q    Type
REMARK                         _______ _______ _______ _____ _____    ______ ____
ROOT
ATOM      1  C   UNL     1       3.993   4.726  19.599  0.00  0.00    +0.000 A 
ATOM      2  N   UNL     1       4.465   3.653  19.011  0.00  0.00    +0.000 NA
ATOM      3  N   UNL     1       5.808   3.863  18.852  0.00  0.00    +0.000 NA
ATOM      4  C   UNL     1       6.089   5.055  19.350  0.00  0.00    +0.000 A 
ATOM      5  O   UNL     1       4.971   5.674  19.853  0.00  0.00    +0.000 OA
ENDROOT
BRANCH   1   6
ATOM      6  C   UNL     1       2.557   5.063  19.896  0.00  0.00    +0.000 C 
ATOM      7  C   UNL     1       1.625   4.064  19.197  0.00  0.00    +0.000 C 
BRANCH   6  11
ATOM      8  C   UNL     1       1.585   9.207  18.956  0.00  0.00    +0.000 A 
ATOM      9  C   UNL     1       2.076   8.343  17.971  0.00  0.00    +0.000 A 
ATOM     10  C   UNL     1       2.352   7.006  18.274  0.00  0.00    +0.000 A 
ATOM     11  C   UNL     1       2.164   6.497  19.566  0.00  0.00    +0.000 A 
ATOM     12  C   UNL     1       1.652   7.370  20.548  0.00  0.00    +0.000 A 
ATOM     13  C   UNL     1       1.361   8.700  20.238  0.00  0.00    +0.000 A 
BRANCH   8  14
ATOM     14  C   UNL     1       1.300  10.666  18.665  0.00  0.00    +0.000 C 
BRANCH  14  16
ATOM     15  C   UNL     1      -0.960  10.008  17.769  0.00  0.00    +0.000 C 
ATOM     16  C   UNL     1      -0.199  11.022  18.623  0.00  0.00    +0.000 C 
ATOM     17  C   UNL     1      -0.803  11.077  20.030  0.00  0.00    +0.000 C 
ENDBRANCH  14  16
ENDBRANCH   8  14
ENDBRANCH   6  11
ENDBRANCH   1   6
BRANCH   4  18
ATOM     18  S   UNL     1       7.680   5.730  19.236  0.00  0.00    +0.000 S 
BRANCH  18  19
ATOM     19  C   UNL     1       7.540   6.980  17.939  0.00  0.00    +0.000 C 
BRANCH  19  20
ATOM     20  C   UNL     1       6.830   6.399  16.763  0.00  0.00    +0.000 A 
ATOM     21  C   UNL     1       7.216   5.405  15.894  0.00  0.00    +0.000 A 
ATOM     22  N   UNL     1       6.230   5.349  14.937  0.00  0.00    +0.000 N 
ATOM     23  N   UNL     1       5.295   6.294  15.210  0.00  0.00    +0.000 NA
ATOM     24  N   UNL     1       5.625   6.902  16.339  0.00  0.00    +0.000 NA
BRANCH  22  25
ATOM     25  C   UNL     1       6.154   4.513  13.805  0.00  0.00    +0.000 A 
ATOM     26  C   UNL     1       7.266   4.378  12.958  0.00  0.00    +0.000 A 
ATOM     27  C   UNL     1       7.194   3.553  11.841  0.00  0.00    +0.000 A 
ATOM     28  C   UNL     1       6.011   2.876  11.546  0.00  0.00    +0.000 A 
ATOM     29  C   UNL     1       4.901   3.012  12.382  0.00  0.00    +0.000 A 
ATOM     30  C   UNL     1       4.972   3.817  13.515  0.00  0.00    +0.000 A 
ENDBRANCH  22  25
ENDBRANCH  19  20
ENDBRANCH  18  19
ENDBRANCH   4  18
TORSDOF 8
ENDMDL
MODEL 3
REMARK VINA RESULT:      -7.8      0.444      1.147
REMARK  Name = 
REMARK  11 active torsions:
REMARK  status: ('A' for Active; 'I' for Inactive)
REMARK    1  A    between atoms: C_1  and  C_2
REMARK    2  A    between atoms: C_2  and  C_3
REMARK    3  A    between atoms: C_2  and  C_4
REMARK    4  A    between atoms: C_4  and  C_5
REMARK    5  A    between atoms: C_8  and  C_9
REMARK    6  A    between atoms: C_9  and  C_10
REMARK    7  A    between atoms: C_9  and  C_11
REMARK    8  A    between atoms: C_14  and  S_15
REMARK    9  A    between atoms: S_15  and  C_16
REMARK   10  A    between atoms: C_16  and  C_17
REMARK   11  A    between atoms: N_19  and  C_20
REMARK                            x       y       z     vdW  Elec       q    Type
REMARK                         _______ _______ _______ _____ _____    ______ ____
ROOT
ATOM      1  C   UNL     1       3.724   4.831  19.287  0.00  0.00    +0.000 A 
ATOM      2  N   UNL     1       4.210   3.618  19.395  0.00  0.00    +0.000 NA
ATOM      3  N   UNL     1       5.570   3.754  19.441  0.00  0.00    +0.000 NA
ATOM      4  C   UNL     1       5.848   5.044  19.357  0.00  0.00    +0.000 A 
ATOM      5  O   UNL     1       4.709   5.805  19.257  0.00  0.00    +0.000 OA
ENDROOT
BRANCH   1   6
ATOM      6  C   UNL     1       2.290   5.239  19.080  0.00  0.00    +0.000 C 
ATOM      7  C   UNL     1       1.781   4.710  17.732  0.00  0.00    +0.000 C 
BRANCH   6  11
ATOM      8  C   UNL     1       1.399   9.490  19.450  0.00  0.00    +0.000 A 
ATOM      9  C   UNL     1       1.316   8.639  20.558  0.00  0.00    +0.000 A 
ATOM     10  C   UNL     1       1.637   7.284  20.436  0.00  0.00    +0.000 A 
ATOM     11  C   UNL     1       2.034   6.735  19.209  0.00  0.00    +0.000 A 
ATOM     12  C   UNL     1       2.131   7.603  18.102  0.00  0.00    +0.000 A 
ATOM     13  C   UNL     1       1.826   8.959  18.230  0.00  0.00    +0.000 A 
BRANCH   8  14
ATOM     14  C   UNL     1       1.034  10.957  19.543  0.00  0.00    +0.000 C 
BRANCH  14  16
ATOM     15  C   UNL     1      -1.371  10.690  18.848  0.00  0.00    +0.000 C 
ATOM     16  C   UNL     1      -0.053  11.403  18.547  0.00  0.00    +0.000 C 
ATOM     17  C   UNL     1      -0.262  12.921  18.584  0.00  0.00    +0.000 C 
ENDBRANCH  14  16
ENDBRANCH   8  14
ENDBRANCH   6  11
ENDBRANCH   1   6
BRANCH   4  18
ATOM     18  S   UNL     1       7.481   5.614  19.272  0.00  0.00    +0.000 S 
BRANCH  18  19
ATOM     19  C   UNL     1       7.434   6.910  18.013  0.00  0.00    +0.000 C 
BRANCH  19  20
ATOM     20  C   UNL     1       6.787   6.380  16.778  0.00  0.00    +0.000 A 
ATOM     21  C   UNL     1       7.164   5.347  15.951  0.00  0.00    +0.000 A 
ATOM     22  N   UNL     1       6.269   5.366  14.907  0.00  0.00    +0.000 N 
ATOM     23  N   UNL     1       5.399   6.391  15.090  0.00  0.00    +0.000 NA
ATOM     24  N   UNL     1       5.675   6.980  16.243  0.00  0.00    +0.000 NA
BRANCH  22  25
ATOM     25  C   UNL     1       6.225   4.528  13.775  0.00  0.00    +0.000 A 
ATOM     26  C   UNL     1       7.323   4.473  12.901  0.00  0.00    +0.000 A 
ATOM     27  C   UNL     1       7.283   3.645  11.784  0.00  0.00    +0.000 A 
ATOM     28  C   UNL     1       6.145   2.887  11.516  0.00  0.00    +0.000 A 
ATOM     29  C   UNL     1       5.048   2.943  12.378  0.00  0.00    +0.000 A 
ATOM     30  C   UNL     1       5.090   3.749  13.511  0.00  0.00    +0.000 A 
ENDBRANCH  22  25
ENDBRANCH  19  20
ENDBRANCH  18  19
ENDBRANCH   4  18
TORSDOF 8
ENDMDL
MODEL 4
REMARK VINA RESULT:      -7.6      0.594      1.012
REMARK  Name = 
REMARK  11 active torsions:
REMARK  status: ('A' for Active; 'I' for Inactive)
REMARK    1  A    between atoms: C_1  and  C_2
REMARK    2  A    between atoms: C_2  and  C_3
REMARK    3  A    between atoms: C_2  and  C_4
REMARK    4  A    between atoms: C_4  and  C_5
REMARK    5  A    between atoms: C_8  and  C_9
REMARK    6  A    between atoms: C_9  and  C_10
REMARK    7  A    between atoms: C_9  and  C_11
REMARK    8  A    between atoms: C_14  and  S_15
REMARK    9  A    between atoms: S_15  and  C_16
REMARK   10  A    between atoms: C_16  and  C_17
REMARK   11  A    between atoms: N_19  and  C_20
REMARK                            x       y       z     vdW  Elec       q    Type
REMARK                         _______ _______ _______ _____ _____    ______ ____
ROOT
ATOM      1  C   UNL     1       3.848   4.752  19.197  0.00  0.00    +0.000 A 
ATOM      2  N   UNL     1       4.425   3.614  18.895  0.00  0.00    +0.000 NA
ATOM      3  N   UNL     1       5.773   3.835  18.978  0.00  0.00    +0.000 NA
ATOM      4  C   UNL     1       5.952   5.098  19.326  0.00  0.00    +0.000 A 
ATOM      5  O   UNL     1       4.758   5.756  19.489  0.00  0.00    +0.000 OA
ENDROOT
BRANCH   1   6
ATOM      6  C   UNL     1       2.383   5.091  19.142  0.00  0.00    +0.000 C 
ATOM      7  C   UNL     1       1.725   4.393  17.944  0.00  0.00    +0.000 C 
BRANCH   6  11
ATOM      8  C   UNL     1       1.358   9.328  19.120  0.00  0.00    +0.000 A 
ATOM      9  C   UNL     1       1.234   8.564  20.287  0.00  0.00    +0.000 A 
ATOM     10  C   UNL     1       1.598   7.214  20.292  0.00  0.00    +0.000 A 
ATOM     11  C   UNL     1       2.079   6.583  19.137  0.00  0.00    +0.000 A 
ATOM     12  C   UNL     1       2.217   7.365  17.971  0.00  0.00    +0.000 A 
ATOM     13  C   UNL     1       1.869   8.717  17.973  0.00  0.00    +0.000 A 
BRANCH   8  14
ATOM     14  C   UNL     1       0.949  10.786  19.076  0.00  0.00    +0.000 C 
BRANCH  14  16
ATOM     15  C   UNL     1       2.573  12.436  18.086  0.00  0.00    +0.000 C 
ATOM     16  C   UNL     1       2.092  11.774  19.377  0.00  0.00    +0.000 C 
ATOM     17  C   UNL     1       1.659  12.845  20.383  0.00  0.00    +0.000 C 
ENDBRANCH  14  16
ENDBRANCH   8  14
ENDBRANCH   6  11
ENDBRANCH   1   6
BRANCH   4  18
ATOM     18  S   UNL     1       7.536   5.791  19.429  0.00  0.00    +0.000 S 
BRANCH  18  19
ATOM     19  C   UNL     1       7.581   6.996  18.083  0.00  0.00    +0.000 C 
BRANCH  19  20
ATOM     20  C   UNL     1       6.902   6.428  16.883  0.00  0.00    +0.000 A 
ATOM     21  C   UNL     1       7.345   5.502  15.968  0.00  0.00    +0.000 A 
ATOM     22  N   UNL     1       6.360   5.429  15.011  0.00  0.00    +0.000 N 
ATOM     23  N   UNL     1       5.369   6.299  15.331  0.00  0.00    +0.000 NA
ATOM     24  N   UNL     1       5.666   6.873  16.486  0.00  0.00    +0.000 NA
BRANCH  22  25
ATOM     25  C   UNL     1       6.331   4.644  13.841  0.00  0.00    +0.000 A 
ATOM     26  C   UNL     1       5.260   3.764  13.615  0.00  0.00    +0.000 A 
ATOM     27  C   UNL     1       5.228   2.988  12.461  0.00  0.00    +0.000 A 
ATOM     28  C   UNL     1       6.270   3.065  11.537  0.00  0.00    +0.000 A 
ATOM     29  C   UNL     1       7.340   3.934  11.761  0.00  0.00    +0.000 A 
ATOM     30  C   UNL     1       7.367   4.731  12.901  0.00  0.00    +0.000 A 
ENDBRANCH  22  25
ENDBRANCH  19  20
ENDBRANCH  18  19
ENDBRANCH   4  18
TORSDOF 8
ENDMDL
MODEL 5
REMARK VINA RESULT:      -7.6      2.863      5.273
REMARK  Name = 
REMARK  11 active torsions:
REMARK  status: ('A' for Active; 'I' for Inactive)
REMARK    1  A    between atoms: C_1  and  C_2
REMARK    2  A    between atoms: C_2  and  C_3
REMARK    3  A    between atoms: C_2  and  C_4
REMARK    4  A    between atoms: C_4  and  C_5
REMARK    5  A    between atoms: C_8  and  C_9
REMARK    6  A    between atoms: C_9  and  C_10
REMARK    7  A    between atoms: C_9  and  C_11
REMARK    8  A    between atoms: C_14  and  S_15
REMARK    9  A    between atoms: S_15  and  C_16
REMARK   10  A    between atoms: C_16  and  C_17
REMARK   11  A    between atoms: N_19  and  C_20
REMARK                            x       y       z     vdW  Elec       q    Type
REMARK                         _______ _______ _______ _____ _____    ______ ____
ROOT
ATOM      1  C   UNL     1       3.206   5.008  19.149  0.00  0.00    +0.000 A 
ATOM      2  N   UNL     1       2.822   4.674  17.940  0.00  0.00    +0.000 NA
ATOM      3  N   UNL     1       3.965   4.484  17.214  0.00  0.00    +0.000 NA
ATOM      4  C   UNL     1       4.993   4.713  18.014  0.00  0.00    +0.000 A 
ATOM      5  O   UNL     1       4.585   5.055  19.281  0.00  0.00    +0.000 OA
ENDROOT
BRANCH   1   6
ATOM      6  C   UNL     1       2.349   5.441  20.306  0.00  0.00    +0.000 C 
ATOM      7  C   UNL     1       1.168   4.476  20.480  0.00  0.00    +0.000 C 
BRANCH   6  11
ATOM      8  C   UNL     1       0.819   9.515  20.045  0.00  0.00    +0.000 A 
ATOM      9  C   UNL     1       0.546   8.715  21.160  0.00  0.00    +0.000 A 
ATOM     10  C   UNL     1       1.070   7.422  21.250  0.00  0.00    +0.000 A 
ATOM     11  C   UNL     1       1.865   6.884  20.229  0.00  0.00    +0.000 A 
ATOM     12  C   UNL     1       2.149   7.703  19.117  0.00  0.00    +0.000 A 
ATOM     13  C   UNL     1       1.638   9.000  19.038  0.00  0.00    +0.000 A 
BRANCH   8  14
ATOM     14  C   UNL     1       0.245  10.911  19.906  0.00  0.00    +0.000 C 
BRANCH  14  16
ATOM     15  C   UNL     1      -1.708  10.326  18.429  0.00  0.00    +0.000 C 
ATOM     16  C   UNL     1      -0.446  11.180  18.556  0.00  0.00    +0.000 C 
ATOM     17  C   UNL     1      -0.799  12.661  18.390  0.00  0.00    +0.000 C 
ENDBRANCH  14  16
ENDBRANCH   8  14
ENDBRANCH   6  11
ENDBRANCH   1   6
BRANCH   4  18
ATOM     18  S   UNL     1       6.622   4.680  17.428  0.00  0.00    +0.000 S 
BRANCH  18  19
ATOM     19  C   UNL     1       6.819   6.263  16.577  0.00  0.00    +0.000 C 
BRANCH  19  20
ATOM     20  C   UNL     1       7.491   7.236  17.486  0.00  0.00    +0.000 A 
ATOM     21  C   UNL     1       7.706   8.586  17.338  0.00  0.00    +0.000 A 
ATOM     22  N   UNL     1       8.466   8.960  18.422  0.00  0.00    +0.000 N 
ATOM     23  N   UNL     1       8.717   7.864  19.183  0.00  0.00    +0.000 NA
ATOM     24  N   UNL     1       8.091   6.826  18.650  0.00  0.00    +0.000 NA
BRANCH  22  25
ATOM     25  C   UNL     1       8.978  10.234  18.736  0.00  0.00    +0.000 A 
ATOM     26  C   UNL     1       9.694  10.426  19.929  0.00  0.00    +0.000 A 
ATOM     27  C   UNL     1      10.201  11.683  20.241  0.00  0.00    +0.000 A 
ATOM     28  C   UNL     1       9.981  12.759  19.383  0.00  0.00    +0.000 A 
ATOM     29  C   UNL     1       9.264  12.575  18.199  0.00  0.00    +0.000 A 
ATOM     30  C   UNL     1       8.774  11.315  17.868  0.00  0.00    +0.000 A 
ENDBRANCH  22  25
ENDBRANCH  19  20
ENDBRANCH  18  19
ENDBRANCH   4  18
TORSDOF 8
ENDMDL
MODEL 6
REMARK VINA RESULT:      -7.6      2.237      3.564
REMARK  Name = 
REMARK  11 active torsions:
REMARK  status: ('A' for Active; 'I' for Inactive)
REMARK    1  A    between atoms: C_1  and  C_2
REMARK    2  A    between atoms: C_2  and  C_3
REMARK    3  A    between atoms: C_2  and  C_4
REMARK    4  A    between atoms: C_4  and  C_5
REMARK    5  A    between atoms: C_8  and  C_9
REMARK    6  A    between atoms: C_9  and  C_10
REMARK    7  A    between atoms: C_9  and  C_11
REMARK    8  A    between atoms: C_14  and  S_15
REMARK    9  A    between atoms: S_15  and  C_16
REMARK   10  A    between atoms: C_16  and  C_17
REMARK   11  A    between atoms: N_19  and  C_20
REMARK                            x       y       z     vdW  Elec       q    Type
REMARK                         _______ _______ _______ _____ _____    ______ ____
ROOT
ATOM      1  C   UNL     1       1.795   7.327  20.613  0.00  0.00    +0.000 A 
ATOM      2  N   UNL     1       1.160   6.367  21.242  0.00  0.00    +0.000 NA
ATOM      3  N   UNL     1       1.476   5.207  20.588  0.00  0.00    +0.000 NA
ATOM      4  C   UNL     1       2.288   5.516  19.591  0.00  0.00    +0.000 A 
ATOM      5  O   UNL     1       2.543   6.865  19.541  0.00  0.00    +0.000 OA
ENDROOT
BRANCH   1   6
ATOM      6  C   UNL     1       1.698   8.809  20.849  0.00  0.00    +0.000 C 
ATOM      7  C   UNL     1       1.344   9.089  22.316  0.00  0.00    +0.000 C 
BRANCH   6  11
ATOM      8  C   UNL     1      -1.139  10.782  18.191  0.00  0.00    +0.000 A 
ATOM      9  C   UNL     1      -1.255  10.899  19.581  0.00  0.00    +0.000 A 
ATOM     10  C   UNL     1      -0.319  10.291  20.424  0.00  0.00    +0.000 A 
ATOM     11  C   UNL     1       0.745   9.538  19.910  0.00  0.00    +0.000 A 
ATOM     12  C   UNL     1       0.864   9.440  18.509  0.00  0.00    +0.000 A 
ATOM     13  C   UNL     1      -0.062  10.062  17.669  0.00  0.00    +0.000 A 
BRANCH   8  14
ATOM     14  C   UNL     1      -2.150  11.408  17.252  0.00  0.00    +0.000 C 
BRANCH  14  16
ATOM     15  C   UNL     1      -4.638  11.268  16.892  0.00  0.00    +0.000 C 
ATOM     16  C   UNL     1      -3.326  10.484  16.882  0.00  0.00    +0.000 C 
ATOM     17  C   UNL     1      -3.119   9.832  15.510  0.00  0.00    +0.000 C 
ENDBRANCH  14  16
ENDBRANCH   8  14
ENDBRANCH   6  11
ENDBRANCH   1   6
BRANCH   4  18
ATOM     18  S   UNL     1       2.826   4.322  18.458  0.00  0.00    +0.000 S 
BRANCH  18  19
ATOM     19  C   UNL     1       4.552   4.031  18.907  0.00  0.00    +0.000 C 
BRANCH  19  20
ATOM     20  C   UNL     1       5.427   4.330  17.737  0.00  0.00    +0.000 A 
ATOM     21  C   UNL     1       5.204   4.147  16.392  0.00  0.00    +0.000 A 
ATOM     22  N   UNL     1       6.384   4.489  15.773  0.00  0.00    +0.000 N 
ATOM     23  N   UNL     1       7.291   4.845  16.718  0.00  0.00    +0.000 NA
ATOM     24  N   UNL     1       6.706   4.797  17.905  0.00  0.00    +0.000 NA
BRANCH  22  25
ATOM     25  C   UNL     1       6.694   4.458  14.399  0.00  0.00    +0.000 A 
ATOM     26  C   UNL     1       7.643   5.350  13.875  0.00  0.00    +0.000 A 
ATOM     27  C   UNL     1       7.952   5.321  12.519  0.00  0.00    +0.000 A 
ATOM     28  C   UNL     1       7.304   4.423  11.673  0.00  0.00    +0.000 A 
ATOM     29  C   UNL     1       6.354   3.538  12.188  0.00  0.00    +0.000 A 
ATOM     30  C   UNL     1       6.057   3.544  13.548  0.00  0.00    +0.000 A 
ENDBRANCH  22  25
ENDBRANCH  19  20
ENDBRANCH  18  19
ENDBRANCH   4  18
TORSDOF 8
ENDMDL
MODEL 7
REMARK VINA RESULT:      -7.5      3.311      9.043
REMARK  Name = 
REMARK  11 active torsions:
REMARK  status: ('A' for Active; 'I' for Inactive)
REMARK    1  A    between atoms: C_1  and  C_2
REMARK    2  A    between atoms: C_2  and  C_3
REMARK    3  A    between atoms: C_2  and  C_4
REMARK    4  A    between atoms: C_4  and  C_5
REMARK    5  A    between atoms: C_8  and  C_9
REMARK    6  A    between atoms: C_9  and  C_10
REMARK    7  A    between atoms: C_9  and  C_11
REMARK    8  A    between atoms: C_14  and  S_15
REMARK    9  A    between atoms: S_15  and  C_16
REMARK   10  A    between atoms: C_16  and  C_17
REMARK   11  A    between atoms: N_19  and  C_20
REMARK                            x       y       z     vdW  Elec       q    Type
REMARK                         _______ _______ _______ _____ _____    ______ ____
ROOT
ATOM      1  C   UNL     1       4.135   5.951  18.637  0.00  0.00    +0.000 A 
ATOM      2  N   UNL     1       3.565   6.773  17.788  0.00  0.00    +0.000 NA
ATOM      3  N   UNL     1       2.523   7.352  18.459  0.00  0.00    +0.000 NA
ATOM      4  C   UNL     1       2.507   6.855  19.684  0.00  0.00    +0.000 A 
ATOM      5  O   UNL     1       3.518   5.945  19.877  0.00  0.00    +0.000 OA
ENDROOT
BRANCH   1   6
ATOM      6  C   UNL     1       5.253   4.979  18.375  0.00  0.00    +0.000 C 
ATOM      7  C   UNL     1       6.519   5.414  19.126  0.00  0.00    +0.000 C 
BRANCH   6  11
ATOM      8  C   UNL     1       6.145   4.145  14.190  0.00  0.00    +0.000 A 
ATOM      9  C   UNL     1       4.952   3.701  14.773  0.00  0.00    +0.000 A 
ATOM     10  C   UNL     1       4.660   4.004  16.106  0.00  0.00    +0.000 A 
ATOM     11  C   UNL     1       5.550   4.740  16.900  0.00  0.00    +0.000 A 
ATOM     12  C   UNL     1       6.741   5.197  16.300  0.00  0.00    +0.000 A 
ATOM     13  C   UNL     1       7.023   4.908  14.963  0.00  0.00    +0.000 A 
BRANCH   8  14
ATOM     14  C   UNL     1       6.502   3.813  12.756  0.00  0.00    +0.000 C 
BRANCH  14  16
ATOM     15  C   UNL     1       4.473   3.327  11.346  0.00  0.00    +0.000 C 
ATOM     16  C   UNL     1       5.632   2.708  12.126  0.00  0.00    +0.000 C 
ATOM     17  C   UNL     1       6.454   1.800  11.205  0.00  0.00    +0.000 C 
ENDBRANCH  14  16
ENDBRANCH   8  14
ENDBRANCH   6  11
ENDBRANCH   1   6
BRANCH   4  18
ATOM     18  S   UNL     1       1.257   7.265  20.811  0.00  0.00    +0.000 S 
BRANCH  18  19
ATOM     19  C   UNL     1       1.513   9.025  21.135  0.00  0.00    +0.000 C 
BRANCH  19  20
ATOM     20  C   UNL     1       0.571   9.826  20.302  0.00  0.00    +0.000 A 
ATOM     21  C   UNL     1      -0.540   9.435  19.592  0.00  0.00    +0.000 A 
ATOM     22  N   UNL     1      -0.965  10.558  18.921  0.00  0.00    +0.000 N 
ATOM     23  N   UNL     1      -0.121  11.584  19.203  0.00  0.00    +0.000 NA
ATOM     24  N   UNL     1       0.782  11.163  20.074  0.00  0.00    +0.000 NA
BRANCH  22  25
ATOM     25  C   UNL     1      -2.052  10.692  18.036  0.00  0.00    +0.000 A 
ATOM     26  C   UNL     1      -2.054   9.993  16.818  0.00  0.00    +0.000 A 
ATOM     27  C   UNL     1      -3.127  10.123  15.943  0.00  0.00    +0.000 A 
ATOM     28  C   UNL     1      -4.191  10.965  16.261  0.00  0.00    +0.000 A 
ATOM     29  C   UNL     1      -4.191  11.667  17.468  0.00  0.00    +0.000 A 
ATOM     30  C   UNL     1      -3.133  11.524  18.360  0.00  0.00    +0.000 A 
ENDBRANCH  22  25
ENDBRANCH  19  20
ENDBRANCH  18  19
ENDBRANCH   4  18
TORSDOF 8
ENDMDL
MODEL 8
REMARK VINA RESULT:      -7.5      2.922      5.355
REMARK  Name = 
REMARK  11 active torsions:
REMARK  status: ('A' for Active; 'I' for Inactive)
REMARK    1  A    between atoms: C_1  and  C_2
REMARK    2  A    between atoms: C_2  and  C_3
REMARK    3  A    between atoms: C_2  and  C_4
REMARK    4  A    between atoms: C_4  and  C_5
REMARK    5  A    between atoms: C_8  and  C_9
REMARK    6  A    between atoms: C_9  and  C_10
REMARK    7  A    between atoms: C_9  and  C_11
REMARK    8  A    between atoms: C_14  and  S_15
REMARK    9  A    between atoms: S_15  and  C_16
REMARK   10  A    between atoms: C_16  and  C_17
REMARK   11  A    between atoms: N_19  and  C_20
REMARK                            x       y       z     vdW  Elec       q    Type
REMARK                         _______ _______ _______ _____ _____    ______ ____
ROOT
ATOM      1  C   UNL     1       3.245   5.094  19.167  0.00  0.00    +0.000 A 
ATOM      2  N   UNL     1       2.832   4.361  18.161  0.00  0.00    +0.000 NA
ATOM      3  N   UNL     1       3.885   4.275  17.293  0.00  0.00    +0.000 NA
ATOM      4  C   UNL     1       4.890   4.962  17.810  0.00  0.00    +0.000 A 
ATOM      5  O   UNL     1       4.556   5.519  19.020  0.00  0.00    +0.000 OA
ENDROOT
BRANCH   1   6
ATOM      6  C   UNL     1       2.445   5.594  20.339  0.00  0.00    +0.000 C 
ATOM      7  C   UNL     1       1.285   4.633  20.635  0.00  0.00    +0.000 C 
BRANCH   6  11
ATOM      8  C   UNL     1       0.859   9.632  19.906  0.00  0.00    +0.000 A 
ATOM      9  C   UNL     1       0.691   8.918  21.098  0.00  0.00    +0.000 A 
ATOM     10  C   UNL     1       1.234   7.637  21.239  0.00  0.00    +0.000 A 
ATOM     11  C   UNL     1       1.942   7.025  20.195  0.00  0.00    +0.000 A 
ATOM     12  C   UNL     1       2.121   7.759  19.005  0.00  0.00    +0.000 A 
ATOM     13  C   UNL     1       1.593   9.045  18.873  0.00  0.00    +0.000 A 
BRANCH   8  14
ATOM     14  C   UNL     1       0.263  11.011  19.713  0.00  0.00    +0.000 C 
BRANCH  14  16
ATOM     15  C   UNL     1       0.449  13.063  18.266  0.00  0.00    +0.000 C 
ATOM     16  C   UNL     1       1.228  12.036  19.088  0.00  0.00    +0.000 C 
ATOM     17  C   UNL     1       2.062  12.749  20.158  0.00  0.00    +0.000 C 
ENDBRANCH  14  16
ENDBRANCH   8  14
ENDBRANCH   6  11
ENDBRANCH   1   6
BRANCH   4  18
ATOM     18  S   UNL     1       6.375   5.181  16.947  0.00  0.00    +0.000 S 
BRANCH  18  19
ATOM     19  C   UNL     1       7.564   5.657  18.223  0.00  0.00    +0.000 C 
BRANCH  19  20
ATOM     20  C   UNL     1       7.880   7.109  18.092  0.00  0.00    +0.000 A 
ATOM     21  C   UNL     1       8.589   7.942  18.926  0.00  0.00    +0.000 A 
ATOM     22  N   UNL     1       8.475   9.197  18.376  0.00  0.00    +0.000 N 
ATOM     23  N   UNL     1       7.704   9.123  17.261  0.00  0.00    +0.000 NA
ATOM     24  N   UNL     1       7.380   7.856  17.055  0.00  0.00    +0.000 NA
BRANCH  22  25
ATOM     25  C   UNL     1       9.000  10.414  18.854  0.00  0.00    +0.000 A 
ATOM     26  C   UNL     1       9.516  10.490  20.157  0.00  0.00    +0.000 A 
ATOM     27  C   UNL     1      10.036  11.690  20.631  0.00  0.00    +0.000 A 
ATOM     28  C   UNL     1      10.024  12.825  19.823  0.00  0.00    +0.000 A 
ATOM     29  C   UNL     1       9.505  12.757  18.528  0.00  0.00    +0.000 A 
ATOM     30  C   UNL     1       9.006  11.554  18.038  0.00  0.00    +0.000 A 
ENDBRANCH  22  25
ENDBRANCH  19  20
ENDBRANCH  18  19
ENDBRANCH   4  18
TORSDOF 8
ENDMDL
MODEL 9
REMARK VINA RESULT:      -7.4      2.859      5.332
REMARK  Name = 
REMARK  11 active torsions:
REMARK  status: ('A' for Active; 'I' for Inactive)
REMARK    1  A    between atoms: C_1  and  C_2
REMARK    2  A    between atoms: C_2  and  C_3
REMARK    3  A    between atoms: C_2  and  C_4
REMARK    4  A    between atoms: C_4  and  C_5
REMARK    5  A    between atoms: C_8  and  C_9
REMARK    6  A    between atoms: C_9  and  C_10
REMARK    7  A    between atoms: C_9  and  C_11
REMARK    8  A    between atoms: C_14  and  S_15
REMARK    9  A    between atoms: S_15  and  C_16
REMARK   10  A    between atoms: C_16  and  C_17
REMARK   11  A    between atoms: N_19  and  C_20
REMARK                            x       y       z     vdW  Elec       q    Type
REMARK                         _______ _______ _______ _____ _____    ______ ____
ROOT
ATOM      1  C   UNL     1       3.442   4.347  19.207  0.00  0.00    +0.000 A 
ATOM      2  N   UNL     1       3.265   3.421  18.296  0.00  0.00    +0.000 NA
ATOM      3  N   UNL     1       4.375   3.454  17.497  0.00  0.00    +0.000 NA
ATOM      4  C   UNL     1       5.174   4.400  17.958  0.00  0.00    +0.000 A 
ATOM      5  O   UNL     1       4.643   5.022  19.063  0.00  0.00    +0.000 OA
ENDROOT
BRANCH   1   6
ATOM      6  C   UNL     1       2.470   4.808  20.259  0.00  0.00    +0.000 C 
ATOM      7  C   UNL     1       1.256   3.870  20.304  0.00  0.00    +0.000 C 
BRANCH   6  11
ATOM      8  C   UNL     1       1.364   9.009  19.898  0.00  0.00    +0.000 A 
ATOM      9  C   UNL     1       2.047   8.355  18.867  0.00  0.00    +0.000 A 
ATOM     10  C   UNL     1       2.367   6.998  18.978  0.00  0.00    +0.000 A 
ATOM     11  C   UNL     1       2.031   6.260  20.122  0.00  0.00    +0.000 A 
ATOM     12  C   UNL     1       1.328   6.923  21.148  0.00  0.00    +0.000 A 
ATOM     13  C   UNL     1       0.995   8.274  21.027  0.00  0.00    +0.000 A 
BRANCH   8  14
ATOM     14  C   UNL     1       1.025  10.484  19.819  0.00  0.00    +0.000 C 
BRANCH  14  16
ATOM     15  C   UNL     1      -1.253  10.227  18.778  0.00  0.00    +0.000 C 
ATOM     16  C   UNL     1       0.129  10.864  18.625  0.00  0.00    +0.000 C 
ATOM     17  C   UNL     1      -0.010  12.383  18.487  0.00  0.00    +0.000 C 
ENDBRANCH  14  16
ENDBRANCH   8  14
ENDBRANCH   6  11
ENDBRANCH   1   6
BRANCH   4  18
ATOM     18  S   UNL     1       6.642   4.823  17.142  0.00  0.00    +0.000 S 
BRANCH  18  19
ATOM     19  C   UNL     1       6.422   6.563  16.705  0.00  0.00    +0.000 C 
BRANCH  19  20
ATOM     20  C   UNL     1       7.284   7.409  17.580  0.00  0.00    +0.000 A 
ATOM     21  C   UNL     1       7.603   8.743  17.488  0.00  0.00    +0.000 A 
ATOM     22  N   UNL     1       8.518   8.973  18.489  0.00  0.00    +0.000 N 
ATOM     23  N   UNL     1       8.756   7.809  19.145  0.00  0.00    +0.000 NA
ATOM     24  N   UNL     1       7.978   6.868  18.633  0.00  0.00    +0.000 NA
BRANCH  22  25
ATOM     25  C   UNL     1       9.179  10.174  18.813  0.00  0.00    +0.000 A 
ATOM     26  C   UNL     1       9.468  10.475  20.154  0.00  0.00    +0.000 A 
ATOM     27  C   UNL     1      10.122  11.659  20.476  0.00  0.00    +0.000 A 
ATOM     28  C   UNL     1      10.470  12.562  19.473  0.00  0.00    +0.000 A 
ATOM     29  C   UNL     1      10.179  12.271  18.139  0.00  0.00    +0.000 A 
ATOM     30  C   UNL     1       9.547  11.077  17.805  0.00  0.00    +0.000 A 
ENDBRANCH  22  25
ENDBRANCH  19  20
ENDBRANCH  18  19
ENDBRANCH   4  18
TORSDOF 8
ENDMDL
