MODEL 1
REMARK VINA RESULT:      -8.7      0.000      0.000
REMARK  Name = 
REMARK  8 active torsions:
REMARK  status: ('A' for Active; 'I' for Inactive)
REMARK    1  A    between atoms: C_1  and  O_2
REMARK    2  A    between atoms: O_2  and  C_3
REMARK    3  A    between atoms: C_5  and  C_6
REMARK    4  A    between atoms: N_8  and  C_9
REMARK    5  A    between atoms: C_17  and  N_18
REMARK    6  A    between atoms: N_25  and  C_26
REMARK    7  A    between atoms: C_31  and  C_32
REMARK    8  A    between atoms: N_35  and  C_36
REMARK                            x       y       z     vdW  Elec       q    Type
REMARK                         _______ _______ _______ _____ _____    ______ ____
ROOT
ATOM      1  N   UNL     1       0.586  10.712  19.751  0.00  0.00    +0.000 N 
ATOM      2  C   UNL     1       1.028  11.979  19.318  0.00  0.00    +0.000 A 
ATOM      3  N   UNL     1       2.082  12.021  18.497  0.00  0.00    +0.000 NA
ATOM      4  C   UNL     1       2.566  13.218  18.153  0.00  0.00    +0.000 A 
ATOM      5  C   UNL     1       2.044  14.416  18.582  0.00  0.00    +0.000 A 
ATOM      6  C   UNL     1       0.899  14.325  19.389  0.00  0.00    +0.000 A 
ATOM      7  N   UNL     1       0.417  13.103  19.768  0.00  0.00    +0.000 NA
ATOM      8  N   UNL     1       0.227  15.527  19.756  0.00  0.00    +0.000 N 
ATOM      9  C   UNL     1       1.122  16.719  19.845  0.00  0.00    +0.000 C 
ATOM     10  C   UNL     1       0.457  18.088  20.032  0.00  0.00    +0.000 C 
ATOM     11  C   UNL     1       2.040  16.846  18.608  0.00  0.00    +0.000 C 
ATOM     12  O   UNL     1       2.352  17.932  18.115  0.00  0.00    +0.000 OA
ATOM     13  N   UNL     1       2.608  15.658  18.180  0.00  0.00    +0.000 N 
ATOM     14  C   UNL     1       3.807  15.705  17.361  0.00  0.00    +0.000 C 
ATOM     15  H   UNL     1       0.112  10.772  20.641  0.00  0.00    +0.000 HD
ENDROOT
BRANCH   1  21
ATOM     16  C   UNL     1       1.386   8.478  20.454  0.00  0.00    +0.000 A 
ATOM     17  C   UNL     1       2.109   7.308  20.152  0.00  0.00    +0.000 A 
ATOM     18  C   UNL     1       2.556   7.034  18.853  0.00  0.00    +0.000 A 
ATOM     19  C   UNL     1       2.248   7.938  17.842  0.00  0.00    +0.000 A 
ATOM     20  C   UNL     1       1.562   9.121  18.145  0.00  0.00    +0.000 A 
ATOM     21  C   UNL     1       1.159   9.448  19.454  0.00  0.00    +0.000 A 
BRANCH  18  22
ATOM     22  C   UNL     1       3.338   5.768  18.641  0.00  0.00    +0.000 C 
ATOM     23  O   UNL     1       3.289   4.876  19.479  0.00  0.00    +0.000 OA
ATOM     24  N   UNL     1       4.115   5.684  17.506  0.00  0.00    +0.000 N 
ATOM     25  H   UNL     1       4.264   6.512  16.951  0.00  0.00    +0.000 HD
BRANCH  24  26
ATOM     26  C   UNL     1       5.028   4.566  17.272  0.00  0.00    +0.000 C 
ATOM     27  C   UNL     1       6.413   4.862  17.847  0.00  0.00    +0.000 C 
ATOM     28  C   UNL     1       7.137   5.929  17.024  0.00  0.00    +0.000 C 
ATOM     29  N   UNL     1       7.232   5.575  15.605  0.00  0.00    +0.000 NA
ATOM     30  C   UNL     1       5.915   5.325  15.021  0.00  0.00    +0.000 C 
ATOM     31  C   UNL     1       5.136   4.250  15.779  0.00  0.00    +0.000 C 
ATOM     32  H   UNL     1       7.804   4.735  15.512  0.00  0.00    +0.000 HD
ENDBRANCH  24  26
ENDBRANCH  18  22
BRANCH  16  34
ATOM     33  C   UNL     1      -0.491   8.439  21.893  0.00  0.00    +0.000 C 
ATOM     34  O   UNL     1       0.897   8.743  21.716  0.00  0.00    +0.000 OA
ENDBRANCH  16  34
ENDBRANCH   1  21
BRANCH   8  35
ATOM     35  C   UNL     1      -1.041  15.400  20.488  0.00  0.00    +0.000 C 
ATOM     36  C   UNL     1      -0.950  15.607  22.000  0.00  0.00    +0.000 C 
ATOM     37  C   UNL     1      -2.288  16.215  22.409  0.00  0.00    +0.000 C 
ATOM     38  C   UNL     1      -2.891  16.865  21.172  0.00  0.00    +0.000 C 
ATOM     39  C   UNL     1      -2.079  16.404  19.972  0.00  0.00    +0.000 C 
ENDBRANCH   8  35
TORSDOF 5
ENDMDL
MODEL 2
REMARK VINA RESULT:      -8.6      3.146      4.392
REMARK  Name = 
REMARK  8 active torsions:
REMARK  status: ('A' for Active; 'I' for Inactive)
REMARK    1  A    between atoms: C_1  and  O_2
REMARK    2  A    between atoms: O_2  and  C_3
REMARK    3  A    between atoms: C_5  and  C_6
REMARK    4  A    between atoms: N_8  and  C_9
REMARK    5  A    between atoms: C_17  and  N_18
REMARK    6  A    between atoms: N_25  and  C_26
REMARK    7  A    between atoms: C_31  and  C_32
REMARK    8  A    between atoms: N_35  and  C_36
REMARK                            x       y       z     vdW  Elec       q    Type
REMARK                         _______ _______ _______ _____ _____    ______ ____
ROOT
ATOM      1  N   UNL     1      -0.770  10.171  20.895  0.00  0.00    +0.000 N 
ATOM      2  C   UNL     1      -0.738  11.496  21.375  0.00  0.00    +0.000 A 
ATOM      3  N   UNL     1       0.390  12.192  21.197  0.00  0.00    +0.000 NA
ATOM      4  C   UNL     1       0.465  13.416  21.728  0.00  0.00    +0.000 A 
ATOM      5  C   UNL     1      -0.548  14.015  22.439  0.00  0.00    +0.000 A 
ATOM      6  C   UNL     1      -1.736  13.273  22.544  0.00  0.00    +0.000 A 
ATOM      7  N   UNL     1      -1.808  12.008  22.029  0.00  0.00    +0.000 NA
ATOM      8  N   UNL     1      -2.871  13.887  23.149  0.00  0.00    +0.000 N 
ATOM      9  C   UNL     1      -2.529  14.916  24.176  0.00  0.00    +0.000 C 
ATOM     10  C   UNL     1      -3.676  15.770  24.729  0.00  0.00    +0.000 C 
ATOM     11  C   UNL     1      -1.455  15.905  23.668  0.00  0.00    +0.000 C 
ATOM     12  O   UNL     1      -1.458  17.103  23.958  0.00  0.00    +0.000 OA
ATOM     13  N   UNL     1      -0.404  15.321  22.980  0.00  0.00    +0.000 N 
ATOM     14  C   UNL     1       0.851  16.044  22.867  0.00  0.00    +0.000 C 
ATOM     15  H   UNL     1      -1.431   9.608  21.411  0.00  0.00    +0.000 HD
ENDROOT
BRANCH   1  21
ATOM     16  C   UNL     1       0.574   9.593  18.899  0.00  0.00    +0.000 A 
ATOM     17  C   UNL     1       1.509   8.738  18.284  0.00  0.00    +0.000 A 
ATOM     18  C   UNL     1       2.227   7.783  19.015  0.00  0.00    +0.000 A 
ATOM     19  C   UNL     1       2.018   7.705  20.387  0.00  0.00    +0.000 A 
ATOM     20  C   UNL     1       1.061   8.527  20.998  0.00  0.00    +0.000 A 
ATOM     21  C   UNL     1       0.282   9.449  20.272  0.00  0.00    +0.000 A 
BRANCH  18  22
ATOM     22  C   UNL     1       3.185   6.906  18.258  0.00  0.00    +0.000 C 
ATOM     23  O   UNL     1       3.790   7.358  17.293  0.00  0.00    +0.000 OA
ATOM     24  N   UNL     1       3.315   5.600  18.676  0.00  0.00    +0.000 N 
ATOM     25  H   UNL     1       2.662   5.233  19.349  0.00  0.00    +0.000 HD
BRANCH  24  26
ATOM     26  C   UNL     1       4.103   4.621  17.927  0.00  0.00    +0.000 C 
ATOM     27  C   UNL     1       3.196   3.696  17.115  0.00  0.00    +0.000 C 
ATOM     28  C   UNL     1       2.432   2.732  18.025  0.00  0.00    +0.000 C 
ATOM     29  N   UNL     1       3.323   1.953  18.891  0.00  0.00    +0.000 NA
ATOM     30  C   UNL     1       4.173   2.817  19.708  0.00  0.00    +0.000 C 
ATOM     31  C   UNL     1       4.988   3.798  18.865  0.00  0.00    +0.000 C 
ATOM     32  H   UNL     1       3.912   1.358  18.309  0.00  0.00    +0.000 HD
ENDBRANCH  24  26
ENDBRANCH  18  22
BRANCH  16  34
ATOM     33  C   UNL     1      -1.257  10.101  17.490  0.00  0.00    +0.000 C 
ATOM     34  O   UNL     1      -0.107  10.570  18.205  0.00  0.00    +0.000 OA
ENDBRANCH  16  34
ENDBRANCH   1  21
BRANCH   8  35
ATOM     35  C   UNL     1      -4.138  13.143  23.128  0.00  0.00    +0.000 C 
ATOM     36  C   UNL     1      -4.613  12.616  24.483  0.00  0.00    +0.000 C 
ATOM     37  C   UNL     1      -6.136  12.634  24.415  0.00  0.00    +0.000 C 
ATOM     38  C   UNL     1      -6.534  13.641  23.345  0.00  0.00    +0.000 C 
ATOM     39  C   UNL     1      -5.277  14.007  22.573  0.00  0.00    +0.000 C 
ENDBRANCH   8  35
TORSDOF 5
ENDMDL
MODEL 3
REMARK VINA RESULT:      -8.4      1.068      1.121
REMARK  Name = 
REMARK  8 active torsions:
REMARK  status: ('A' for Active; 'I' for Inactive)
REMARK    1  A    between atoms: C_1  and  O_2
REMARK    2  A    between atoms: O_2  and  C_3
REMARK    3  A    between atoms: C_5  and  C_6
REMARK    4  A    between atoms: N_8  and  C_9
REMARK    5  A    between atoms: C_17  and  N_18
REMARK    6  A    between atoms: N_25  and  C_26
REMARK    7  A    between atoms: C_31  and  C_32
REMARK    8  A    between atoms: N_35  and  C_36
REMARK                            x       y       z     vdW  Elec       q    Type
REMARK                         _______ _______ _______ _____ _____    ______ ____
ROOT
ATOM      1  N   UNL     1       0.299  11.316  19.489  0.00  0.00    +0.000 N 
ATOM      2  C   UNL     1       0.959  12.560  19.557  0.00  0.00    +0.000 A 
ATOM      3  N   UNL     1       2.285  12.569  19.385  0.00  0.00    +0.000 NA
ATOM      4  C   UNL     1       2.932  13.728  19.537  0.00  0.00    +0.000 A 
ATOM      5  C   UNL     1       2.321  14.920  19.850  0.00  0.00    +0.000 A 
ATOM      6  C   UNL     1       0.923  14.876  19.956  0.00  0.00    +0.000 A 
ATOM      7  N   UNL     1       0.258  13.687  19.831  0.00  0.00    +0.000 NA
ATOM      8  N   UNL     1       0.214  16.098  20.143  0.00  0.00    +0.000 N 
ATOM      9  C   UNL     1       0.994  17.146  20.866  0.00  0.00    +0.000 C 
ATOM     10  C   UNL     1       0.392  18.555  20.932  0.00  0.00    +0.000 C 
ATOM     11  C   UNL     1       2.419  17.309  20.288  0.00  0.00    +0.000 C 
ATOM     12  O   UNL     1       2.989  18.399  20.209  0.00  0.00    +0.000 OA
ATOM     13  N   UNL     1       3.068  16.120  20.000  0.00  0.00    +0.000 N 
ATOM     14  C   UNL     1       4.518  16.116  19.903  0.00  0.00    +0.000 C 
ATOM     15  H   UNL     1      -0.558  11.324  20.023  0.00  0.00    +0.000 HD
ENDROOT
BRANCH   1  21
ATOM     16  C   UNL     1       1.119   9.158  20.381  0.00  0.00    +0.000 A 
ATOM     17  C   UNL     1       1.852   7.973  20.181  0.00  0.00    +0.000 A 
ATOM     18  C   UNL     1       2.302   7.591  18.910  0.00  0.00    +0.000 A 
ATOM     19  C   UNL     1       1.986   8.401  17.825  0.00  0.00    +0.000 A 
ATOM     20  C   UNL     1       1.289   9.600  18.026  0.00  0.00    +0.000 A 
ATOM     21  C   UNL     1       0.884  10.035  19.302  0.00  0.00    +0.000 A 
BRANCH  18  22
ATOM     22  C   UNL     1       3.095   6.319  18.808  0.00  0.00    +0.000 C 
ATOM     23  O   UNL     1       2.862   5.394  19.576  0.00  0.00    +0.000 OA
ATOM     24  N   UNL     1       4.089   6.265  17.855  0.00  0.00    +0.000 N 
ATOM     25  H   UNL     1       4.360   7.112  17.381  0.00  0.00    +0.000 HD
BRANCH  24  26
ATOM     26  C   UNL     1       5.017   5.138  17.765  0.00  0.00    +0.000 C 
ATOM     27  C   UNL     1       6.364   5.487  18.399  0.00  0.00    +0.000 C 
ATOM     28  C   UNL     1       7.135   6.493  17.542  0.00  0.00    +0.000 C 
ATOM     29  N   UNL     1       7.318   6.030  16.163  0.00  0.00    +0.000 NA
ATOM     30  C   UNL     1       6.040   5.728  15.521  0.00  0.00    +0.000 C 
ATOM     31  C   UNL     1       5.218   4.709  16.310  0.00  0.00    +0.000 C 
ATOM     32  H   UNL     1       7.896   5.189  16.170  0.00  0.00    +0.000 HD
ENDBRANCH  24  26
ENDBRANCH  18  22
BRANCH  16  34
ATOM     33  C   UNL     1      -0.469   8.732  22.083  0.00  0.00    +0.000 C 
ATOM     34  O   UNL     1       0.628   9.526  21.616  0.00  0.00    +0.000 OA
ENDBRANCH  16  34
ENDBRANCH   1  21
BRANCH   8  35
ATOM     35  C   UNL     1      -1.254  16.044  20.118  0.00  0.00    +0.000 C 
ATOM     36  C   UNL     1      -1.939  16.144  21.482  0.00  0.00    +0.000 C 
ATOM     37  C   UNL     1      -3.266  16.847  21.220  0.00  0.00    +0.000 C 
ATOM     38  C   UNL     1      -3.122  17.628  19.922  0.00  0.00    +0.000 C 
ATOM     39  C   UNL     1      -1.834  17.171  19.256  0.00  0.00    +0.000 C 
ENDBRANCH   8  35
TORSDOF 5
ENDMDL
MODEL 4
REMARK VINA RESULT:      -8.3      1.744      2.426
REMARK  Name = 
REMARK  8 active torsions:
REMARK  status: ('A' for Active; 'I' for Inactive)
REMARK    1  A    between atoms: C_1  and  O_2
REMARK    2  A    between atoms: O_2  and  C_3
REMARK    3  A    between atoms: C_5  and  C_6
REMARK    4  A    between atoms: N_8  and  C_9
REMARK    5  A    between atoms: C_17  and  N_18
REMARK    6  A    between atoms: N_25  and  C_26
REMARK    7  A    between atoms: C_31  and  C_32
REMARK    8  A    between atoms: N_35  and  C_36
REMARK                            x       y       z     vdW  Elec       q    Type
REMARK                         _______ _______ _______ _____ _____    ______ ____
ROOT
ATOM      1  N   UNL     1       0.387  11.068  19.840  0.00  0.00    +0.000 N 
ATOM      2  C   UNL     1       0.761  12.386  19.509  0.00  0.00    +0.000 A 
ATOM      3  N   UNL     1       1.773  12.548  18.651  0.00  0.00    +0.000 NA
ATOM      4  C   UNL     1       2.196  13.791  18.401  0.00  0.00    +0.000 A 
ATOM      5  C   UNL     1       1.649  14.921  18.962  0.00  0.00    +0.000 A 
ATOM      6  C   UNL     1       0.547  14.708  19.804  0.00  0.00    +0.000 A 
ATOM      7  N   UNL     1       0.129  13.437  20.088  0.00  0.00    +0.000 NA
ATOM      8  N   UNL     1      -0.153  15.842  20.311  0.00  0.00    +0.000 N 
ATOM      9  C   UNL     1       0.699  17.057  20.473  0.00  0.00    +0.000 C 
ATOM     10  C   UNL     1      -0.008  18.374  20.815  0.00  0.00    +0.000 C 
ATOM     11  C   UNL     1       1.554  17.336  19.215  0.00  0.00    +0.000 C 
ATOM     12  O   UNL     1       1.802  18.475  18.813  0.00  0.00    +0.000 OA
ATOM     13  N   UNL     1       2.146  16.217  18.655  0.00  0.00    +0.000 N 
ATOM     14  C   UNL     1       3.303  16.389  17.794  0.00  0.00    +0.000 C 
ATOM     15  H   UNL     1      -0.048  11.025  20.750  0.00  0.00    +0.000 HD
ENDROOT
BRANCH   1  21
ATOM     16  C   UNL     1       1.319   8.821  20.298  0.00  0.00    +0.000 A 
ATOM     17  C   UNL     1       2.071   7.716  19.855  0.00  0.00    +0.000 A 
ATOM     18  C   UNL     1       2.451   7.574  18.514  0.00  0.00    +0.000 A 
ATOM     19  C   UNL     1       2.046   8.545  17.604  0.00  0.00    +0.000 A 
ATOM     20  C   UNL     1       1.330   9.665  18.048  0.00  0.00    +0.000 A 
ATOM     21  C   UNL     1       0.994   9.861  19.402  0.00  0.00    +0.000 A 
BRANCH  18  22
ATOM     22  C   UNL     1       3.271   6.369  18.149  0.00  0.00    +0.000 C 
ATOM     23  O   UNL     1       4.156   6.468  17.308  0.00  0.00    +0.000 OA
ATOM     24  N   UNL     1       2.959   5.178  18.767  0.00  0.00    +0.000 N 
ATOM     25  H   UNL     1       2.110   5.112  19.305  0.00  0.00    +0.000 HD
BRANCH  24  26
ATOM     26  C   UNL     1       3.589   3.916  18.382  0.00  0.00    +0.000 C 
ATOM     27  C   UNL     1       2.675   3.106  17.463  0.00  0.00    +0.000 C 
ATOM     28  C   UNL     1       1.478   2.542  18.230  0.00  0.00    +0.000 C 
ATOM     29  N   UNL     1       1.881   1.744  19.392  0.00  0.00    +0.000 NA
ATOM     30  C   UNL     1       2.724   2.510  20.307  0.00  0.00    +0.000 C 
ATOM     31  C   UNL     1       3.958   3.089  19.616  0.00  0.00    +0.000 C 
ATOM     32  H   UNL     1       2.397   0.926  19.067  0.00  0.00    +0.000 HD
ENDBRANCH  24  26
ENDBRANCH  18  22
BRANCH  16  34
ATOM     33  C   UNL     1      -0.425   8.464  21.856  0.00  0.00    +0.000 C 
ATOM     34  O   UNL     1       0.897   8.955  21.604  0.00  0.00    +0.000 OA
ENDBRANCH  16  34
ENDBRANCH   1  21
BRANCH   8  35
ATOM     35  C   UNL     1      -1.381  15.595  21.080  0.00  0.00    +0.000 C 
ATOM     36  C   UNL     1      -1.295  15.915  22.573  0.00  0.00    +0.000 C 
ATOM     37  C   UNL     1      -2.696  16.363  22.974  0.00  0.00    +0.000 C 
ATOM     38  C   UNL     1      -3.402  16.841  21.713  0.00  0.00    +0.000 C 
ATOM     39  C   UNL     1      -2.553  16.413  20.526  0.00  0.00    +0.000 C 
ENDBRANCH   8  35
TORSDOF 5
ENDMDL
MODEL 5
REMARK VINA RESULT:      -8.2      2.457      3.038
REMARK  Name = 
REMARK  8 active torsions:
REMARK  status: ('A' for Active; 'I' for Inactive)
REMARK    1  A    between atoms: C_1  and  O_2
REMARK    2  A    between atoms: O_2  and  C_3
REMARK    3  A    between atoms: C_5  and  C_6
REMARK    4  A    between atoms: N_8  and  C_9
REMARK    5  A    between atoms: C_17  and  N_18
REMARK    6  A    between atoms: N_25  and  C_26
REMARK    7  A    between atoms: C_31  and  C_32
REMARK    8  A    between atoms: N_35  and  C_36
REMARK                            x       y       z     vdW  Elec       q    Type
REMARK                         _______ _______ _______ _____ _____    ______ ____
ROOT
ATOM      1  N   UNL     1      -0.134  10.692  19.992  0.00  0.00    +0.000 N 
ATOM      2  C   UNL     1       0.293  11.957  20.447  0.00  0.00    +0.000 A 
ATOM      3  N   UNL     1       1.599  12.233  20.375  0.00  0.00    +0.000 NA
ATOM      4  C   UNL     1       2.028  13.391  20.887  0.00  0.00    +0.000 A 
ATOM      5  C   UNL     1       1.209  14.326  21.477  0.00  0.00    +0.000 A 
ATOM      6  C   UNL     1      -0.161  14.023  21.471  0.00  0.00    +0.000 A 
ATOM      7  N   UNL     1      -0.602  12.827  20.975  0.00  0.00    +0.000 NA
ATOM      8  N   UNL     1      -1.079  15.007  21.941  0.00  0.00    +0.000 N 
ATOM      9  C   UNL     1      -0.511  15.918  22.978  0.00  0.00    +0.000 C 
ATOM     10  C   UNL     1      -1.354  17.131  23.391  0.00  0.00    +0.000 C 
ATOM     11  C   UNL     1       0.873  16.472  22.567  0.00  0.00    +0.000 C 
ATOM     12  O   UNL     1       1.242  17.617  22.832  0.00  0.00    +0.000 OA
ATOM     13  N   UNL     1       1.729  15.539  22.005  0.00  0.00    +0.000 N 
ATOM     14  C   UNL     1       3.157  15.801  22.010  0.00  0.00    +0.000 C 
ATOM     15  H   UNL     1      -0.989  10.406  20.446  0.00  0.00    +0.000 HD
ENDROOT
BRANCH   1  21
ATOM     16  C   UNL     1       1.114   8.582  20.327  0.00  0.00    +0.000 A 
ATOM     17  C   UNL     1       2.047   7.645  19.843  0.00  0.00    +0.000 A 
ATOM     18  C   UNL     1       2.505   7.678  18.519  0.00  0.00    +0.000 A 
ATOM     19  C   UNL     1       1.996   8.651  17.666  0.00  0.00    +0.000 A 
ATOM     20  C   UNL     1       1.096   9.608  18.154  0.00  0.00    +0.000 A 
ATOM     21  C   UNL     1       0.672   9.633  19.496  0.00  0.00    +0.000 A 
BRANCH  18  22
ATOM     22  C   UNL     1       3.518   6.646  18.109  0.00  0.00    +0.000 C 
ATOM     23  O   UNL     1       4.372   6.930  17.278  0.00  0.00    +0.000 OA
ATOM     24  N   UNL     1       3.416   5.395  18.677  0.00  0.00    +0.000 N 
ATOM     25  H   UNL     1       2.591   5.164  19.207  0.00  0.00    +0.000 HD
BRANCH  24  26
ATOM     26  C   UNL     1       4.251   4.276  18.244  0.00  0.00    +0.000 C 
ATOM     27  C   UNL     1       3.601   3.525  17.082  0.00  0.00    +0.000 C 
ATOM     28  C   UNL     1       2.378   2.733  17.551  0.00  0.00    +0.000 C 
ATOM     29  N   UNL     1       2.692   1.815  18.650  0.00  0.00    +0.000 NA
ATOM     30  C   UNL     1       3.280   2.516  19.789  0.00  0.00    +0.000 C 
ATOM     31  C   UNL     1       4.524   3.315  19.404  0.00  0.00    +0.000 C 
ATOM     32  H   UNL     1       3.351   1.111  18.314  0.00  0.00    +0.000 HD
ENDBRANCH  24  26
ENDBRANCH  18  22
BRANCH  16  34
ATOM     33  C   UNL     1       1.467   9.127  22.601  0.00  0.00    +0.000 C 
ATOM     34  O   UNL     1       0.617   8.537  21.612  0.00  0.00    +0.000 OA
ENDBRANCH  16  34
ENDBRANCH   1  21
BRANCH   8  35
ATOM     35  C   UNL     1      -2.514  14.721  21.802  0.00  0.00    +0.000 C 
ATOM     36  C   UNL     1      -3.277  14.538  23.113  0.00  0.00    +0.000 C 
ATOM     37  C   UNL     1      -4.688  15.045  22.837  0.00  0.00    +0.000 C 
ATOM     38  C   UNL     1      -4.608  15.996  21.651  0.00  0.00    +0.000 C 
ATOM     39  C   UNL     1      -3.227  15.839  21.034  0.00  0.00    +0.000 C 
ENDBRANCH   8  35
TORSDOF 5
ENDMDL
MODEL 6
REMARK VINA RESULT:      -8.2      2.818      3.881
REMARK  Name = 
REMARK  8 active torsions:
REMARK  status: ('A' for Active; 'I' for Inactive)
REMARK    1  A    between atoms: C_1  and  O_2
REMARK    2  A    between atoms: O_2  and  C_3
REMARK    3  A    between atoms: C_5  and  C_6
REMARK    4  A    between atoms: N_8  and  C_9
REMARK    5  A    between atoms: C_17  and  N_18
REMARK    6  A    between atoms: N_25  and  C_26
REMARK    7  A    between atoms: C_31  and  C_32
REMARK    8  A    between atoms: N_35  and  C_36
REMARK                            x       y       z     vdW  Elec       q    Type
REMARK                         _______ _______ _______ _____ _____    ______ ____
ROOT
ATOM      1  N   UNL     1      -0.415   9.867  20.821  0.00  0.00    +0.000 N 
ATOM      2  C   UNL     1      -0.368  11.212  21.240  0.00  0.00    +0.000 A 
ATOM      3  N   UNL     1       0.741  11.908  20.968  0.00  0.00    +0.000 NA
ATOM      4  C   UNL     1       0.835  13.155  21.440  0.00  0.00    +0.000 A 
ATOM      5  C   UNL     1      -0.142  13.777  22.181  0.00  0.00    +0.000 A 
ATOM      6  C   UNL     1      -1.314  13.033  22.386  0.00  0.00    +0.000 A 
ATOM      7  N   UNL     1      -1.404  11.746  21.931  0.00  0.00    +0.000 NA
ATOM      8  N   UNL     1      -2.420  13.665  23.027  0.00  0.00    +0.000 N 
ATOM      9  C   UNL     1      -2.029  14.740  23.987  0.00  0.00    +0.000 C 
ATOM     10  C   UNL     1      -3.151  15.610  24.567  0.00  0.00    +0.000 C 
ATOM     11  C   UNL     1      -0.995  15.713  23.376  0.00  0.00    +0.000 C 
ATOM     12  O   UNL     1      -0.993  16.923  23.613  0.00  0.00    +0.000 OA
ATOM     13  N   UNL     1       0.020  15.106  22.656  0.00  0.00    +0.000 N 
ATOM     14  C   UNL     1       1.260  15.832  22.439  0.00  0.00    +0.000 C 
ATOM     15  H   UNL     1      -1.040   9.323  21.398  0.00  0.00    +0.000 HD
ENDROOT
BRANCH   1  21
ATOM     16  C   UNL     1       0.908   9.311  18.805  0.00  0.00    +0.000 A 
ATOM     17  C   UNL     1       1.807   8.442  18.157  0.00  0.00    +0.000 A 
ATOM     18  C   UNL     1       2.482   7.428  18.851  0.00  0.00    +0.000 A 
ATOM     19  C   UNL     1       2.266   7.306  20.219  0.00  0.00    +0.000 A 
ATOM     20  C   UNL     1       1.344   8.144  20.861  0.00  0.00    +0.000 A 
ATOM     21  C   UNL     1       0.607   9.126  20.171  0.00  0.00    +0.000 A 
BRANCH  18  22
ATOM     22  C   UNL     1       3.403   6.542  18.061  0.00  0.00    +0.000 C 
ATOM     23  O   UNL     1       2.979   5.496  17.584  0.00  0.00    +0.000 OA
ATOM     24  N   UNL     1       4.716   6.940  17.937  0.00  0.00    +0.000 N 
ATOM     25  H   UNL     1       5.052   7.705  18.500  0.00  0.00    +0.000 HD
BRANCH  24  26
ATOM     26  C   UNL     1       5.731   6.088  17.320  0.00  0.00    +0.000 C 
ATOM     27  C   UNL     1       6.153   4.966  18.269  0.00  0.00    +0.000 C 
ATOM     28  C   UNL     1       6.984   5.509  19.432  0.00  0.00    +0.000 C 
ATOM     29  N   UNL     1       8.152   6.271  18.980  0.00  0.00    +0.000 NA
ATOM     30  C   UNL     1       7.770   7.375  18.102  0.00  0.00    +0.000 C 
ATOM     31  C   UNL     1       6.953   6.907  16.899  0.00  0.00    +0.000 C 
ATOM     32  H   UNL     1       8.780   5.644  18.476  0.00  0.00    +0.000 HD
ENDBRANCH  24  26
ENDBRANCH  18  22
BRANCH  16  34
ATOM     33  C   UNL     1      -1.007  10.001  17.602  0.00  0.00    +0.000 C 
ATOM     34  O   UNL     1       0.271  10.342  18.150  0.00  0.00    +0.000 OA
ENDBRANCH  16  34
ENDBRANCH   1  21
BRANCH   8  35
ATOM     35  C   UNL     1      -3.679  12.912  23.111  0.00  0.00    +0.000 C 
ATOM     36  C   UNL     1      -4.158  12.589  24.527  0.00  0.00    +0.000 C 
ATOM     37  C   UNL     1      -5.681  12.580  24.448  0.00  0.00    +0.000 C 
ATOM     38  C   UNL     1      -6.081  13.409  23.237  0.00  0.00    +0.000 C 
ATOM     39  C   UNL     1      -4.821  13.669  22.426  0.00  0.00    +0.000 C 
ENDBRANCH   8  35
TORSDOF 5
ENDMDL
MODEL 7
REMARK VINA RESULT:      -8.1      1.809      2.527
REMARK  Name = 
REMARK  8 active torsions:
REMARK  status: ('A' for Active; 'I' for Inactive)
REMARK    1  A    between atoms: C_1  and  O_2
REMARK    2  A    between atoms: O_2  and  C_3
REMARK    3  A    between atoms: C_5  and  C_6
REMARK    4  A    between atoms: N_8  and  C_9
REMARK    5  A    between atoms: C_17  and  N_18
REMARK    6  A    between atoms: N_25  and  C_26
REMARK    7  A    between atoms: C_31  and  C_32
REMARK    8  A    between atoms: N_35  and  C_36
REMARK                            x       y       z     vdW  Elec       q    Type
REMARK                         _______ _______ _______ _____ _____    ______ ____
ROOT
ATOM      1  N   UNL     1      -0.087  10.666  19.915  0.00  0.00    +0.000 N 
ATOM      2  C   UNL     1       0.109  12.046  19.702  0.00  0.00    +0.000 A 
ATOM      3  N   UNL     1       1.140  12.415  18.936  0.00  0.00    +0.000 NA
ATOM      4  C   UNL     1       1.391  13.721  18.801  0.00  0.00    +0.000 A 
ATOM      5  C   UNL     1       0.649  14.716  19.394  0.00  0.00    +0.000 A 
ATOM      6  C   UNL     1      -0.462  14.284  20.136  0.00  0.00    +0.000 A 
ATOM      7  N   UNL     1      -0.706  12.949  20.301  0.00  0.00    +0.000 NA
ATOM      8  N   UNL     1      -1.352  15.265  20.663  0.00  0.00    +0.000 N 
ATOM      9  C   UNL     1      -0.700  16.572  20.970  0.00  0.00    +0.000 C 
ATOM     10  C   UNL     1      -1.613  17.746  21.345  0.00  0.00    +0.000 C 
ATOM     11  C   UNL     1       0.185  17.066  19.802  0.00  0.00    +0.000 C 
ATOM     12  O   UNL     1       0.288  18.256  19.496  0.00  0.00    +0.000 OA
ATOM     13  N   UNL     1       0.970  16.088  19.213  0.00  0.00    +0.000 N 
ATOM     14  C   UNL     1       2.142  16.489  18.455  0.00  0.00    +0.000 C 
ATOM     15  H   UNL     1      -0.569  10.492  20.785  0.00  0.00    +0.000 HD
ENDROOT
BRANCH   1  21
ATOM     16  C   UNL     1       1.154   8.560  20.296  0.00  0.00    +0.000 A 
ATOM     17  C   UNL     1       2.086   7.611  19.834  0.00  0.00    +0.000 A 
ATOM     18  C   UNL     1       2.547   7.615  18.511  0.00  0.00    +0.000 A 
ATOM     19  C   UNL     1       2.042   8.572  17.637  0.00  0.00    +0.000 A 
ATOM     20  C   UNL     1       1.143   9.541  18.103  0.00  0.00    +0.000 A 
ATOM     21  C   UNL     1       0.716   9.595  19.444  0.00  0.00    +0.000 A 
BRANCH  18  22
ATOM     22  C   UNL     1       3.557   6.572  18.125  0.00  0.00    +0.000 C 
ATOM     23  O   UNL     1       4.414   6.836  17.289  0.00  0.00    +0.000 OA
ATOM     24  N   UNL     1       3.450   5.333  18.718  0.00  0.00    +0.000 N 
ATOM     25  H   UNL     1       2.624   5.115  19.251  0.00  0.00    +0.000 HD
BRANCH  24  26
ATOM     26  C   UNL     1       4.284   4.203  18.310  0.00  0.00    +0.000 C 
ATOM     27  C   UNL     1       3.667   3.471  17.118  0.00  0.00    +0.000 C 
ATOM     28  C   UNL     1       2.414   2.697  17.532  0.00  0.00    +0.000 C 
ATOM     29  N   UNL     1       2.669   1.766  18.635  0.00  0.00    +0.000 NA
ATOM     30  C   UNL     1       3.222   2.450  19.803  0.00  0.00    +0.000 C 
ATOM     31  C   UNL     1       4.494   3.230  19.472  0.00  0.00    +0.000 C 
ATOM     32  H   UNL     1       3.329   1.054  18.321  0.00  0.00    +0.000 HD
ENDBRANCH  24  26
ENDBRANCH  18  22
BRANCH  16  34
ATOM     33  C   UNL     1       1.486   9.187  22.553  0.00  0.00    +0.000 C 
ATOM     34  O   UNL     1       0.654   8.543  21.581  0.00  0.00    +0.000 OA
ENDBRANCH  16  34
ENDBRANCH   1  21
BRANCH   8  35
ATOM     35  C   UNL     1      -2.577  14.789  21.320  0.00  0.00    +0.000 C 
ATOM     36  C   UNL     1      -2.597  14.914  22.843  0.00  0.00    +0.000 C 
ATOM     37  C   UNL     1      -4.057  15.153  23.213  0.00  0.00    +0.000 C 
ATOM     38  C   UNL     1      -4.754  15.715  21.982  0.00  0.00    +0.000 C 
ATOM     39  C   UNL     1      -3.809  15.542  20.804  0.00  0.00    +0.000 C 
ENDBRANCH   8  35
TORSDOF 5
ENDMDL
MODEL 8
REMARK VINA RESULT:      -8.1      3.443      4.973
REMARK  Name = 
REMARK  8 active torsions:
REMARK  status: ('A' for Active; 'I' for Inactive)
REMARK    1  A    between atoms: C_1  and  O_2
REMARK    2  A    between atoms: O_2  and  C_3
REMARK    3  A    between atoms: C_5  and  C_6
REMARK    4  A    between atoms: N_8  and  C_9
REMARK    5  A    between atoms: C_17  and  N_18
REMARK    6  A    between atoms: N_25  and  C_26
REMARK    7  A    between atoms: C_31  and  C_32
REMARK    8  A    between atoms: N_35  and  C_36
REMARK                            x       y       z     vdW  Elec       q    Type
REMARK                         _______ _______ _______ _____ _____    ______ ____
ROOT
ATOM      1  N   UNL     1      -0.075  10.992  20.524  0.00  0.00    +0.000 N 
ATOM      2  C   UNL     1      -1.380  11.320  20.104  0.00  0.00    +0.000 A 
ATOM      3  N   UNL     1      -1.889  10.637  19.073  0.00  0.00    +0.000 NA
ATOM      4  C   UNL     1      -3.088  10.999  18.607  0.00  0.00    +0.000 A 
ATOM      5  C   UNL     1      -3.842  12.026  19.126  0.00  0.00    +0.000 A 
ATOM      6  C   UNL     1      -3.297  12.671  20.248  0.00  0.00    +0.000 A 
ATOM      7  N   UNL     1      -2.058  12.325  20.710  0.00  0.00    +0.000 NA
ATOM      8  N   UNL     1      -4.085  13.652  20.919  0.00  0.00    +0.000 N 
ATOM      9  C   UNL     1      -5.050  14.365  20.031  0.00  0.00    +0.000 C 
ATOM     10  C   UNL     1      -6.077  15.286  20.701  0.00  0.00    +0.000 C 
ATOM     11  C   UNL     1      -5.856  13.385  19.148  0.00  0.00    +0.000 C 
ATOM     12  O   UNL     1      -7.041  13.565  18.857  0.00  0.00    +0.000 OA
ATOM     13  N   UNL     1      -5.111  12.363  18.583  0.00  0.00    +0.000 N 
ATOM     14  C   UNL     1      -5.626  11.683  17.407  0.00  0.00    +0.000 C 
ATOM     15  H   UNL     1       0.375  11.776  20.974  0.00  0.00    +0.000 HD
ENDROOT
BRANCH   1  21
ATOM     16  C   UNL     1       1.430  10.254  18.703  0.00  0.00    +0.000 A 
ATOM     17  C   UNL     1       2.158   9.217  18.089  0.00  0.00    +0.000 A 
ATOM     18  C   UNL     1       2.351   7.980  18.717  0.00  0.00    +0.000 A 
ATOM     19  C   UNL     1       1.823   7.795  19.991  0.00  0.00    +0.000 A 
ATOM     20  C   UNL     1       1.066   8.811  20.590  0.00  0.00    +0.000 A 
ATOM     21  C   UNL     1       0.806  10.038  19.950  0.00  0.00    +0.000 A 
BRANCH  18  22
ATOM     22  C   UNL     1       3.125   6.933  17.967  0.00  0.00    +0.000 C 
ATOM     23  O   UNL     1       3.975   7.273  17.153  0.00  0.00    +0.000 OA
ATOM     24  N   UNL     1       2.812   5.614  18.212  0.00  0.00    +0.000 N 
ATOM     25  H   UNL     1       1.985   5.398  18.746  0.00  0.00    +0.000 HD
BRANCH  24  26
ATOM     26  C   UNL     1       3.394   4.521  17.435  0.00  0.00    +0.000 C 
ATOM     27  C   UNL     1       2.419   3.350  17.323  0.00  0.00    +0.000 C 
ATOM     28  C   UNL     1       2.266   2.626  18.662  0.00  0.00    +0.000 C 
ATOM     29  N   UNL     1       3.552   2.178  19.207  0.00  0.00    +0.000 NA
ATOM     30  C   UNL     1       4.490   3.289  19.361  0.00  0.00    +0.000 C 
ATOM     31  C   UNL     1       4.712   4.050  18.055  0.00  0.00    +0.000 C 
ATOM     32  H   UNL     1       3.955   1.485  18.576  0.00  0.00    +0.000 HD
ENDBRANCH  24  26
ENDBRANCH  18  22
BRANCH  16  34
ATOM     33  C   UNL     1       2.407  12.357  18.234  0.00  0.00    +0.000 C 
ATOM     34  O   UNL     1       1.270  11.494  18.121  0.00  0.00    +0.000 OA
ENDBRANCH  16  34
ENDBRANCH   1  21
BRANCH   8  35
ATOM     35  C   UNL     1      -3.550  14.217  22.166  0.00  0.00    +0.000 C 
ATOM     36  C   UNL     1      -3.158  15.693  22.103  0.00  0.00    +0.000 C 
ATOM     37  C   UNL     1      -3.414  16.242  23.502  0.00  0.00    +0.000 C 
ATOM     38  C   UNL     1      -4.428  15.327  24.174  0.00  0.00    +0.000 C 
ATOM     39  C   UNL     1      -4.560  14.082  23.311  0.00  0.00    +0.000 C 
ENDBRANCH   8  35
TORSDOF 5
ENDMDL
MODEL 9
REMARK VINA RESULT:      -8.1      3.456      4.680
REMARK  Name = 
REMARK  8 active torsions:
REMARK  status: ('A' for Active; 'I' for Inactive)
REMARK    1  A    between atoms: C_1  and  O_2
REMARK    2  A    between atoms: O_2  and  C_3
REMARK    3  A    between atoms: C_5  and  C_6
REMARK    4  A    between atoms: N_8  and  C_9
REMARK    5  A    between atoms: C_17  and  N_18
REMARK    6  A    between atoms: N_25  and  C_26
REMARK    7  A    between atoms: C_31  and  C_32
REMARK    8  A    between atoms: N_35  and  C_36
REMARK                            x       y       z     vdW  Elec       q    Type
REMARK                         _______ _______ _______ _____ _____    ______ ____
ROOT
ATOM      1  N   UNL     1       0.033  10.808  20.177  0.00  0.00    +0.000 N 
ATOM      2  C   UNL     1      -1.291  11.184  19.874  0.00  0.00    +0.000 A 
ATOM      3  N   UNL     1      -1.932  10.489  18.929  0.00  0.00    +0.000 NA
ATOM      4  C   UNL     1      -3.154  10.893  18.568  0.00  0.00    +0.000 A 
ATOM      5  C   UNL     1      -3.803  11.975  19.116  0.00  0.00    +0.000 A 
ATOM      6  C   UNL     1      -3.120  12.634  20.149  0.00  0.00    +0.000 A 
ATOM      7  N   UNL     1      -1.857  12.243  20.501  0.00  0.00    +0.000 NA
ATOM      8  N   UNL     1      -3.790  13.677  20.853  0.00  0.00    +0.000 N 
ATOM      9  C   UNL     1      -4.806  14.403  20.035  0.00  0.00    +0.000 C 
ATOM     10  C   UNL     1      -5.717  15.400  20.763  0.00  0.00    +0.000 C 
ATOM     11  C   UNL     1      -5.741  13.433  19.278  0.00  0.00    +0.000 C 
ATOM     12  O   UNL     1      -6.940  13.660  19.099  0.00  0.00    +0.000 OA
ATOM     13  N   UNL     1      -5.104  12.354  18.687  0.00  0.00    +0.000 N 
ATOM     14  C   UNL     1      -5.766  11.657  17.598  0.00  0.00    +0.000 C 
ATOM     15  H   UNL     1       0.562  11.585  20.547  0.00  0.00    +0.000 HD
ENDROOT
BRANCH   1  21
ATOM     16  C   UNL     1       1.157   8.604  20.239  0.00  0.00    +0.000 A 
ATOM     17  C   UNL     1       2.064   7.698  19.655  0.00  0.00    +0.000 A 
ATOM     18  C   UNL     1       2.583   7.900  18.369  0.00  0.00    +0.000 A 
ATOM     19  C   UNL     1       2.163   9.016  17.654  0.00  0.00    +0.000 A 
ATOM     20  C   UNL     1       1.290   9.939  18.245  0.00  0.00    +0.000 A 
ATOM     21  C   UNL     1       0.807   9.790  19.559  0.00  0.00    +0.000 A 
BRANCH  18  22
ATOM     22  C   UNL     1       3.561   6.885  17.848  0.00  0.00    +0.000 C 
ATOM     23  O   UNL     1       4.242   7.147  16.864  0.00  0.00    +0.000 OA
ATOM     24  N   UNL     1       3.622   5.671  18.496  0.00  0.00    +0.000 N 
ATOM     25  H   UNL     1       2.914   5.442  19.176  0.00  0.00    +0.000 HD
BRANCH  24  26
ATOM     26  C   UNL     1       4.426   4.560  17.989  0.00  0.00    +0.000 C 
ATOM     27  C   UNL     1       3.627   3.716  16.995  0.00  0.00    +0.000 C 
ATOM     28  C   UNL     1       2.538   2.909  17.704  0.00  0.00    +0.000 C 
ATOM     29  N   UNL     1       3.072   2.071  18.781  0.00  0.00    +0.000 NA
ATOM     30  C   UNL     1       3.808   2.861  19.767  0.00  0.00    +0.000 C 
ATOM     31  C   UNL     1       4.931   3.681  19.135  0.00  0.00    +0.000 C 
ATOM     32  H   UNL     1       3.699   1.374  18.377  0.00  0.00    +0.000 HD
ENDBRANCH  24  26
ENDBRANCH  18  22
BRANCH  16  34
ATOM     33  C   UNL     1       1.230   9.123  22.545  0.00  0.00    +0.000 C 
ATOM     34  O   UNL     1       0.601   8.398  21.483  0.00  0.00    +0.000 OA
ENDBRANCH  16  34
ENDBRANCH   1  21
BRANCH   8  35
ATOM     35  C   UNL     1      -3.107  14.261  22.015  0.00  0.00    +0.000 C 
ATOM     36  C   UNL     1      -2.804  15.757  21.916  0.00  0.00    +0.000 C 
ATOM     37  C   UNL     1      -2.878  16.282  23.346  0.00  0.00    +0.000 C 
ATOM     38  C   UNL     1      -3.735  15.311  24.146  0.00  0.00    +0.000 C 
ATOM     39  C   UNL     1      -3.929  14.067  23.294  0.00  0.00    +0.000 C 
ENDBRANCH   8  35
TORSDOF 5
ENDMDL
