MODEL 1
REMARK VINA RESULT:      -7.3      0.000      0.000
REMARK  Name = 
REMARK  10 active torsions:
REMARK  status: ('A' for Active; 'I' for Inactive)
REMARK    1  A    between atoms: C_1  and  O_2
REMARK    2  A    between atoms: O_2  and  C_3
REMARK    3  A    between atoms: C_5  and  C_6
REMARK    4  A    between atoms: C_6  and  O_7
REMARK    5  A    between atoms: C_8  and  C_9
REMARK    6  A    between atoms: C_8  and  C_11
REMARK    7  A    between atoms: C_21  and  O_22
REMARK    8  A    between atoms: O_22  and  C_23
REMARK    9  A    between atoms: C_24  and  O_25
REMARK   10  A    between atoms: O_25  and  C_26
REMARK                            x       y       z     vdW  Elec       q    Type
REMARK                         _______ _______ _______ _____ _____    ______ ____
ROOT
ATOM      1  C   UNL     1       2.773   7.441  18.629  0.00  0.00    +0.000 C 
ATOM      2  C   UNL     1       2.043   7.306  19.757  0.00  0.00    +0.000 C 
ENDROOT
BRANCH   2   3
ATOM      3  C   UNL     1       1.213   8.296  20.363  0.00  0.00    +0.000 A 
ATOM      4  N   UNL     1       0.812   9.420  19.794  0.00  0.00    +0.000 NA
ATOM      5  C   UNL     1       0.125  10.115  20.738  0.00  0.00    +0.000 A 
ATOM      6  C   UNL     1      -0.458  11.386  20.641  0.00  0.00    +0.000 A 
ATOM      7  C   UNL     1      -1.079  11.917  21.772  0.00  0.00    +0.000 A 
ATOM      8  C   UNL     1      -1.127  11.186  22.962  0.00  0.00    +0.000 A 
ATOM      9  C   UNL     1      -0.564   9.902  23.066  0.00  0.00    +0.000 A 
ATOM     10  C   UNL     1       0.064   9.399  21.925  0.00  0.00    +0.000 A 
ATOM     11  N   UNL     1       0.732   8.224  21.649  0.00  0.00    +0.000 N 
ATOM     12  H   UNL     1       0.881   7.450  22.282  0.00  0.00    +0.000 HD
ENDBRANCH   2   3
BRANCH   1  15
ATOM     13  C   UNL     1       4.021   4.214  17.001  0.00  0.00    +0.000 A 
ATOM     14  C   UNL     1       3.263   5.096  17.811  0.00  0.00    +0.000 A 
ATOM     15  C   UNL     1       3.684   6.411  18.046  0.00  0.00    +0.000 A 
ATOM     16  C   UNL     1       4.925   6.801  17.539  0.00  0.00    +0.000 A 
ATOM     17  C   UNL     1       5.707   5.929  16.759  0.00  0.00    +0.000 A 
ATOM     18  C   UNL     1       5.270   4.616  16.480  0.00  0.00    +0.000 A 
BRANCH  13  20
ATOM     19  C   UNL     1       3.295   2.117  17.873  0.00  0.00    +0.000 C 
ATOM     20  O   UNL     1       3.585   2.939  16.746  0.00  0.00    +0.000 OA
ENDBRANCH  13  20
BRANCH  17  21
ATOM     21  O   UNL     1       6.891   6.498  16.350  0.00  0.00    +0.000 OA
ATOM     22  C   UNL     1       7.576   7.297  17.313  0.00  0.00    +0.000 C 
ENDBRANCH  17  21
BRANCH  18  23
ATOM     23  O   UNL     1       6.137   3.844  15.751  0.00  0.00    +0.000 OA
ATOM     24  C   UNL     1       6.136   3.891  14.332  0.00  0.00    +0.000 C 
ENDBRANCH  18  23
ENDBRANCH   1  15
BRANCH   1  25
ATOM     25  O   UNL     1       2.762   8.624  17.897  0.00  0.00    +0.000 OA
ATOM     26  H   UNL     1       2.658   9.362  18.523  0.00  0.00    +0.000 HD
ENDBRANCH   1  25
BRANCH   2  27
ATOM     27  C   UNL     1       2.036   6.027  20.577  0.00  0.00    +0.000 C 
ATOM     28  N   UNL     1       2.031   4.965  21.257  0.00  0.00    +0.000 NA
ENDBRANCH   2  27
TORSDOF 7
ENDMDL
MODEL 2
REMARK VINA RESULT:      -7.2      0.243      1.156
REMARK  Name = 
REMARK  10 active torsions:
REMARK  status: ('A' for Active; 'I' for Inactive)
REMARK    1  A    between atoms: C_1  and  O_2
REMARK    2  A    between atoms: O_2  and  C_3
REMARK    3  A    between atoms: C_5  and  C_6
REMARK    4  A    between atoms: C_6  and  O_7
REMARK    5  A    between atoms: C_8  and  C_9
REMARK    6  A    between atoms: C_8  and  C_11
REMARK    7  A    between atoms: C_21  and  O_22
REMARK    8  A    between atoms: O_22  and  C_23
REMARK    9  A    between atoms: C_24  and  O_25
REMARK   10  A    between atoms: O_25  and  C_26
REMARK                            x       y       z     vdW  Elec       q    Type
REMARK                         _______ _______ _______ _____ _____    ______ ____
ROOT
ATOM      1  C   UNL     1       2.821   7.399  18.673  0.00  0.00    +0.000 C 
ATOM      2  C   UNL     1       2.111   7.281  19.816  0.00  0.00    +0.000 C 
ENDROOT
BRANCH   2   3
ATOM      3  C   UNL     1       1.352   8.302  20.461  0.00  0.00    +0.000 A 
ATOM      4  N   UNL     1       1.049   8.341  21.747  0.00  0.00    +0.000 NA
ATOM      5  C   UNL     1       0.240   9.418  21.928  0.00  0.00    +0.000 A 
ATOM      6  C   UNL     1      -0.385   9.859  23.102  0.00  0.00    +0.000 A 
ATOM      7  C   UNL     1      -1.214  10.978  23.029  0.00  0.00    +0.000 A 
ATOM      8  C   UNL     1      -1.398  11.647  21.815  0.00  0.00    +0.000 A 
ATOM      9  C   UNL     1      -0.761  11.226  20.635  0.00  0.00    +0.000 A 
ATOM     10  C   UNL     1       0.052  10.095  20.730  0.00  0.00    +0.000 A 
ATOM     11  N   UNL     1       0.804   9.386  19.816  0.00  0.00    +0.000 N 
ATOM     12  H   UNL     1       0.914   9.594  18.833  0.00  0.00    +0.000 HD
ENDBRANCH   2   3
BRANCH   1  15
ATOM     13  C   UNL     1       3.846   4.157  16.925  0.00  0.00    +0.000 A 
ATOM     14  C   UNL     1       3.152   5.057  17.771  0.00  0.00    +0.000 A 
ATOM     15  C   UNL     1       3.659   6.333  18.047  0.00  0.00    +0.000 A 
ATOM     16  C   UNL     1       4.920   6.658  17.544  0.00  0.00    +0.000 A 
ATOM     17  C   UNL     1       5.638   5.765  16.727  0.00  0.00    +0.000 A 
ATOM     18  C   UNL     1       5.115   4.494  16.407  0.00  0.00    +0.000 A 
BRANCH  13  20
ATOM     19  C   UNL     1       2.632   2.246  17.673  0.00  0.00    +0.000 C 
ATOM     20  O   UNL     1       3.326   2.922  16.629  0.00  0.00    +0.000 OA
ENDBRANCH  13  20
BRANCH  17  21
ATOM     21  O   UNL     1       6.854   6.270  16.329  0.00  0.00    +0.000 OA
ATOM     22  C   UNL     1       7.491   7.176  17.229  0.00  0.00    +0.000 C 
ENDBRANCH  17  21
BRANCH  18  23
ATOM     23  O   UNL     1       5.926   3.693  15.645  0.00  0.00    +0.000 OA
ATOM     24  C   UNL     1       6.018   3.879  14.241  0.00  0.00    +0.000 C 
ENDBRANCH  18  23
ENDBRANCH   1  15
BRANCH   1  25
ATOM     25  O   UNL     1       2.859   8.596  17.965  0.00  0.00    +0.000 OA
ATOM     26  H   UNL     1       3.500   9.182  18.404  0.00  0.00    +0.000 HD
ENDBRANCH   1  25
BRANCH   2  27
ATOM     27  C   UNL     1       2.052   5.987  20.609  0.00  0.00    +0.000 C 
ATOM     28  N   UNL     1       2.003   4.913  21.268  0.00  0.00    +0.000 NA
ENDBRANCH   2  27
TORSDOF 7
ENDMDL
MODEL 3
REMARK VINA RESULT:      -7.1      0.555      2.558
REMARK  Name = 
REMARK  10 active torsions:
REMARK  status: ('A' for Active; 'I' for Inactive)
REMARK    1  A    between atoms: C_1  and  O_2
REMARK    2  A    between atoms: O_2  and  C_3
REMARK    3  A    between atoms: C_5  and  C_6
REMARK    4  A    between atoms: C_6  and  O_7
REMARK    5  A    between atoms: C_8  and  C_9
REMARK    6  A    between atoms: C_8  and  C_11
REMARK    7  A    between atoms: C_21  and  O_22
REMARK    8  A    between atoms: O_22  and  C_23
REMARK    9  A    between atoms: C_24  and  O_25
REMARK   10  A    between atoms: O_25  and  C_26
REMARK                            x       y       z     vdW  Elec       q    Type
REMARK                         _______ _______ _______ _____ _____    ______ ____
ROOT
ATOM      1  C   UNL     1       2.507   7.891  18.370  0.00  0.00    +0.000 C 
ATOM      2  C   UNL     1       1.903   7.674  19.558  0.00  0.00    +0.000 C 
ENDROOT
BRANCH   2   3
ATOM      3  C   UNL     1       1.049   8.575  20.260  0.00  0.00    +0.000 A 
ATOM      4  N   UNL     1       0.542   9.695  19.774  0.00  0.00    +0.000 NA
ATOM      5  C   UNL     1      -0.129  10.297  20.791  0.00  0.00    +0.000 A 
ATOM      6  C   UNL     1      -0.799  11.528  20.793  0.00  0.00    +0.000 A 
ATOM      7  C   UNL     1      -1.382  11.961  21.984  0.00  0.00    +0.000 A 
ATOM      8  C   UNL     1      -1.311  11.173  23.136  0.00  0.00    +0.000 A 
ATOM      9  C   UNL     1      -0.660   9.927  23.141  0.00  0.00    +0.000 A 
ATOM     10  C   UNL     1      -0.071   9.522  21.942  0.00  0.00    +0.000 A 
ATOM     11  N   UNL     1       0.653   8.410  21.567  0.00  0.00    +0.000 N 
ATOM     12  H   UNL     1       0.891   7.619  22.150  0.00  0.00    +0.000 HD
ENDBRANCH   2   3
BRANCH   1  15
ATOM     13  C   UNL     1       5.711   6.393  16.918  0.00  0.00    +0.000 A 
ATOM     14  C   UNL     1       4.736   7.347  17.298  0.00  0.00    +0.000 A 
ATOM     15  C   UNL     1       3.446   6.956  17.681  0.00  0.00    +0.000 A 
ATOM     16  C   UNL     1       3.117   5.602  17.581  0.00  0.00    +0.000 A 
ATOM     17  C   UNL     1       4.064   4.644  17.175  0.00  0.00    +0.000 A 
ATOM     18  C   UNL     1       5.379   5.024  16.830  0.00  0.00    +0.000 A 
BRANCH  13  20
ATOM     19  C   UNL     1       7.726   7.492  17.565  0.00  0.00    +0.000 C 
ATOM     20  O   UNL     1       6.983   6.780  16.579  0.00  0.00    +0.000 OA
ENDBRANCH  13  20
BRANCH  17  21
ATOM     21  O   UNL     1       3.550   3.368  17.145  0.00  0.00    +0.000 OA
ATOM     22  C   UNL     1       2.274   3.184  17.758  0.00  0.00    +0.000 C 
ENDBRANCH  17  21
BRANCH  18  23
ATOM     23  O   UNL     1       6.197   4.010  16.404  0.00  0.00    +0.000 OA
ATOM     24  C   UNL     1       6.354   3.736  15.020  0.00  0.00    +0.000 C 
ENDBRANCH  18  23
ENDBRANCH   1  15
BRANCH   1  25
ATOM     25  O   UNL     1       2.320   9.077  17.668  0.00  0.00    +0.000 OA
ATOM     26  H   UNL     1       3.004   9.707  17.958  0.00  0.00    +0.000 HD
ENDBRANCH   1  25
BRANCH   2  27
ATOM     27  C   UNL     1       2.089   6.388  20.346  0.00  0.00    +0.000 C 
ATOM     28  N   UNL     1       2.243   5.321  20.999  0.00  0.00    +0.000 NA
ENDBRANCH   2  27
TORSDOF 7
ENDMDL
MODEL 4
REMARK VINA RESULT:      -7.0      0.503      2.755
REMARK  Name = 
REMARK  10 active torsions:
REMARK  status: ('A' for Active; 'I' for Inactive)
REMARK    1  A    between atoms: C_1  and  O_2
REMARK    2  A    between atoms: O_2  and  C_3
REMARK    3  A    between atoms: C_5  and  C_6
REMARK    4  A    between atoms: C_6  and  O_7
REMARK    5  A    between atoms: C_8  and  C_9
REMARK    6  A    between atoms: C_8  and  C_11
REMARK    7  A    between atoms: C_21  and  O_22
REMARK    8  A    between atoms: O_22  and  C_23
REMARK    9  A    between atoms: C_24  and  O_25
REMARK   10  A    between atoms: O_25  and  C_26
REMARK                            x       y       z     vdW  Elec       q    Type
REMARK                         _______ _______ _______ _____ _____    ______ ____
ROOT
ATOM      1  C   UNL     1       2.523   7.936  18.418  0.00  0.00    +0.000 C 
ATOM      2  C   UNL     1       1.939   7.742  19.620  0.00  0.00    +0.000 C 
ENDROOT
BRANCH   2   3
ATOM      3  C   UNL     1       1.167   8.688  20.359  0.00  0.00    +0.000 A 
ATOM      4  N   UNL     1       0.866   8.603  21.643  0.00  0.00    +0.000 NA
ATOM      5  C   UNL     1       0.043   9.646  21.924  0.00  0.00    +0.000 A 
ATOM      6  C   UNL     1      -0.585   9.967  23.135  0.00  0.00    +0.000 A 
ATOM      7  C   UNL     1      -1.430  11.077  23.168  0.00  0.00    +0.000 A 
ATOM      8  C   UNL     1      -1.626  11.853  22.022  0.00  0.00    +0.000 A 
ATOM      9  C   UNL     1      -0.985  11.553  20.807  0.00  0.00    +0.000 A 
ATOM     10  C   UNL     1      -0.157  10.429  20.795  0.00  0.00    +0.000 A 
ATOM     11  N   UNL     1       0.602   9.820  19.818  0.00  0.00    +0.000 N 
ATOM     12  H   UNL     1       0.707  10.119  18.859  0.00  0.00    +0.000 HD
ENDBRANCH   2   3
BRANCH   1  15
ATOM     13  C   UNL     1       5.577   6.252  16.850  0.00  0.00    +0.000 A 
ATOM     14  C   UNL     1       4.678   7.262  17.271  0.00  0.00    +0.000 A 
ATOM     15  C   UNL     1       3.378   6.951  17.690  0.00  0.00    +0.000 A 
ATOM     16  C   UNL     1       2.959   5.622  17.588  0.00  0.00    +0.000 A 
ATOM     17  C   UNL     1       3.829   4.610  17.143  0.00  0.00    +0.000 A 
ATOM     18  C   UNL     1       5.154   4.908  16.760  0.00  0.00    +0.000 A 
BRANCH  13  20
ATOM     19  C   UNL     1       7.643   7.308  17.402  0.00  0.00    +0.000 C 
ATOM     20  O   UNL     1       6.860   6.561  16.475  0.00  0.00    +0.000 OA
ENDBRANCH  13  20
BRANCH  17  21
ATOM     21  O   UNL     1       3.233   3.370  17.117  0.00  0.00    +0.000 OA
ATOM     22  C   UNL     1       3.212   2.651  18.349  0.00  0.00    +0.000 C 
ENDBRANCH  17  21
BRANCH  18  23
ATOM     23  O   UNL     1       5.892   3.849  16.298  0.00  0.00    +0.000 OA
ATOM     24  C   UNL     1       6.167   3.705  14.912  0.00  0.00    +0.000 C 
ENDBRANCH  18  23
ENDBRANCH   1  15
BRANCH   1  25
ATOM     25  O   UNL     1       2.396   9.142  17.738  0.00  0.00    +0.000 OA
ATOM     26  H   UNL     1       2.497   9.862  18.385  0.00  0.00    +0.000 HD
ENDBRANCH   1  25
BRANCH   2  27
ATOM     27  C   UNL     1       2.061   6.436  20.386  0.00  0.00    +0.000 C 
ATOM     28  N   UNL     1       2.162   5.351  21.021  0.00  0.00    +0.000 NA
ENDBRANCH   2  27
TORSDOF 7
ENDMDL
MODEL 5
REMARK VINA RESULT:      -7.0      1.612      2.267
REMARK  Name = 
REMARK  10 active torsions:
REMARK  status: ('A' for Active; 'I' for Inactive)
REMARK    1  A    between atoms: C_1  and  O_2
REMARK    2  A    between atoms: O_2  and  C_3
REMARK    3  A    between atoms: C_5  and  C_6
REMARK    4  A    between atoms: C_6  and  O_7
REMARK    5  A    between atoms: C_8  and  C_9
REMARK    6  A    between atoms: C_8  and  C_11
REMARK    7  A    between atoms: C_21  and  O_22
REMARK    8  A    between atoms: O_22  and  C_23
REMARK    9  A    between atoms: C_24  and  O_25
REMARK   10  A    between atoms: O_25  and  C_26
REMARK                            x       y       z     vdW  Elec       q    Type
REMARK                         _______ _______ _______ _____ _____    ______ ____
ROOT
ATOM      1  C   UNL     1       2.177   6.971  20.111  0.00  0.00    +0.000 C 
ATOM      2  C   UNL     1       1.749   8.183  19.701  0.00  0.00    +0.000 C 
ENDROOT
BRANCH   2   3
ATOM      3  C   UNL     1       0.950   9.104  20.442  0.00  0.00    +0.000 A 
ATOM      4  N   UNL     1       0.611   8.981  21.713  0.00  0.00    +0.000 NA
ATOM      5  C   UNL     1      -0.226  10.013  21.999  0.00  0.00    +0.000 A 
ATOM      6  C   UNL     1      -0.893  10.297  23.198  0.00  0.00    +0.000 A 
ATOM      7  C   UNL     1      -1.744  11.401  23.237  0.00  0.00    +0.000 A 
ATOM      8  C   UNL     1      -1.911  12.208  22.107  0.00  0.00    +0.000 A 
ATOM      9  C   UNL     1      -1.232  11.945  20.905  0.00  0.00    +0.000 A 
ATOM     10  C   UNL     1      -0.397  10.826  20.886  0.00  0.00    +0.000 A 
ATOM     11  N   UNL     1       0.394  10.248  19.917  0.00  0.00    +0.000 N 
ATOM     12  H   UNL     1       0.526  10.575  18.969  0.00  0.00    +0.000 HD
ENDBRANCH   2   3
BRANCH   1  15
ATOM     13  C   UNL     1       3.047   4.188  17.636  0.00  0.00    +0.000 A 
ATOM     14  C   UNL     1       2.356   4.924  18.630  0.00  0.00    +0.000 A 
ATOM     15  C   UNL     1       2.963   5.997  19.295  0.00  0.00    +0.000 A 
ATOM     16  C   UNL     1       4.308   6.258  19.022  0.00  0.00    +0.000 A 
ATOM     17  C   UNL     1       5.020   5.517  18.061  0.00  0.00    +0.000 A 
ATOM     18  C   UNL     1       4.402   4.463  17.353  0.00  0.00    +0.000 A 
BRANCH  13  20
ATOM     19  C   UNL     1       2.247   1.942  17.674  0.00  0.00    +0.000 C 
ATOM     20  O   UNL     1       2.433   3.162  16.963  0.00  0.00    +0.000 OA
ENDBRANCH  13  20
BRANCH  17  21
ATOM     21  O   UNL     1       6.326   5.928  17.933  0.00  0.00    +0.000 OA
ATOM     22  C   UNL     1       7.186   5.664  19.041  0.00  0.00    +0.000 C 
ENDBRANCH  17  21
BRANCH  18  23
ATOM     23  O   UNL     1       5.208   3.783  16.479  0.00  0.00    +0.000 OA
ATOM     24  C   UNL     1       5.494   4.311  15.192  0.00  0.00    +0.000 C 
ENDBRANCH  18  23
ENDBRANCH   1  15
BRANCH   1  25
ATOM     25  O   UNL     1       1.880   6.489  21.382  0.00  0.00    +0.000 OA
ATOM     26  H   UNL     1       1.493   5.601  21.281  0.00  0.00    +0.000 HD
ENDBRANCH   1  25
BRANCH   2  27
ATOM     27  C   UNL     1       2.058   8.734  18.319  0.00  0.00    +0.000 C 
ATOM     28  N   UNL     1       2.315   9.191  17.172  0.00  0.00    +0.000 NA
ENDBRANCH   2  27
TORSDOF 7
ENDMDL
MODEL 6
REMARK VINA RESULT:      -7.0      2.143      3.696
REMARK  Name = 
REMARK  10 active torsions:
REMARK  status: ('A' for Active; 'I' for Inactive)
REMARK    1  A    between atoms: C_1  and  O_2
REMARK    2  A    between atoms: O_2  and  C_3
REMARK    3  A    between atoms: C_5  and  C_6
REMARK    4  A    between atoms: C_6  and  O_7
REMARK    5  A    between atoms: C_8  and  C_9
REMARK    6  A    between atoms: C_8  and  C_11
REMARK    7  A    between atoms: C_21  and  O_22
REMARK    8  A    between atoms: O_22  and  C_23
REMARK    9  A    between atoms: C_24  and  O_25
REMARK   10  A    between atoms: O_25  and  C_26
REMARK                            x       y       z     vdW  Elec       q    Type
REMARK                         _______ _______ _______ _____ _____    ______ ____
ROOT
ATOM      1  C   UNL     1       1.980   7.020  20.257  0.00  0.00    +0.000 C 
ATOM      2  C   UNL     1       1.688   8.258  19.803  0.00  0.00    +0.000 C 
ENDROOT
BRANCH   2   3
ATOM      3  C   UNL     1       1.033   9.301  20.522  0.00  0.00    +0.000 A 
ATOM      4  N   UNL     1       0.402   9.164  21.675  0.00  0.00    +0.000 NA
ATOM      5  C   UNL     1      -0.158  10.368  21.963  0.00  0.00    +0.000 A 
ATOM      6  C   UNL     1      -0.967  10.722  23.052  0.00  0.00    +0.000 A 
ATOM      7  C   UNL     1      -1.466  12.023  23.109  0.00  0.00    +0.000 A 
ATOM      8  C   UNL     1      -1.149  12.949  22.110  0.00  0.00    +0.000 A 
ATOM      9  C   UNL     1      -0.322  12.611  21.025  0.00  0.00    +0.000 A 
ATOM     10  C   UNL     1       0.153  11.299  20.982  0.00  0.00    +0.000 A 
ATOM     11  N   UNL     1       0.946  10.605  20.093  0.00  0.00    +0.000 N 
ATOM     12  H   UNL     1       1.369  10.967  19.249  0.00  0.00    +0.000 HD
ENDBRANCH   2   3
BRANCH   1  15
ATOM     13  C   UNL     1       4.561   4.521  18.949  0.00  0.00    +0.000 A 
ATOM     14  C   UNL     1       3.998   5.719  19.454  0.00  0.00    +0.000 A 
ATOM     15  C   UNL     1       2.613   5.923  19.465  0.00  0.00    +0.000 A 
ATOM     16  C   UNL     1       1.804   4.952  18.870  0.00  0.00    +0.000 A 
ATOM     17  C   UNL     1       2.349   3.770  18.335  0.00  0.00    +0.000 A 
ATOM     18  C   UNL     1       3.740   3.536  18.360  0.00  0.00    +0.000 A 
BRANCH  13  20
ATOM     19  C   UNL     1       6.681   4.891  17.921  0.00  0.00    +0.000 C 
ATOM     20  O   UNL     1       5.917   4.313  18.975  0.00  0.00    +0.000 OA
ENDBRANCH  13  20
BRANCH  17  21
ATOM     21  O   UNL     1       1.392   2.939  17.800  0.00  0.00    +0.000 OA
ATOM     22  C   UNL     1       0.548   2.261  18.730  0.00  0.00    +0.000 C 
ENDBRANCH  17  21
BRANCH  18  23
ATOM     23  O   UNL     1       4.158   2.373  17.766  0.00  0.00    +0.000 OA
ATOM     24  C   UNL     1       4.052   1.131  18.446  0.00  0.00    +0.000 C 
ENDBRANCH  18  23
ENDBRANCH   1  15
BRANCH   1  25
ATOM     25  O   UNL     1       1.669   6.634  21.556  0.00  0.00    +0.000 OA
ATOM     26  H   UNL     1       0.700   6.648  21.649  0.00  0.00    +0.000 HD
ENDBRANCH   1  25
BRANCH   2  27
ATOM     27  C   UNL     1       2.015   8.707  18.388  0.00  0.00    +0.000 C 
ATOM     28  N   UNL     1       2.286   9.080  17.215  0.00  0.00    +0.000 NA
ENDBRANCH   2  27
TORSDOF 7
ENDMDL
MODEL 7
REMARK VINA RESULT:      -6.9      2.214      3.561
REMARK  Name = 
REMARK  10 active torsions:
REMARK  status: ('A' for Active; 'I' for Inactive)
REMARK    1  A    between atoms: C_1  and  O_2
REMARK    2  A    between atoms: O_2  and  C_3
REMARK    3  A    between atoms: C_5  and  C_6
REMARK    4  A    between atoms: C_6  and  O_7
REMARK    5  A    between atoms: C_8  and  C_9
REMARK    6  A    between atoms: C_8  and  C_11
REMARK    7  A    between atoms: C_21  and  O_22
REMARK    8  A    between atoms: O_22  and  C_23
REMARK    9  A    between atoms: C_24  and  O_25
REMARK   10  A    between atoms: O_25  and  C_26
REMARK                            x       y       z     vdW  Elec       q    Type
REMARK                         _______ _______ _______ _____ _____    ______ ____
ROOT
ATOM      1  C   UNL     1       1.889   7.107  20.206  0.00  0.00    +0.000 C 
ATOM      2  C   UNL     1       1.608   8.333  19.713  0.00  0.00    +0.000 C 
ENDROOT
BRANCH   2   3
ATOM      3  C   UNL     1       0.921   9.388  20.382  0.00  0.00    +0.000 A 
ATOM      4  N   UNL     1       1.029  10.676  20.107  0.00  0.00    +0.000 NA
ATOM      5  C   UNL     1       0.289  11.340  21.033  0.00  0.00    +0.000 A 
ATOM      6  C   UNL     1       0.122  12.722  21.196  0.00  0.00    +0.000 A 
ATOM      7  C   UNL     1      -0.660  13.173  22.259  0.00  0.00    +0.000 A 
ATOM      8  C   UNL     1      -1.271  12.261  23.126  0.00  0.00    +0.000 A 
ATOM      9  C   UNL     1      -1.127  10.873  22.961  0.00  0.00    +0.000 A 
ATOM     10  C   UNL     1      -0.328  10.447  21.898  0.00  0.00    +0.000 A 
ATOM     11  N   UNL     1       0.059   9.205  21.439  0.00  0.00    +0.000 N 
ATOM     12  H   UNL     1      -0.207   8.309  21.823  0.00  0.00    +0.000 HD
ENDBRANCH   2   3
BRANCH   1  15
ATOM     13  C   UNL     1       4.526   4.584  19.066  0.00  0.00    +0.000 A 
ATOM     14  C   UNL     1       3.941   5.791  19.523  0.00  0.00    +0.000 A 
ATOM     15  C   UNL     1       2.557   5.996  19.465  0.00  0.00    +0.000 A 
ATOM     16  C   UNL     1       1.776   5.014  18.850  0.00  0.00    +0.000 A 
ATOM     17  C   UNL     1       2.344   3.823  18.362  0.00  0.00    +0.000 A 
ATOM     18  C   UNL     1       3.732   3.589  18.457  0.00  0.00    +0.000 A 
BRANCH  13  20
ATOM     19  C   UNL     1       6.687   4.888  18.104  0.00  0.00    +0.000 C 
ATOM     20  O   UNL     1       5.879   4.376  19.160  0.00  0.00    +0.000 OA
ENDBRANCH  13  20
BRANCH  17  21
ATOM     21  O   UNL     1       1.412   2.983  17.798  0.00  0.00    +0.000 OA
ATOM     22  C   UNL     1       0.565   2.276  18.703  0.00  0.00    +0.000 C 
ENDBRANCH  17  21
BRANCH  18  23
ATOM     23  O   UNL     1       4.176   2.415  17.904  0.00  0.00    +0.000 OA
ATOM     24  C   UNL     1       4.054   1.189  18.608  0.00  0.00    +0.000 C 
ENDBRANCH  18  23
ENDBRANCH   1  15
BRANCH   1  25
ATOM     25  O   UNL     1       1.531   6.749  21.502  0.00  0.00    +0.000 OA
ATOM     26  H   UNL     1       1.422   5.782  21.525  0.00  0.00    +0.000 HD
ENDBRANCH   1  25
BRANCH   2  27
ATOM     27  C   UNL     1       1.986   8.751  18.302  0.00  0.00    +0.000 C 
ATOM     28  N   UNL     1       2.301   9.097  17.131  0.00  0.00    +0.000 NA
ENDBRANCH   2  27
TORSDOF 7
ENDMDL
MODEL 8
REMARK VINA RESULT:      -6.9      2.673      8.371
REMARK  Name = 
REMARK  10 active torsions:
REMARK  status: ('A' for Active; 'I' for Inactive)
REMARK    1  A    between atoms: C_1  and  O_2
REMARK    2  A    between atoms: O_2  and  C_3
REMARK    3  A    between atoms: C_5  and  C_6
REMARK    4  A    between atoms: C_6  and  O_7
REMARK    5  A    between atoms: C_8  and  C_9
REMARK    6  A    between atoms: C_8  and  C_11
REMARK    7  A    between atoms: C_21  and  O_22
REMARK    8  A    between atoms: O_22  and  C_23
REMARK    9  A    between atoms: C_24  and  O_25
REMARK   10  A    between atoms: O_25  and  C_26
REMARK                            x       y       z     vdW  Elec       q    Type
REMARK                         _______ _______ _______ _____ _____    ______ ____
ROOT
ATOM      1  C   UNL     1       2.086   8.499  18.275  0.00  0.00    +0.000 C 
ATOM      2  C   UNL     1       2.569   7.285  18.614  0.00  0.00    +0.000 C 
ENDROOT
BRANCH   2   3
ATOM      3  C   UNL     1       3.571   6.539  17.925  0.00  0.00    +0.000 A 
ATOM      4  N   UNL     1       4.733   7.011  17.508  0.00  0.00    +0.000 NA
ATOM      5  C   UNL     1       5.341   6.008  16.821  0.00  0.00    +0.000 A 
ATOM      6  C   UNL     1       6.568   6.026  16.145  0.00  0.00    +0.000 A 
ATOM      7  C   UNL     1       6.967   4.874  15.467  0.00  0.00    +0.000 A 
ATOM      8  C   UNL     1       6.163   3.730  15.480  0.00  0.00    +0.000 A 
ATOM      9  C   UNL     1       4.940   3.693  16.172  0.00  0.00    +0.000 A 
ATOM     10  C   UNL     1       4.556   4.863  16.831  0.00  0.00    +0.000 A 
ATOM     11  N   UNL     1       3.449   5.215  17.574  0.00  0.00    +0.000 N 
ATOM     12  H   UNL     1       2.661   4.624  17.801  0.00  0.00    +0.000 HD
ENDBRANCH   2   3
BRANCH   1  15
ATOM     13  C   UNL     1       0.172  10.466  20.937  0.00  0.00    +0.000 A 
ATOM     14  C   UNL     1       1.055   9.529  20.345  0.00  0.00    +0.000 A 
ATOM     15  C   UNL     1       0.992   9.235  18.977  0.00  0.00    +0.000 A 
ATOM     16  C   UNL     1      -0.032   9.819  18.229  0.00  0.00    +0.000 A 
ATOM     17  C   UNL     1      -0.938  10.727  18.807  0.00  0.00    +0.000 A 
ATOM     18  C   UNL     1      -0.855  11.064  20.175  0.00  0.00    +0.000 A 
BRANCH  13  20
ATOM     19  C   UNL     1      -0.369   9.886  23.186  0.00  0.00    +0.000 C 
ATOM     20  O   UNL     1       0.262  10.776  22.271  0.00  0.00    +0.000 OA
ENDBRANCH  13  20
BRANCH  17  21
ATOM     21  O   UNL     1      -1.868  11.195  17.908  0.00  0.00    +0.000 OA
ATOM     22  C   UNL     1      -2.948  10.315  17.597  0.00  0.00    +0.000 C 
ENDBRANCH  17  21
BRANCH  18  23
ATOM     23  O   UNL     1      -1.820  11.921  20.636  0.00  0.00    +0.000 OA
ATOM     24  C   UNL     1      -1.582  13.320  20.693  0.00  0.00    +0.000 C 
ENDBRANCH  18  23
ENDBRANCH   1  15
BRANCH   1  25
ATOM     25  O   UNL     1       2.569   9.186  17.166  0.00  0.00    +0.000 OA
ATOM     26  H   UNL     1       2.283   8.705  16.369  0.00  0.00    +0.000 HD
ENDBRANCH   1  25
BRANCH   2  27
ATOM     27  C   UNL     1       2.060   6.512  19.819  0.00  0.00    +0.000 C 
ATOM     28  N   UNL     1       1.638   5.870  20.819  0.00  0.00    +0.000 NA
ENDBRANCH   2  27
TORSDOF 7
ENDMDL
MODEL 9
REMARK VINA RESULT:      -6.9      1.502      1.864
REMARK  Name = 
REMARK  10 active torsions:
REMARK  status: ('A' for Active; 'I' for Inactive)
REMARK    1  A    between atoms: C_1  and  O_2
REMARK    2  A    between atoms: O_2  and  C_3
REMARK    3  A    between atoms: C_5  and  C_6
REMARK    4  A    between atoms: C_6  and  O_7
REMARK    5  A    between atoms: C_8  and  C_9
REMARK    6  A    between atoms: C_8  and  C_11
REMARK    7  A    between atoms: C_21  and  O_22
REMARK    8  A    between atoms: O_22  and  C_23
REMARK    9  A    between atoms: C_24  and  O_25
REMARK   10  A    between atoms: O_25  and  C_26
REMARK                            x       y       z     vdW  Elec       q    Type
REMARK                         _______ _______ _______ _____ _____    ______ ____
ROOT
ATOM      1  C   UNL     1       2.230   6.852  20.006  0.00  0.00    +0.000 C 
ATOM      2  C   UNL     1       1.768   8.055  19.605  0.00  0.00    +0.000 C 
ENDROOT
BRANCH   2   3
ATOM      3  C   UNL     1       0.876   8.910  20.317  0.00  0.00    +0.000 A 
ATOM      4  N   UNL     1       0.258   9.967  19.819  0.00  0.00    +0.000 NA
ATOM      5  C   UNL     1      -0.414  10.550  20.846  0.00  0.00    +0.000 A 
ATOM      6  C   UNL     1      -1.181  11.723  20.840  0.00  0.00    +0.000 A 
ATOM      7  C   UNL     1      -1.745  12.152  22.042  0.00  0.00    +0.000 A 
ATOM      8  C   UNL     1      -1.558  11.415  23.215  0.00  0.00    +0.000 A 
ATOM      9  C   UNL     1      -0.808  10.226  23.229  0.00  0.00    +0.000 A 
ATOM     10  C   UNL     1      -0.242   9.825  22.017  0.00  0.00    +0.000 A 
ATOM     11  N   UNL     1       0.553   8.762  21.646  0.00  0.00    +0.000 N 
ATOM     12  H   UNL     1       0.880   8.014  22.243  0.00  0.00    +0.000 HD
ENDBRANCH   2   3
BRANCH   1  15
ATOM     13  C   UNL     1       3.398   4.106  17.615  0.00  0.00    +0.000 A 
ATOM     14  C   UNL     1       2.631   4.792  18.588  0.00  0.00    +0.000 A 
ATOM     15  C   UNL     1       3.117   5.946  19.217  0.00  0.00    +0.000 A 
ATOM     16  C   UNL     1       4.424   6.346  18.928  0.00  0.00    +0.000 A 
ATOM     17  C   UNL     1       5.212   5.658  17.987  0.00  0.00    +0.000 A 
ATOM     18  C   UNL     1       4.713   4.520  17.316  0.00  0.00    +0.000 A 
BRANCH  13  20
ATOM     19  C   UNL     1       2.528   1.893  17.796  0.00  0.00    +0.000 C 
ATOM     20  O   UNL     1       2.900   2.998  16.977  0.00  0.00    +0.000 OA
ENDBRANCH  13  20
BRANCH  17  21
ATOM     21  O   UNL     1       6.464   6.207  17.839  0.00  0.00    +0.000 OA
ATOM     22  C   UNL     1       7.461   5.770  18.762  0.00  0.00    +0.000 C 
ENDBRANCH  17  21
BRANCH  18  23
ATOM     23  O   UNL     1       5.588   3.906  16.458  0.00  0.00    +0.000 OA
ATOM     24  C   UNL     1       5.626   4.258  15.083  0.00  0.00    +0.000 C 
ENDBRANCH  18  23
ENDBRANCH   1  15
BRANCH   1  25
ATOM     25  O   UNL     1       1.873   6.313  21.238  0.00  0.00    +0.000 OA
ATOM     26  H   UNL     1       1.160   5.668  21.087  0.00  0.00    +0.000 HD
ENDBRANCH   1  25
BRANCH   2  27
ATOM     27  C   UNL     1       2.141   8.667  18.265  0.00  0.00    +0.000 C 
ATOM     28  N   UNL     1       2.450   9.175  17.153  0.00  0.00    +0.000 NA
ENDBRANCH   2  27
TORSDOF 7
ENDMDL
