MODEL 1
REMARK VINA RESULT:      -8.1      0.000      0.000
REMARK  Name = 
REMARK  12 active torsions:
REMARK  status: ('A' for Active; 'I' for Inactive)
REMARK    1  A    between atoms: C_1  and  C_2
REMARK    2  A    between atoms: C_2  and  N_3
REMARK    3  A    between atoms: N_3  and  C_4
REMARK    4  A    between atoms: N_3  and  C_6
REMARK    5  A    between atoms: C_4  and  C_5
REMARK    6  A    between atoms: C_6  and  C_7
REMARK    7  A    between atoms: C_7  and  N_8
REMARK    8  A    between atoms: N_8  and  C_9
REMARK    9  A    between atoms: C_10  and  C_12
REMARK   10  A    between atoms: C_25  and  O_26
REMARK   11  A    between atoms: O_26  and  C_27
REMARK   12  A    between atoms: C_32  and  C_33
REMARK                            x       y       z     vdW  Elec       q    Type
REMARK                         _______ _______ _______ _____ _____    ______ ____
ROOT
ATOM      1  C   UNL     1       0.451  10.805  20.060  0.00  0.00    +0.000 A 
ATOM      2  C   UNL     1       0.619  10.443  21.410  0.00  0.00    +0.000 A 
ATOM      3  N   UNL     1       1.044   9.196  21.582  0.00  0.00    +0.000 NA
ATOM      4  N   UNL     1       1.222   8.722  20.314  0.00  0.00    +0.000 N 
ATOM      5  C   UNL     1       1.770   7.413  20.089  0.00  0.00    +0.000 A 
ATOM      6  N   UNL     1       1.536   6.483  21.035  0.00  0.00    +0.000 NA
ATOM      7  C   UNL     1       2.071   5.277  20.823  0.00  0.00    +0.000 A 
ATOM      8  C   UNL     1       2.889   4.979  19.755  0.00  0.00    +0.000 A 
ATOM      9  C   UNL     1       3.123   5.997  18.847  0.00  0.00    +0.000 A 
ATOM     10  N   UNL     1       2.528   7.205  18.980  0.00  0.00    +0.000 NA
ATOM     11  C   UNL     1       4.070   5.796  17.728  0.00  0.00    +0.000 A 
ATOM     12  C   UNL     1       4.421   6.806  16.814  0.00  0.00    +0.000 A 
ATOM     13  C   UNL     1       5.335   6.566  15.768  0.00  0.00    +0.000 A 
ATOM     14  C   UNL     1       5.928   5.313  15.610  0.00  0.00    +0.000 A 
ATOM     15  C   UNL     1       5.605   4.313  16.514  0.00  0.00    +0.000 A 
ATOM     16  C   UNL     1       4.692   4.542  17.560  0.00  0.00    +0.000 A 
ATOM     17  C   UNL     1       4.415   3.374  18.464  0.00  0.00    +0.000 C 
ATOM     18  C   UNL     1       3.476   3.614  19.638  0.00  0.00    +0.000 C 
ATOM     19  C   UNL     1       0.835   9.661  19.369  0.00  0.00    +0.000 A 
ATOM     20  C   UNL     1       0.761   9.387  17.907  0.00  0.00    +0.000 C 
ENDROOT
BRANCH   1  23
ATOM     21  N   UNL     1       0.754  13.126  19.283  0.00  0.00    +0.000 N 
ATOM     22  C   UNL     1       2.208  13.014  19.373  0.00  0.00    +0.000 C 
ATOM     23  C   UNL     1      -0.078  12.021  19.461  0.00  0.00    +0.000 C 
ATOM     24  O   UNL     1      -1.277  12.067  19.104  0.00  0.00    +0.000 OA
BRANCH  21  25
ATOM     25  C   UNL     1       0.177  14.305  18.618  0.00  0.00    +0.000 C 
BRANCH  25  26
ATOM     26  C   UNL     1       0.033  15.564  19.528  0.00  0.00    +0.000 C 
BRANCH  26  27
ATOM     27  N   UNL     1       0.539  16.856  18.980  0.00  0.00    +0.000 NA
BRANCH  27  29
ATOM     28  C   UNL     1       3.088  16.905  19.233  0.00  0.00    +0.000 C 
ATOM     29  C   UNL     1       1.866  16.613  18.373  0.00  0.00    +0.000 C 
ENDBRANCH  27  29
BRANCH  27  30
ATOM     30  C   UNL     1      -0.442  17.420  18.018  0.00  0.00    +0.000 C 
ATOM     31  C   UNL     1       0.114  18.349  16.943  0.00  0.00    +0.000 C 
ENDBRANCH  27  30
ENDBRANCH  26  27
ENDBRANCH  25  26
ENDBRANCH  21  25
ENDBRANCH   1  23
BRANCH  14  32
ATOM     32  O   UNL     1       6.794   5.170  14.559  0.00  0.00    +0.000 OA
ATOM     33  C   UNL     1       6.503   4.111  13.645  0.00  0.00    +0.000 C 
ENDBRANCH  14  32
TORSDOF 7
ENDMDL
MODEL 2
REMARK VINA RESULT:      -8.0      0.740      1.396
REMARK  Name = 
REMARK  12 active torsions:
REMARK  status: ('A' for Active; 'I' for Inactive)
REMARK    1  A    between atoms: C_1  and  C_2
REMARK    2  A    between atoms: C_2  and  N_3
REMARK    3  A    between atoms: N_3  and  C_4
REMARK    4  A    between atoms: N_3  and  C_6
REMARK    5  A    between atoms: C_4  and  C_5
REMARK    6  A    between atoms: C_6  and  C_7
REMARK    7  A    between atoms: C_7  and  N_8
REMARK    8  A    between atoms: N_8  and  C_9
REMARK    9  A    between atoms: C_10  and  C_12
REMARK   10  A    between atoms: C_25  and  O_26
REMARK   11  A    between atoms: O_26  and  C_27
REMARK   12  A    between atoms: C_32  and  C_33
REMARK                            x       y       z     vdW  Elec       q    Type
REMARK                         _______ _______ _______ _____ _____    ______ ____
ROOT
ATOM      1  C   UNL     1       0.595  10.788  20.091  0.00  0.00    +0.000 A 
ATOM      2  C   UNL     1       0.598  10.359  21.433  0.00  0.00    +0.000 A 
ATOM      3  N   UNL     1       0.970   9.094  21.590  0.00  0.00    +0.000 NA
ATOM      4  N   UNL     1       1.281   8.674  20.329  0.00  0.00    +0.000 N 
ATOM      5  C   UNL     1       1.821   7.361  20.103  0.00  0.00    +0.000 A 
ATOM      6  N   UNL     1       1.457   6.396  20.969  0.00  0.00    +0.000 NA
ATOM      7  C   UNL     1       1.984   5.186  20.761  0.00  0.00    +0.000 A 
ATOM      8  C   UNL     1       2.912   4.913  19.779  0.00  0.00    +0.000 A 
ATOM      9  C   UNL     1       3.273   5.965  18.955  0.00  0.00    +0.000 A 
ATOM     10  N   UNL     1       2.696   7.183  19.079  0.00  0.00    +0.000 NA
ATOM     11  C   UNL     1       4.337   5.788  17.942  0.00  0.00    +0.000 A 
ATOM     12  C   UNL     1       4.815   6.828  17.125  0.00  0.00    +0.000 A 
ATOM     13  C   UNL     1       5.837   6.610  16.179  0.00  0.00    +0.000 A 
ATOM     14  C   UNL     1       6.414   5.349  16.028  0.00  0.00    +0.000 A 
ATOM     15  C   UNL     1       5.965   4.318  16.839  0.00  0.00    +0.000 A 
ATOM     16  C   UNL     1       4.944   4.526  17.784  0.00  0.00    +0.000 A 
ATOM     17  C   UNL     1       4.538   3.326  18.593  0.00  0.00    +0.000 C 
ATOM     18  C   UNL     1       3.476   3.539  19.663  0.00  0.00    +0.000 C 
ATOM     19  C   UNL     1       1.029   9.666  19.393  0.00  0.00    +0.000 A 
ATOM     20  C   UNL     1       1.117   9.463  17.921  0.00  0.00    +0.000 C 
ENDROOT
BRANCH   1  23
ATOM     21  N   UNL     1       0.898  13.210  19.734  0.00  0.00    +0.000 N 
ATOM     22  C   UNL     1       2.250  13.167  20.286  0.00  0.00    +0.000 C 
ATOM     23  C   UNL     1       0.168  12.046  19.497  0.00  0.00    +0.000 C 
ATOM     24  O   UNL     1      -0.852  12.075  18.771  0.00  0.00    +0.000 OA
BRANCH  21  25
ATOM     25  C   UNL     1       0.450  14.437  19.057  0.00  0.00    +0.000 C 
BRANCH  25  26
ATOM     26  C   UNL     1       1.439  15.639  19.161  0.00  0.00    +0.000 C 
BRANCH  26  27
ATOM     27  N   UNL     1       1.584  16.501  17.952  0.00  0.00    +0.000 NA
BRANCH  27  29
ATOM     28  C   UNL     1      -0.201  18.216  17.290  0.00  0.00    +0.000 C 
ATOM     29  C   UNL     1       0.925  17.797  18.225  0.00  0.00    +0.000 C 
ENDBRANCH  27  29
BRANCH  27  30
ATOM     30  C   UNL     1       3.019  16.645  17.597  0.00  0.00    +0.000 C 
ATOM     31  C   UNL     1       3.897  15.413  17.797  0.00  0.00    +0.000 C 
ENDBRANCH  27  30
ENDBRANCH  26  27
ENDBRANCH  25  26
ENDBRANCH  21  25
ENDBRANCH   1  23
BRANCH  14  32
ATOM     32  O   UNL     1       7.391   5.229  15.076  0.00  0.00    +0.000 OA
ATOM     33  C   UNL     1       6.984   4.677  13.823  0.00  0.00    +0.000 C 
ENDBRANCH  14  32
TORSDOF 7
ENDMDL
MODEL 3
REMARK VINA RESULT:      -8.0      1.235      1.487
REMARK  Name = 
REMARK  12 active torsions:
REMARK  status: ('A' for Active; 'I' for Inactive)
REMARK    1  A    between atoms: C_1  and  C_2
REMARK    2  A    between atoms: C_2  and  N_3
REMARK    3  A    between atoms: N_3  and  C_4
REMARK    4  A    between atoms: N_3  and  C_6
REMARK    5  A    between atoms: C_4  and  C_5
REMARK    6  A    between atoms: C_6  and  C_7
REMARK    7  A    between atoms: C_7  and  N_8
REMARK    8  A    between atoms: N_8  and  C_9
REMARK    9  A    between atoms: C_10  and  C_12
REMARK   10  A    between atoms: C_25  and  O_26
REMARK   11  A    between atoms: O_26  and  C_27
REMARK   12  A    between atoms: C_32  and  C_33
REMARK                            x       y       z     vdW  Elec       q    Type
REMARK                         _______ _______ _______ _____ _____    ______ ____
ROOT
ATOM      1  C   UNL     1       1.067  10.449  21.049  0.00  0.00    +0.000 A 
ATOM      2  C   UNL     1       1.001   9.707  22.244  0.00  0.00    +0.000 A 
ATOM      3  N   UNL     1       1.144   8.398  22.070  0.00  0.00    +0.000 NA
ATOM      4  N   UNL     1       1.370   8.258  20.730  0.00  0.00    +0.000 N 
ATOM      5  C   UNL     1       1.667   6.970  20.165  0.00  0.00    +0.000 A 
ATOM      6  N   UNL     1       1.143   5.897  20.787  0.00  0.00    +0.000 NA
ATOM      7  C   UNL     1       1.446   4.705  20.265  0.00  0.00    +0.000 A 
ATOM      8  C   UNL     1       2.307   4.531  19.201  0.00  0.00    +0.000 A 
ATOM      9  C   UNL     1       2.843   5.678  18.642  0.00  0.00    +0.000 A 
ATOM     10  N   UNL     1       2.491   6.906  19.087  0.00  0.00    +0.000 NA
ATOM     11  C   UNL     1       3.854   5.579  17.565  0.00  0.00    +0.000 A 
ATOM     12  C   UNL     1       4.504   6.693  17.004  0.00  0.00    +0.000 A 
ATOM     13  C   UNL     1       5.466   6.546  15.985  0.00  0.00    +0.000 A 
ATOM     14  C   UNL     1       5.811   5.283  15.503  0.00  0.00    +0.000 A 
ATOM     15  C   UNL     1       5.191   4.175  16.059  0.00  0.00    +0.000 A 
ATOM     16  C   UNL     1       4.227   4.312  17.075  0.00  0.00    +0.000 A 
ATOM     17  C   UNL     1       3.619   3.035  17.586  0.00  0.00    +0.000 C 
ATOM     18  C   UNL     1       2.618   3.154  18.726  0.00  0.00    +0.000 C 
ATOM     19  C   UNL     1       1.291   9.480  20.078  0.00  0.00    +0.000 A 
ATOM     20  C   UNL     1       1.334   9.636  18.598  0.00  0.00    +0.000 C 
ENDROOT
BRANCH   1  23
ATOM     21  N   UNL     1      -0.317  12.311  20.209  0.00  0.00    +0.000 N 
ATOM     22  C   UNL     1      -1.497  11.454  20.121  0.00  0.00    +0.000 C 
ATOM     23  C   UNL     1       0.866  11.869  20.800  0.00  0.00    +0.000 C 
ATOM     24  O   UNL     1       1.757  12.688  21.123  0.00  0.00    +0.000 OA
BRANCH  21  25
ATOM     25  C   UNL     1      -0.485  13.763  20.038  0.00  0.00    +0.000 C 
BRANCH  25  26
ATOM     26  C   UNL     1       0.195  14.354  18.765  0.00  0.00    +0.000 C 
BRANCH  26  27
ATOM     27  N   UNL     1       1.349  15.276  18.981  0.00  0.00    +0.000 NA
BRANCH  27  29
ATOM     28  C   UNL     1       3.384  15.610  17.462  0.00  0.00    +0.000 C 
ATOM     29  C   UNL     1       2.540  14.688  18.331  0.00  0.00    +0.000 C 
ENDBRANCH  27  29
BRANCH  27  30
ATOM     30  C   UNL     1       1.020  16.631  18.470  0.00  0.00    +0.000 C 
ATOM     31  C   UNL     1      -0.452  16.913  18.183  0.00  0.00    +0.000 C 
ENDBRANCH  27  30
ENDBRANCH  26  27
ENDBRANCH  25  26
ENDBRANCH  21  25
ENDBRANCH   1  23
BRANCH  14  32
ATOM     32  O   UNL     1       6.746   5.239  14.504  0.00  0.00    +0.000 OA
ATOM     33  C   UNL     1       6.568   4.219  13.520  0.00  0.00    +0.000 C 
ENDBRANCH  14  32
TORSDOF 7
ENDMDL
MODEL 4
REMARK VINA RESULT:      -7.8      0.685      1.050
REMARK  Name = 
REMARK  12 active torsions:
REMARK  status: ('A' for Active; 'I' for Inactive)
REMARK    1  A    between atoms: C_1  and  C_2
REMARK    2  A    between atoms: C_2  and  N_3
REMARK    3  A    between atoms: N_3  and  C_4
REMARK    4  A    between atoms: N_3  and  C_6
REMARK    5  A    between atoms: C_4  and  C_5
REMARK    6  A    between atoms: C_6  and  C_7
REMARK    7  A    between atoms: C_7  and  N_8
REMARK    8  A    between atoms: N_8  and  C_9
REMARK    9  A    between atoms: C_10  and  C_12
REMARK   10  A    between atoms: C_25  and  O_26
REMARK   11  A    between atoms: O_26  and  C_27
REMARK   12  A    between atoms: C_32  and  C_33
REMARK                            x       y       z     vdW  Elec       q    Type
REMARK                         _______ _______ _______ _____ _____    ______ ____
ROOT
ATOM      1  C   UNL     1       0.479  10.846  20.196  0.00  0.00    +0.000 A 
ATOM      2  C   UNL     1       0.631  10.438  21.535  0.00  0.00    +0.000 A 
ATOM      3  N   UNL     1       1.022   9.175  21.670  0.00  0.00    +0.000 NA
ATOM      4  N   UNL     1       1.194   8.737  20.388  0.00  0.00    +0.000 N 
ATOM      5  C   UNL     1       1.710   7.422  20.124  0.00  0.00    +0.000 A 
ATOM      6  N   UNL     1       1.446   6.469  21.039  0.00  0.00    +0.000 NA
ATOM      7  C   UNL     1       1.951   5.257  20.792  0.00  0.00    +0.000 A 
ATOM      8  C   UNL     1       2.767   4.971  19.718  0.00  0.00    +0.000 A 
ATOM      9  C   UNL     1       3.032   6.011  18.844  0.00  0.00    +0.000 A 
ATOM     10  N   UNL     1       2.468   7.229  19.013  0.00  0.00    +0.000 NA
ATOM     11  C   UNL     1       3.980   5.820  17.724  0.00  0.00    +0.000 A 
ATOM     12  C   UNL     1       4.362   6.849  16.844  0.00  0.00    +0.000 A 
ATOM     13  C   UNL     1       5.275   6.618  15.795  0.00  0.00    +0.000 A 
ATOM     14  C   UNL     1       5.837   5.355  15.600  0.00  0.00    +0.000 A 
ATOM     15  C   UNL     1       5.482   4.336  16.471  0.00  0.00    +0.000 A 
ATOM     16  C   UNL     1       4.570   4.557  17.519  0.00  0.00    +0.000 A 
ATOM     17  C   UNL     1       4.258   3.368  18.385  0.00  0.00    +0.000 C 
ATOM     18  C   UNL     1       3.319   3.596  19.562  0.00  0.00    +0.000 C 
ATOM     19  C   UNL     1       0.838   9.715  19.471  0.00  0.00    +0.000 A 
ATOM     20  C   UNL     1       0.765   9.489  18.001  0.00  0.00    +0.000 C 
ENDROOT
BRANCH   1  23
ATOM     21  N   UNL     1       0.868  13.149  19.401  0.00  0.00    +0.000 N 
ATOM     22  C   UNL     1       2.316  12.950  19.396  0.00  0.00    +0.000 C 
ATOM     23  C   UNL     1      -0.014  12.094  19.633  0.00  0.00    +0.000 C 
ATOM     24  O   UNL     1      -1.229  12.213  19.355  0.00  0.00    +0.000 OA
BRANCH  21  25
ATOM     25  C   UNL     1       0.320  14.363  18.776  0.00  0.00    +0.000 C 
BRANCH  25  26
ATOM     26  C   UNL     1       0.128  15.568  19.747  0.00  0.00    +0.000 C 
BRANCH  26  27
ATOM     27  N   UNL     1       1.148  16.656  19.683  0.00  0.00    +0.000 NA
BRANCH  27  29
ATOM     28  C   UNL     1       1.776  15.808  22.018  0.00  0.00    +0.000 C 
ATOM     29  C   UNL     1       2.212  16.351  20.664  0.00  0.00    +0.000 C 
ENDBRANCH  27  29
BRANCH  27  30
ATOM     30  C   UNL     1       1.660  16.792  18.296  0.00  0.00    +0.000 C 
ATOM     31  C   UNL     1       3.140  16.485  18.083  0.00  0.00    +0.000 C 
ENDBRANCH  27  30
ENDBRANCH  26  27
ENDBRANCH  25  26
ENDBRANCH  21  25
ENDBRANCH   1  23
BRANCH  14  32
ATOM     32  O   UNL     1       6.704   5.223  14.550  0.00  0.00    +0.000 OA
ATOM     33  C   UNL     1       6.454   4.132  13.662  0.00  0.00    +0.000 C 
ENDBRANCH  14  32
TORSDOF 7
ENDMDL
MODEL 5
REMARK VINA RESULT:      -7.8      1.230      1.863
REMARK  Name = 
REMARK  12 active torsions:
REMARK  status: ('A' for Active; 'I' for Inactive)
REMARK    1  A    between atoms: C_1  and  C_2
REMARK    2  A    between atoms: C_2  and  N_3
REMARK    3  A    between atoms: N_3  and  C_4
REMARK    4  A    between atoms: N_3  and  C_6
REMARK    5  A    between atoms: C_4  and  C_5
REMARK    6  A    between atoms: C_6  and  C_7
REMARK    7  A    between atoms: C_7  and  N_8
REMARK    8  A    between atoms: N_8  and  C_9
REMARK    9  A    between atoms: C_10  and  C_12
REMARK   10  A    between atoms: C_25  and  O_26
REMARK   11  A    between atoms: O_26  and  C_27
REMARK   12  A    between atoms: C_32  and  C_33
REMARK                            x       y       z     vdW  Elec       q    Type
REMARK                         _______ _______ _______ _____ _____    ______ ____
ROOT
ATOM      1  C   UNL     1       1.125  10.406  21.054  0.00  0.00    +0.000 A 
ATOM      2  C   UNL     1       1.075   9.660  22.247  0.00  0.00    +0.000 A 
ATOM      3  N   UNL     1       1.215   8.351  22.067  0.00  0.00    +0.000 NA
ATOM      4  N   UNL     1       1.421   8.215  20.724  0.00  0.00    +0.000 N 
ATOM      5  C   UNL     1       1.709   6.929  20.151  0.00  0.00    +0.000 A 
ATOM      6  N   UNL     1       1.193   5.854  20.777  0.00  0.00    +0.000 NA
ATOM      7  C   UNL     1       1.487   4.664  20.247  0.00  0.00    +0.000 A 
ATOM      8  C   UNL     1       2.332   4.492  19.171  0.00  0.00    +0.000 A 
ATOM      9  C   UNL     1       2.862   5.640  18.607  0.00  0.00    +0.000 A 
ATOM     10  N   UNL     1       2.518   6.867  19.061  0.00  0.00    +0.000 NA
ATOM     11  C   UNL     1       3.858   5.543  17.517  0.00  0.00    +0.000 A 
ATOM     12  C   UNL     1       4.501   6.659  16.950  0.00  0.00    +0.000 A 
ATOM     13  C   UNL     1       5.449   6.514  15.916  0.00  0.00    +0.000 A 
ATOM     14  C   UNL     1       5.785   5.252  15.426  0.00  0.00    +0.000 A 
ATOM     15  C   UNL     1       5.172   4.142  15.987  0.00  0.00    +0.000 A 
ATOM     16  C   UNL     1       4.223   4.277  17.018  0.00  0.00    +0.000 A 
ATOM     17  C   UNL     1       3.621   3.000  17.533  0.00  0.00    +0.000 C 
ATOM     18  C   UNL     1       2.635   3.116  18.688  0.00  0.00    +0.000 C 
ATOM     19  C   UNL     1       1.335   9.439  20.077  0.00  0.00    +0.000 A 
ATOM     20  C   UNL     1       1.357   9.601  18.597  0.00  0.00    +0.000 C 
ENDROOT
BRANCH   1  23
ATOM     21  N   UNL     1      -0.300  12.281  20.319  0.00  0.00    +0.000 N 
ATOM     22  C   UNL     1      -1.494  11.439  20.337  0.00  0.00    +0.000 C 
ATOM     23  C   UNL     1       0.922  11.827  20.812  0.00  0.00    +0.000 C 
ATOM     24  O   UNL     1       1.848  12.636  21.053  0.00  0.00    +0.000 OA
BRANCH  21  25
ATOM     25  C   UNL     1      -0.463  13.734  20.152  0.00  0.00    +0.000 C 
BRANCH  25  26
ATOM     26  C   UNL     1      -0.328  14.242  18.683  0.00  0.00    +0.000 C 
BRANCH  26  27
ATOM     27  N   UNL     1       0.348  15.557  18.483  0.00  0.00    +0.000 NA
BRANCH  27  29
ATOM     28  C   UNL     1      -0.968  17.721  18.102  0.00  0.00    +0.000 C 
ATOM     29  C   UNL     1      -0.519  16.614  19.046  0.00  0.00    +0.000 C 
ENDBRANCH  27  29
BRANCH  27  30
ATOM     30  C   UNL     1       1.702  15.531  19.094  0.00  0.00    +0.000 C 
ATOM     31  C   UNL     1       2.775  14.749  18.342  0.00  0.00    +0.000 C 
ENDBRANCH  27  30
ENDBRANCH  26  27
ENDBRANCH  25  26
ENDBRANCH  21  25
ENDBRANCH   1  23
BRANCH  14  32
ATOM     32  O   UNL     1       6.706   5.210  14.414  0.00  0.00    +0.000 OA
ATOM     33  C   UNL     1       6.582   4.123  13.495  0.00  0.00    +0.000 C 
ENDBRANCH  14  32
TORSDOF 7
ENDMDL
MODEL 6
REMARK VINA RESULT:      -7.8      1.225      1.607
REMARK  Name = 
REMARK  12 active torsions:
REMARK  status: ('A' for Active; 'I' for Inactive)
REMARK    1  A    between atoms: C_1  and  C_2
REMARK    2  A    between atoms: C_2  and  N_3
REMARK    3  A    between atoms: N_3  and  C_4
REMARK    4  A    between atoms: N_3  and  C_6
REMARK    5  A    between atoms: C_4  and  C_5
REMARK    6  A    between atoms: C_6  and  C_7
REMARK    7  A    between atoms: C_7  and  N_8
REMARK    8  A    between atoms: N_8  and  C_9
REMARK    9  A    between atoms: C_10  and  C_12
REMARK   10  A    between atoms: C_25  and  O_26
REMARK   11  A    between atoms: O_26  and  C_27
REMARK   12  A    between atoms: C_32  and  C_33
REMARK                            x       y       z     vdW  Elec       q    Type
REMARK                         _______ _______ _______ _____ _____    ______ ____
ROOT
ATOM      1  C   UNL     1       1.079  10.573  20.323  0.00  0.00    +0.000 A 
ATOM      2  C   UNL     1       1.121  10.016  21.616  0.00  0.00    +0.000 A 
ATOM      3  N   UNL     1       1.335   8.705  21.629  0.00  0.00    +0.000 NA
ATOM      4  N   UNL     1       1.499   8.377  20.313  0.00  0.00    +0.000 N 
ATOM      5  C   UNL     1       1.845   7.037  19.928  0.00  0.00    +0.000 A 
ATOM      6  N   UNL     1       1.421   6.043  20.732  0.00  0.00    +0.000 NA
ATOM      7  C   UNL     1       1.769   4.804  20.374  0.00  0.00    +0.000 A 
ATOM      8  C   UNL     1       2.583   4.517  19.298  0.00  0.00    +0.000 A 
ATOM      9  C   UNL     1       3.018   5.593  18.544  0.00  0.00    +0.000 A 
ATOM     10  N   UNL     1       2.615   6.854  18.823  0.00  0.00    +0.000 NA
ATOM     11  C   UNL     1       3.977   5.387  17.435  0.00  0.00    +0.000 A 
ATOM     12  C   UNL     1       4.528   6.436  16.677  0.00  0.00    +0.000 A 
ATOM     13  C   UNL     1       5.443   6.188  15.635  0.00  0.00    +0.000 A 
ATOM     14  C   UNL     1       5.839   4.887  15.325  0.00  0.00    +0.000 A 
ATOM     15  C   UNL     1       5.318   3.844  16.075  0.00  0.00    +0.000 A 
ATOM     16  C   UNL     1       4.401   4.081  17.116  0.00  0.00    +0.000 A 
ATOM     17  C   UNL     1       3.900   2.866  17.846  0.00  0.00    +0.000 C 
ATOM     18  C   UNL     1       2.952   3.102  19.014  0.00  0.00    +0.000 C 
ATOM     19  C   UNL     1       1.313   9.481  19.494  0.00  0.00    +0.000 A 
ATOM     20  C   UNL     1       1.270   9.415  18.007  0.00  0.00    +0.000 C 
ENDROOT
BRANCH   1  23
ATOM     21  N   UNL     1      -0.502  12.243  19.431  0.00  0.00    +0.000 N 
ATOM     22  C   UNL     1      -1.642  11.365  19.686  0.00  0.00    +0.000 C 
ATOM     23  C   UNL     1       0.779  11.926  19.880  0.00  0.00    +0.000 C 
ATOM     24  O   UNL     1       1.675  12.801  19.908  0.00  0.00    +0.000 OA
BRANCH  21  25
ATOM     25  C   UNL     1      -0.758  13.641  19.052  0.00  0.00    +0.000 C 
BRANCH  25  26
ATOM     26  C   UNL     1      -1.248  14.555  20.218  0.00  0.00    +0.000 C 
BRANCH  26  27
ATOM     27  N   UNL     1      -0.875  15.998  20.148  0.00  0.00    +0.000 NA
BRANCH  27  29
ATOM     28  C   UNL     1       0.338  15.177  22.250  0.00  0.00    +0.000 C 
ATOM     29  C   UNL     1      -0.097  16.334  21.360  0.00  0.00    +0.000 C 
ENDBRANCH  27  29
BRANCH  27  30
ATOM     30  C   UNL     1      -0.133  16.272  18.890  0.00  0.00    +0.000 C 
ATOM     31  C   UNL     1      -0.701  17.364  17.988  0.00  0.00    +0.000 C 
ENDBRANCH  27  30
ENDBRANCH  26  27
ENDBRANCH  25  26
ENDBRANCH  21  25
ENDBRANCH   1  23
BRANCH  14  32
ATOM     32  O   UNL     1       6.722   4.742  14.290  0.00  0.00    +0.000 OA
ATOM     33  C   UNL     1       6.338   3.832  13.258  0.00  0.00    +0.000 C 
ENDBRANCH  14  32
TORSDOF 7
ENDMDL
MODEL 7
REMARK VINA RESULT:      -7.7      1.815      2.472
REMARK  Name = 
REMARK  12 active torsions:
REMARK  status: ('A' for Active; 'I' for Inactive)
REMARK    1  A    between atoms: C_1  and  C_2
REMARK    2  A    between atoms: C_2  and  N_3
REMARK    3  A    between atoms: N_3  and  C_4
REMARK    4  A    between atoms: N_3  and  C_6
REMARK    5  A    between atoms: C_4  and  C_5
REMARK    6  A    between atoms: C_6  and  C_7
REMARK    7  A    between atoms: C_7  and  N_8
REMARK    8  A    between atoms: N_8  and  C_9
REMARK    9  A    between atoms: C_10  and  C_12
REMARK   10  A    between atoms: C_25  and  O_26
REMARK   11  A    between atoms: O_26  and  C_27
REMARK   12  A    between atoms: C_32  and  C_33
REMARK                            x       y       z     vdW  Elec       q    Type
REMARK                         _______ _______ _______ _____ _____    ______ ____
ROOT
ATOM      1  C   UNL     1       1.005  10.524  20.574  0.00  0.00    +0.000 A 
ATOM      2  C   UNL     1       1.036   9.902  21.837  0.00  0.00    +0.000 A 
ATOM      3  N   UNL     1       1.262   8.594  21.785  0.00  0.00    +0.000 NA
ATOM      4  N   UNL     1       1.446   8.336  20.457  0.00  0.00    +0.000 N 
ATOM      5  C   UNL     1       1.810   7.020  20.007  0.00  0.00    +0.000 A 
ATOM      6  N   UNL     1       1.384   5.982  20.753  0.00  0.00    +0.000 NA
ATOM      7  C   UNL     1       1.749   4.767  20.336  0.00  0.00    +0.000 A 
ATOM      8  C   UNL     1       2.579   4.543  19.257  0.00  0.00    +0.000 A 
ATOM      9  C   UNL     1       3.014   5.661  18.566  0.00  0.00    +0.000 A 
ATOM     10  N   UNL     1       2.595   6.902  18.904  0.00  0.00    +0.000 NA
ATOM     11  C   UNL     1       3.988   5.521  17.460  0.00  0.00    +0.000 A 
ATOM     12  C   UNL     1       4.538   6.613  16.765  0.00  0.00    +0.000 A 
ATOM     13  C   UNL     1       5.469   6.427  15.723  0.00  0.00    +0.000 A 
ATOM     14  C   UNL     1       5.881   5.147  15.352  0.00  0.00    +0.000 A 
ATOM     15  C   UNL     1       5.361   4.062  16.040  0.00  0.00    +0.000 A 
ATOM     16  C   UNL     1       4.429   4.237  17.080  0.00  0.00    +0.000 A 
ATOM     17  C   UNL     1       3.930   2.982  17.739  0.00  0.00    +0.000 C 
ATOM     18  C   UNL     1       2.965   3.148  18.905  0.00  0.00    +0.000 C 
ATOM     19  C   UNL     1       1.260   9.479  19.693  0.00  0.00    +0.000 A 
ATOM     20  C   UNL     1       1.236   9.489  18.205  0.00  0.00    +0.000 C 
ENDROOT
BRANCH   1  23
ATOM     21  N   UNL     1      -0.560  12.212  19.690  0.00  0.00    +0.000 N 
ATOM     22  C   UNL     1      -1.691  11.296  19.817  0.00  0.00    +0.000 C 
ATOM     23  C   UNL     1       0.698  11.896  20.198  0.00  0.00    +0.000 C 
ATOM     24  O   UNL     1       1.567  12.787  20.337  0.00  0.00    +0.000 OA
BRANCH  21  25
ATOM     25  C   UNL     1      -0.829  13.626  19.383  0.00  0.00    +0.000 C 
BRANCH  25  26
ATOM     26  C   UNL     1      -1.560  14.413  20.514  0.00  0.00    +0.000 C 
BRANCH  26  27
ATOM     27  N   UNL     1      -0.702  15.068  21.545  0.00  0.00    +0.000 NA
BRANCH  27  29
ATOM     28  C   UNL     1      -2.014  17.066  20.623  0.00  0.00    +0.000 C 
ATOM     29  C   UNL     1      -0.793  16.532  21.360  0.00  0.00    +0.000 C 
ENDBRANCH  27  29
BRANCH  27  30
ATOM     30  C   UNL     1      -1.113  14.629  22.903  0.00  0.00    +0.000 C 
ATOM     31  C   UNL     1      -1.275  13.127  23.114  0.00  0.00    +0.000 C 
ENDBRANCH  27  30
ENDBRANCH  26  27
ENDBRANCH  25  26
ENDBRANCH  21  25
ENDBRANCH   1  23
BRANCH  14  32
ATOM     32  O   UNL     1       6.779   5.064  14.322  0.00  0.00    +0.000 OA
ATOM     33  C   UNL     1       6.552   4.022  13.372  0.00  0.00    +0.000 C 
ENDBRANCH  14  32
TORSDOF 7
ENDMDL
MODEL 8
REMARK VINA RESULT:      -7.6      2.179      2.926
REMARK  Name = 
REMARK  12 active torsions:
REMARK  status: ('A' for Active; 'I' for Inactive)
REMARK    1  A    between atoms: C_1  and  C_2
REMARK    2  A    between atoms: C_2  and  N_3
REMARK    3  A    between atoms: N_3  and  C_4
REMARK    4  A    between atoms: N_3  and  C_6
REMARK    5  A    between atoms: C_4  and  C_5
REMARK    6  A    between atoms: C_6  and  C_7
REMARK    7  A    between atoms: C_7  and  N_8
REMARK    8  A    between atoms: N_8  and  C_9
REMARK    9  A    between atoms: C_10  and  C_12
REMARK   10  A    between atoms: C_25  and  O_26
REMARK   11  A    between atoms: O_26  and  C_27
REMARK   12  A    between atoms: C_32  and  C_33
REMARK                            x       y       z     vdW  Elec       q    Type
REMARK                         _______ _______ _______ _____ _____    ______ ____
ROOT
ATOM      1  C   UNL     1       0.987  10.322  20.944  0.00  0.00    +0.000 A 
ATOM      2  C   UNL     1       0.822   9.572  22.124  0.00  0.00    +0.000 A 
ATOM      3  N   UNL     1       1.016   8.268  21.961  0.00  0.00    +0.000 NA
ATOM      4  N   UNL     1       1.377   8.141  20.650  0.00  0.00    +0.000 N 
ATOM      5  C   UNL     1       1.763   6.865  20.114  0.00  0.00    +0.000 A 
ATOM      6  N   UNL     1       1.208   5.774  20.677  0.00  0.00    +0.000 NA
ATOM      7  C   UNL     1       1.593   4.594  20.184  0.00  0.00    +0.000 A 
ATOM      8  C   UNL     1       2.559   4.448  19.212  0.00  0.00    +0.000 A 
ATOM      9  C   UNL     1       3.119   5.611  18.712  0.00  0.00    +0.000 A 
ATOM     10  N   UNL     1       2.692   6.828  19.123  0.00  0.00    +0.000 NA
ATOM     11  C   UNL     1       4.234   5.545  17.742  0.00  0.00    +0.000 A 
ATOM     12  C   UNL     1       4.908   6.678  17.251  0.00  0.00    +0.000 A 
ATOM     13  C   UNL     1       5.970   6.562  16.332  0.00  0.00    +0.000 A 
ATOM     14  C   UNL     1       6.394   5.310  15.883  0.00  0.00    +0.000 A 
ATOM     15  C   UNL     1       5.751   4.184  16.372  0.00  0.00    +0.000 A 
ATOM     16  C   UNL     1       4.687   4.290  17.287  0.00  0.00    +0.000 A 
ATOM     17  C   UNL     1       4.065   2.996  17.731  0.00  0.00    +0.000 C 
ATOM     18  C   UNL     1       2.952   3.082  18.766  0.00  0.00    +0.000 C 
ATOM     19  C   UNL     1       1.333   9.364  19.997  0.00  0.00    +0.000 A 
ATOM     20  C   UNL     1       1.519   9.530  18.530  0.00  0.00    +0.000 C 
ENDROOT
BRANCH   1  23
ATOM     21  N   UNL     1      -0.350  12.152  19.969  0.00  0.00    +0.000 N 
ATOM     22  C   UNL     1      -1.491  11.264  19.753  0.00  0.00    +0.000 C 
ATOM     23  C   UNL     1       0.775  11.738  20.681  0.00  0.00    +0.000 C 
ATOM     24  O   UNL     1       1.604  12.578  21.099  0.00  0.00    +0.000 OA
BRANCH  21  25
ATOM     25  C   UNL     1      -0.539  13.600  19.786  0.00  0.00    +0.000 C 
BRANCH  25  26
ATOM     26  C   UNL     1      -1.784  14.193  20.513  0.00  0.00    +0.000 C 
BRANCH  26  27
ATOM     27  N   UNL     1      -1.961  13.837  21.951  0.00  0.00    +0.000 NA
BRANCH  27  29
ATOM     28  C   UNL     1      -1.234  14.716  24.245  0.00  0.00    +0.000 C 
ATOM     29  C   UNL     1      -0.990  14.621  22.745  0.00  0.00    +0.000 C 
ENDBRANCH  27  29
BRANCH  27  30
ATOM     30  C   UNL     1      -3.369  14.070  22.365  0.00  0.00    +0.000 C 
ATOM     31  C   UNL     1      -4.178  12.835  22.752  0.00  0.00    +0.000 C 
ENDBRANCH  27  30
ENDBRANCH  26  27
ENDBRANCH  25  26
ENDBRANCH  21  25
ENDBRANCH   1  23
BRANCH  14  32
ATOM     32  O   UNL     1       7.425   5.296  14.983  0.00  0.00    +0.000 OA
ATOM     33  C   UNL     1       7.126   4.761  13.693  0.00  0.00    +0.000 C 
ENDBRANCH  14  32
TORSDOF 7
ENDMDL
MODEL 9
REMARK VINA RESULT:      -7.6      0.852      1.268
REMARK  Name = 
REMARK  12 active torsions:
REMARK  status: ('A' for Active; 'I' for Inactive)
REMARK    1  A    between atoms: C_1  and  C_2
REMARK    2  A    between atoms: C_2  and  N_3
REMARK    3  A    between atoms: N_3  and  C_4
REMARK    4  A    between atoms: N_3  and  C_6
REMARK    5  A    between atoms: C_4  and  C_5
REMARK    6  A    between atoms: C_6  and  C_7
REMARK    7  A    between atoms: C_7  and  N_8
REMARK    8  A    between atoms: N_8  and  C_9
REMARK    9  A    between atoms: C_10  and  C_12
REMARK   10  A    between atoms: C_25  and  O_26
REMARK   11  A    between atoms: O_26  and  C_27
REMARK   12  A    between atoms: C_32  and  C_33
REMARK                            x       y       z     vdW  Elec       q    Type
REMARK                         _______ _______ _______ _____ _____    ______ ____
ROOT
ATOM      1  C   UNL     1       0.569  10.811  20.261  0.00  0.00    +0.000 A 
ATOM      2  C   UNL     1       0.735  10.377  21.591  0.00  0.00    +0.000 A 
ATOM      3  N   UNL     1       1.110   9.107  21.697  0.00  0.00    +0.000 NA
ATOM      4  N   UNL     1       1.255   8.689  20.405  0.00  0.00    +0.000 N 
ATOM      5  C   UNL     1       1.746   7.371  20.110  0.00  0.00    +0.000 A 
ATOM      6  N   UNL     1       1.483   6.406  21.012  0.00  0.00    +0.000 NA
ATOM      7  C   UNL     1       1.965   5.191  20.736  0.00  0.00    +0.000 A 
ATOM      8  C   UNL     1       2.760   4.912  19.644  0.00  0.00    +0.000 A 
ATOM      9  C   UNL     1       3.026   5.964  18.784  0.00  0.00    +0.000 A 
ATOM     10  N   UNL     1       2.483   7.187  18.983  0.00  0.00    +0.000 NA
ATOM     11  C   UNL     1       3.953   5.778  17.645  0.00  0.00    +0.000 A 
ATOM     12  C   UNL     1       4.337   6.817  16.777  0.00  0.00    +0.000 A 
ATOM     13  C   UNL     1       5.229   6.591  15.710  0.00  0.00    +0.000 A 
ATOM     14  C   UNL     1       5.768   5.324  15.484  0.00  0.00    +0.000 A 
ATOM     15  C   UNL     1       5.413   4.295  16.342  0.00  0.00    +0.000 A 
ATOM     16  C   UNL     1       4.520   4.510  17.409  0.00  0.00    +0.000 A 
ATOM     17  C   UNL     1       4.205   3.311  18.259  0.00  0.00    +0.000 C 
ATOM     18  C   UNL     1       3.288   3.532  19.455  0.00  0.00    +0.000 C 
ATOM     19  C   UNL     1       0.898   9.688  19.511  0.00  0.00    +0.000 A 
ATOM     20  C   UNL     1       0.798   9.489  18.039  0.00  0.00    +0.000 C 
ENDROOT
BRANCH   1  23
ATOM     21  N   UNL     1       0.924  13.190  19.715  0.00  0.00    +0.000 N 
ATOM     22  C   UNL     1       2.366  13.066  19.912  0.00  0.00    +0.000 C 
ATOM     23  C   UNL     1       0.085  12.076  19.728  0.00  0.00    +0.000 C 
ATOM     24  O   UNL     1      -1.081  12.156  19.281  0.00  0.00    +0.000 OA
BRANCH  21  25
ATOM     25  C   UNL     1       0.397  14.424  19.109  0.00  0.00    +0.000 C 
BRANCH  25  26
ATOM     26  C   UNL     1      -0.070  15.505  20.131  0.00  0.00    +0.000 C 
BRANCH  26  27
ATOM     27  N   UNL     1      -1.008  16.550  19.627  0.00  0.00    +0.000 NA
BRANCH  27  29
ATOM     28  C   UNL     1      -1.186  16.891  22.160  0.00  0.00    +0.000 C 
ATOM     29  C   UNL     1      -1.790  17.062  20.773  0.00  0.00    +0.000 C 
ENDBRANCH  27  29
BRANCH  27  30
ATOM     30  C   UNL     1      -0.252  17.616  18.921  0.00  0.00    +0.000 C 
ATOM     31  C   UNL     1      -0.447  17.703  17.410  0.00  0.00    +0.000 C 
ENDBRANCH  27  30
ENDBRANCH  26  27
ENDBRANCH  25  26
ENDBRANCH  21  25
ENDBRANCH   1  23
BRANCH  14  32
ATOM     32  O   UNL     1       6.616   5.197  14.417  0.00  0.00    +0.000 OA
ATOM     33  C   UNL     1       6.443   4.030  13.612  0.00  0.00    +0.000 C 
ENDBRANCH  14  32
TORSDOF 7
ENDMDL
