MODEL 1
REMARK VINA RESULT:      -7.3      0.000      0.000
REMARK  Name = 
REMARK  5 active torsions:
REMARK  status: ('A' for Active; 'I' for Inactive)
REMARK    1  A    between atoms: C_1  and  O_2
REMARK    2  A    between atoms: O_2  and  C_3
REMARK    3  A    between atoms: C_7  and  N_8
REMARK    4  A    between atoms: C_9  and  C_10
REMARK    5  A    between atoms: C_17  and  O_18
REMARK                            x       y       z     vdW  Elec       q    Type
REMARK                         _______ _______ _______ _____ _____    ______ ____
ROOT
ATOM      1  C   UNL     1       6.968   6.153  16.582  0.00  0.00    +0.000 A 
ATOM      2  C   UNL     1       6.119   6.015  17.692  0.00  0.00    +0.000 A 
ATOM      3  C   UNL     1       5.160   5.001  17.743  0.00  0.00    +0.000 A 
ATOM      4  C   UNL     1       4.286   4.823  18.890  0.00  0.00    +0.000 A 
ATOM      5  C   UNL     1       3.298   3.918  18.869  0.00  0.00    +0.000 A 
ATOM      6  C   UNL     1       3.078   3.096  17.633  0.00  0.00    +0.000 A 
ATOM      7  O   UNL     1       2.088   2.372  17.540  0.00  0.00    +0.000 OA
ATOM      8  O   UNL     1       4.048   3.147  16.640  0.00  0.00    +0.000 OA
ATOM      9  C   UNL     1       5.053   4.129  16.672  0.00  0.00    +0.000 A 
ATOM     10  C   UNL     1       5.905   4.215  15.573  0.00  0.00    +0.000 A 
ATOM     11  C   UNL     1       6.860   5.235  15.528  0.00  0.00    +0.000 A 
ENDROOT
BRANCH   5  12
ATOM     12  N   UNL     1       2.433   3.652  19.917  0.00  0.00    +0.000 N 
ATOM     13  C   UNL     1       2.652   2.847  21.014  0.00  0.00    +0.000 C 
ATOM     14  C   UNL     1       1.459   2.724  21.933  0.00  0.00    +0.000 C 
ATOM     15  O   UNL     1       3.701   2.269  21.282  0.00  0.00    +0.000 OA
ATOM     16  H   UNL     1       1.526   4.113  19.837  0.00  0.00    +0.000 HD
ENDBRANCH   5  12
BRANCH   1  18
ATOM     17  C   UNL     1       7.861   7.915  17.936  0.00  0.00    +0.000 C 
ATOM     18  O   UNL     1       7.821   7.218  16.700  0.00  0.00    +0.000 OA
ENDBRANCH   1  18
BRANCH  11  19
ATOM     19  O   UNL     1       7.670   5.313  14.432  0.00  0.00    +0.000 OA
ATOM     20  H   UNL     1       7.578   4.504  13.902  0.00  0.00    +0.000 HD
ENDBRANCH  11  19
TORSDOF 3
ENDMDL
MODEL 2
REMARK VINA RESULT:      -7.2      1.986      5.948
REMARK  Name = 
REMARK  5 active torsions:
REMARK  status: ('A' for Active; 'I' for Inactive)
REMARK    1  A    between atoms: C_1  and  O_2
REMARK    2  A    between atoms: O_2  and  C_3
REMARK    3  A    between atoms: C_7  and  N_8
REMARK    4  A    between atoms: C_9  and  C_10
REMARK    5  A    between atoms: C_17  and  O_18
REMARK                            x       y       z     vdW  Elec       q    Type
REMARK                         _______ _______ _______ _____ _____    ______ ____
ROOT
ATOM      1  C   UNL     1       1.758   3.679  19.383  0.00  0.00    +0.000 A 
ATOM      2  C   UNL     1       2.658   4.757  19.376  0.00  0.00    +0.000 A 
ATOM      3  C   UNL     1       3.559   4.936  18.324  0.00  0.00    +0.000 A 
ATOM      4  C   UNL     1       4.483   6.056  18.282  0.00  0.00    +0.000 A 
ATOM      5  C   UNL     1       5.415   6.144  17.324  0.00  0.00    +0.000 A 
ATOM      6  C   UNL     1       5.520   5.057  16.295  0.00  0.00    +0.000 A 
ATOM      7  O   UNL     1       6.461   5.043  15.503  0.00  0.00    +0.000 OA
ATOM      8  O   UNL     1       4.502   4.113  16.244  0.00  0.00    +0.000 OA
ATOM      9  C   UNL     1       3.557   4.024  17.281  0.00  0.00    +0.000 A 
ATOM     10  C   UNL     1       2.653   2.965  17.239  0.00  0.00    +0.000 A 
ATOM     11  C   UNL     1       1.756   2.791  18.299  0.00  0.00    +0.000 A 
ENDROOT
BRANCH   5  12
ATOM     12  N   UNL     1       6.320   7.183  17.178  0.00  0.00    +0.000 N 
ATOM     13  C   UNL     1       7.495   7.387  17.869  0.00  0.00    +0.000 C 
ATOM     14  C   UNL     1       8.207   8.669  17.503  0.00  0.00    +0.000 C 
ATOM     15  O   UNL     1       7.978   6.629  18.705  0.00  0.00    +0.000 OA
ATOM     16  H   UNL     1       6.055   7.872  16.474  0.00  0.00    +0.000 HD
ENDBRANCH   5  12
BRANCH   1  18
ATOM     17  C   UNL     1       1.375   2.824  21.587  0.00  0.00    +0.000 C 
ATOM     18  O   UNL     1       0.975   3.653  20.506  0.00  0.00    +0.000 OA
ENDBRANCH   1  18
BRANCH  11  19
ATOM     19  O   UNL     1       0.893   1.734  18.247  0.00  0.00    +0.000 OA
ATOM     20  H   UNL     1       1.326   0.983  17.808  0.00  0.00    +0.000 HD
ENDBRANCH  11  19
TORSDOF 3
ENDMDL
MODEL 3
REMARK VINA RESULT:      -7.1      3.172      6.102
REMARK  Name = 
REMARK  5 active torsions:
REMARK  status: ('A' for Active; 'I' for Inactive)
REMARK    1  A    between atoms: C_1  and  O_2
REMARK    2  A    between atoms: O_2  and  C_3
REMARK    3  A    between atoms: C_7  and  N_8
REMARK    4  A    between atoms: C_9  and  C_10
REMARK    5  A    between atoms: C_17  and  O_18
REMARK                            x       y       z     vdW  Elec       q    Type
REMARK                         _______ _______ _______ _____ _____    ______ ____
ROOT
ATOM      1  C   UNL     1       2.732   6.901  18.961  0.00  0.00    +0.000 A 
ATOM      2  C   UNL     1       3.467   7.041  17.772  0.00  0.00    +0.000 A 
ATOM      3  C   UNL     1       4.563   6.219  17.502  0.00  0.00    +0.000 A 
ATOM      4  C   UNL     1       5.324   6.328  16.269  0.00  0.00    +0.000 A 
ATOM      5  C   UNL     1       6.439   5.609  16.083  0.00  0.00    +0.000 A 
ATOM      6  C   UNL     1       6.920   4.698  17.174  0.00  0.00    +0.000 A 
ATOM      7  O   UNL     1       8.017   4.149  17.082  0.00  0.00    +0.000 OA
ATOM      8  O   UNL     1       6.069   4.466  18.246  0.00  0.00    +0.000 OA
ATOM      9  C   UNL     1       4.923   5.259  18.434  0.00  0.00    +0.000 A 
ATOM     10  C   UNL     1       4.194   5.069  19.605  0.00  0.00    +0.000 A 
ATOM     11  C   UNL     1       3.099   5.899  19.870  0.00  0.00    +0.000 A 
ENDROOT
BRANCH   5  12
ATOM     12  N   UNL     1       7.217   5.618  14.936  0.00  0.00    +0.000 N 
ATOM     13  C   UNL     1       7.065   4.849  13.803  0.00  0.00    +0.000 C 
ATOM     14  C   UNL     1       8.141   5.068  12.764  0.00  0.00    +0.000 C 
ATOM     15  O   UNL     1       6.156   4.052  13.592  0.00  0.00    +0.000 OA
ATOM     16  H   UNL     1       7.995   6.278  14.965  0.00  0.00    +0.000 HD
ENDBRANCH   5  12
BRANCH   1  18
ATOM     17  C   UNL     1       1.715   8.923  18.179  0.00  0.00    +0.000 C 
ATOM     18  O   UNL     1       1.714   7.811  19.061  0.00  0.00    +0.000 OA
ENDBRANCH   1  18
BRANCH  11  19
ATOM     19  O   UNL     1       2.412   5.709  21.034  0.00  0.00    +0.000 OA
ATOM     20  H   UNL     1       1.696   5.068  20.888  0.00  0.00    +0.000 HD
ENDBRANCH  11  19
TORSDOF 3
ENDMDL
MODEL 4
REMARK VINA RESULT:      -7.0      3.435      4.465
REMARK  Name = 
REMARK  5 active torsions:
REMARK  status: ('A' for Active; 'I' for Inactive)
REMARK    1  A    between atoms: C_1  and  O_2
REMARK    2  A    between atoms: O_2  and  C_3
REMARK    3  A    between atoms: C_7  and  N_8
REMARK    4  A    between atoms: C_9  and  C_10
REMARK    5  A    between atoms: C_17  and  O_18
REMARK                            x       y       z     vdW  Elec       q    Type
REMARK                         _______ _______ _______ _____ _____    ______ ____
ROOT
ATOM      1  C   UNL     1       6.860   5.439  16.319  0.00  0.00    +0.000 A 
ATOM      2  C   UNL     1       5.712   6.242  16.224  0.00  0.00    +0.000 A 
ATOM      3  C   UNL     1       4.829   6.366  17.299  0.00  0.00    +0.000 A 
ATOM      4  C   UNL     1       3.648   7.210  17.233  0.00  0.00    +0.000 A 
ATOM      5  C   UNL     1       2.756   7.223  18.234  0.00  0.00    +0.000 A 
ATOM      6  C   UNL     1       2.971   6.338  19.426  0.00  0.00    +0.000 A 
ATOM      7  O   UNL     1       2.092   6.225  20.278  0.00  0.00    +0.000 OA
ATOM      8  O   UNL     1       4.200   5.704  19.548  0.00  0.00    +0.000 OA
ATOM      9  C   UNL     1       5.101   5.677  18.470  0.00  0.00    +0.000 A 
ATOM     10  C   UNL     1       6.251   4.903  18.610  0.00  0.00    +0.000 A 
ATOM     11  C   UNL     1       7.128   4.780  17.527  0.00  0.00    +0.000 A 
ENDROOT
BRANCH   5  12
ATOM     12  N   UNL     1       1.617   8.011  18.281  0.00  0.00    +0.000 N 
ATOM     13  C   UNL     1       1.507   9.359  18.016  0.00  0.00    +0.000 C 
ATOM     14  C   UNL     1       0.119   9.915  18.234  0.00  0.00    +0.000 C 
ATOM     15  O   UNL     1       2.410  10.090  17.623  0.00  0.00    +0.000 OA
ATOM     16  H   UNL     1       0.773   7.508  18.558  0.00  0.00    +0.000 HD
ENDBRANCH   5  12
BRANCH   1  18
ATOM     17  C   UNL     1       7.007   4.812  14.013  0.00  0.00    +0.000 C 
ATOM     18  O   UNL     1       7.586   5.419  15.159  0.00  0.00    +0.000 OA
ENDBRANCH   1  18
BRANCH  11  19
ATOM     19  O   UNL     1       8.237   3.999  17.680  0.00  0.00    +0.000 OA
ATOM     20  H   UNL     1       8.541   4.043  18.602  0.00  0.00    +0.000 HD
ENDBRANCH  11  19
TORSDOF 3
ENDMDL
MODEL 5
REMARK VINA RESULT:      -6.9      2.735      6.430
REMARK  Name = 
REMARK  5 active torsions:
REMARK  status: ('A' for Active; 'I' for Inactive)
REMARK    1  A    between atoms: C_1  and  O_2
REMARK    2  A    between atoms: O_2  and  C_3
REMARK    3  A    between atoms: C_7  and  N_8
REMARK    4  A    between atoms: C_9  and  C_10
REMARK    5  A    between atoms: C_17  and  O_18
REMARK                            x       y       z     vdW  Elec       q    Type
REMARK                         _______ _______ _______ _____ _____    ______ ____
ROOT
ATOM      1  C   UNL     1       2.755   4.333  18.502  0.00  0.00    +0.000 A 
ATOM      2  C   UNL     1       3.193   3.780  17.288  0.00  0.00    +0.000 A 
ATOM      3  C   UNL     1       4.422   4.142  16.734  0.00  0.00    +0.000 A 
ATOM      4  C   UNL     1       4.908   3.567  15.491  0.00  0.00    +0.000 A 
ATOM      5  C   UNL     1       6.035   4.014  14.920  0.00  0.00    +0.000 A 
ATOM      6  C   UNL     1       6.791   5.140  15.562  0.00  0.00    +0.000 A 
ATOM      7  O   UNL     1       7.738   5.662  14.976  0.00  0.00    +0.000 OA
ATOM      8  O   UNL     1       6.414   5.526  16.841  0.00  0.00    +0.000 OA
ATOM      9  C   UNL     1       5.209   5.067  17.401  0.00  0.00    +0.000 A 
ATOM     10  C   UNL     1       4.822   5.606  18.626  0.00  0.00    +0.000 A 
ATOM     11  C   UNL     1       3.587   5.240  19.173  0.00  0.00    +0.000 A 
ENDROOT
BRANCH   5  12
ATOM     12  N   UNL     1       6.597   3.514  13.756  0.00  0.00    +0.000 N 
ATOM     13  C   UNL     1       5.990   3.330  12.533  0.00  0.00    +0.000 C 
ATOM     14  C   UNL     1       6.883   2.693  11.494  0.00  0.00    +0.000 C 
ATOM     15  O   UNL     1       4.838   3.645  12.247  0.00  0.00    +0.000 OA
ATOM     16  H   UNL     1       7.578   3.248  13.847  0.00  0.00    +0.000 HD
ENDBRANCH   5  12
BRANCH   1  18
ATOM     17  C   UNL     1       1.312   2.477  18.959  0.00  0.00    +0.000 C 
ATOM     18  O   UNL     1       1.517   3.879  18.871  0.00  0.00    +0.000 OA
ENDBRANCH   1  18
BRANCH  11  19
ATOM     19  O   UNL     1       3.218   5.797  20.363  0.00  0.00    +0.000 OA
ATOM     20  H   UNL     1       4.000   5.900  20.930  0.00  0.00    +0.000 HD
ENDBRANCH  11  19
TORSDOF 3
ENDMDL
MODEL 6
REMARK VINA RESULT:      -6.9      1.935      3.504
REMARK  Name = 
REMARK  5 active torsions:
REMARK  status: ('A' for Active; 'I' for Inactive)
REMARK    1  A    between atoms: C_1  and  O_2
REMARK    2  A    between atoms: O_2  and  C_3
REMARK    3  A    between atoms: C_7  and  N_8
REMARK    4  A    between atoms: C_9  and  C_10
REMARK    5  A    between atoms: C_17  and  O_18
REMARK                            x       y       z     vdW  Elec       q    Type
REMARK                         _______ _______ _______ _____ _____    ______ ____
ROOT
ATOM      1  C   UNL     1       6.406   4.141  13.840  0.00  0.00    +0.000 A 
ATOM      2  C   UNL     1       5.367   3.669  14.659  0.00  0.00    +0.000 A 
ATOM      3  C   UNL     1       5.186   4.167  15.951  0.00  0.00    +0.000 A 
ATOM      4  C   UNL     1       4.104   3.711  16.808  0.00  0.00    +0.000 A 
ATOM      5  C   UNL     1       4.018   4.118  18.082  0.00  0.00    +0.000 A 
ATOM      6  C   UNL     1       5.067   5.037  18.635  0.00  0.00    +0.000 A 
ATOM      7  O   UNL     1       5.090   5.298  19.837  0.00  0.00    +0.000 OA
ATOM      8  O   UNL     1       5.964   5.609  17.742  0.00  0.00    +0.000 OA
ATOM      9  C   UNL     1       6.054   5.138  16.420  0.00  0.00    +0.000 A 
ATOM     10  C   UNL     1       7.071   5.655  15.621  0.00  0.00    +0.000 A 
ATOM     11  C   UNL     1       7.249   5.148  14.329  0.00  0.00    +0.000 A 
ENDROOT
BRANCH   5  12
ATOM     12  N   UNL     1       3.014   3.767  18.969  0.00  0.00    +0.000 N 
ATOM     13  C   UNL     1       1.657   3.709  18.734  0.00  0.00    +0.000 C 
ATOM     14  C   UNL     1       0.838   3.355  19.954  0.00  0.00    +0.000 C 
ATOM     15  O   UNL     1       1.106   3.904  17.655  0.00  0.00    +0.000 OA
ATOM     16  H   UNL     1       3.346   3.537  19.906  0.00  0.00    +0.000 HD
ENDBRANCH   5  12
BRANCH   1  18
ATOM     17  C   UNL     1       5.212   3.200  11.990  0.00  0.00    +0.000 C 
ATOM     18  O   UNL     1       6.443   3.516  12.623  0.00  0.00    +0.000 OA
ENDBRANCH   1  18
BRANCH  11  19
ATOM     19  O   UNL     1       8.266   5.655  13.571  0.00  0.00    +0.000 OA
ATOM     20  H   UNL     1       9.070   5.128  13.712  0.00  0.00    +0.000 HD
ENDBRANCH  11  19
TORSDOF 3
ENDMDL
MODEL 7
REMARK VINA RESULT:      -6.8      1.970      3.513
REMARK  Name = 
REMARK  5 active torsions:
REMARK  status: ('A' for Active; 'I' for Inactive)
REMARK    1  A    between atoms: C_1  and  O_2
REMARK    2  A    between atoms: O_2  and  C_3
REMARK    3  A    between atoms: C_7  and  N_8
REMARK    4  A    between atoms: C_9  and  C_10
REMARK    5  A    between atoms: C_17  and  O_18
REMARK                            x       y       z     vdW  Elec       q    Type
REMARK                         _______ _______ _______ _____ _____    ______ ____
ROOT
ATOM      1  C   UNL     1       6.333   4.092  13.577  0.00  0.00    +0.000 A 
ATOM      2  C   UNL     1       5.428   3.659  14.560  0.00  0.00    +0.000 A 
ATOM      3  C   UNL     1       5.514   4.125  15.873  0.00  0.00    +0.000 A 
ATOM      4  C   UNL     1       4.576   3.711  16.902  0.00  0.00    +0.000 A 
ATOM      5  C   UNL     1       4.747   4.081  18.179  0.00  0.00    +0.000 A 
ATOM      6  C   UNL     1       5.937   4.914  18.552  0.00  0.00    +0.000 A 
ATOM      7  O   UNL     1       6.192   5.134  19.735  0.00  0.00    +0.000 OA
ATOM      8  O   UNL     1       6.696   5.457  17.524  0.00  0.00    +0.000 OA
ATOM      9  C   UNL     1       6.517   5.025  16.198  0.00  0.00    +0.000 A 
ATOM     10  C   UNL     1       7.406   5.503  15.239  0.00  0.00    +0.000 A 
ATOM     11  C   UNL     1       7.316   5.028  13.926  0.00  0.00    +0.000 A 
ENDROOT
BRANCH   5  12
ATOM     12  N   UNL     1       3.896   3.764  19.226  0.00  0.00    +0.000 N 
ATOM     13  C   UNL     1       3.985   2.704  20.100  0.00  0.00    +0.000 C 
ATOM     14  C   UNL     1       2.840   2.621  21.083  0.00  0.00    +0.000 C 
ATOM     15  O   UNL     1       4.892   1.877  20.137  0.00  0.00    +0.000 OA
ATOM     16  H   UNL     1       3.110   4.407  19.333  0.00  0.00    +0.000 HD
ENDBRANCH   5  12
BRANCH   1  18
ATOM     17  C   UNL     1       4.767   3.264  11.966  0.00  0.00    +0.000 C 
ATOM     18  O   UNL     1       6.109   3.505  12.360  0.00  0.00    +0.000 OA
ENDBRANCH   1  18
BRANCH  11  19
ATOM     19  O   UNL     1       8.212   5.494  13.008  0.00  0.00    +0.000 OA
ATOM     20  H   UNL     1       8.679   4.746  12.600  0.00  0.00    +0.000 HD
ENDBRANCH  11  19
TORSDOF 3
ENDMDL
MODEL 8
REMARK VINA RESULT:      -6.8      2.489      6.488
REMARK  Name = 
REMARK  5 active torsions:
REMARK  status: ('A' for Active; 'I' for Inactive)
REMARK    1  A    between atoms: C_1  and  O_2
REMARK    2  A    between atoms: O_2  and  C_3
REMARK    3  A    between atoms: C_7  and  N_8
REMARK    4  A    between atoms: C_9  and  C_10
REMARK    5  A    between atoms: C_17  and  O_18
REMARK                            x       y       z     vdW  Elec       q    Type
REMARK                         _______ _______ _______ _____ _____    ______ ____
ROOT
ATOM      1  C   UNL     1       2.384   4.352  18.751  0.00  0.00    +0.000 A 
ATOM      2  C   UNL     1       2.974   4.373  17.477  0.00  0.00    +0.000 A 
ATOM      3  C   UNL     1       4.251   4.903  17.283  0.00  0.00    +0.000 A 
ATOM      4  C   UNL     1       4.892   4.915  15.979  0.00  0.00    +0.000 A 
ATOM      5  C   UNL     1       6.068   5.532  15.796  0.00  0.00    +0.000 A 
ATOM      6  C   UNL     1       6.717   6.239  16.949  0.00  0.00    +0.000 A 
ATOM      7  O   UNL     1       7.715   6.935  16.765  0.00  0.00    +0.000 OA
ATOM      8  O   UNL     1       6.185   6.038  18.216  0.00  0.00    +0.000 OA
ATOM      9  C   UNL     1       4.933   5.417  18.375  0.00  0.00    +0.000 A 
ATOM     10  C   UNL     1       4.393   5.377  19.658  0.00  0.00    +0.000 A 
ATOM     11  C   UNL     1       3.111   4.848  19.842  0.00  0.00    +0.000 A 
ENDROOT
BRANCH   5  12
ATOM     12  N   UNL     1       6.773   5.574  14.604  0.00  0.00    +0.000 N 
ATOM     13  C   UNL     1       6.829   4.615  13.617  0.00  0.00    +0.000 C 
ATOM     14  C   UNL     1       7.758   4.961  12.477  0.00  0.00    +0.000 C 
ATOM     15  O   UNL     1       6.197   3.563  13.601  0.00  0.00    +0.000 OA
ATOM     16  H   UNL     1       7.316   6.428  14.471  0.00  0.00    +0.000 HD
ENDBRANCH   5  12
BRANCH   1  18
ATOM     17  C   UNL     1       0.978   2.422  18.928  0.00  0.00    +0.000 C 
ATOM     18  O   UNL     1       1.122   3.821  18.739  0.00  0.00    +0.000 OA
ENDBRANCH   1  18
BRANCH  11  19
ATOM     19  O   UNL     1       2.592   4.838  21.105  0.00  0.00    +0.000 OA
ATOM     20  H   UNL     1       2.304   5.735  21.345  0.00  0.00    +0.000 HD
ENDBRANCH  11  19
TORSDOF 3
ENDMDL
MODEL 9
REMARK VINA RESULT:      -6.7      1.825      3.200
REMARK  Name = 
REMARK  5 active torsions:
REMARK  status: ('A' for Active; 'I' for Inactive)
REMARK    1  A    between atoms: C_1  and  O_2
REMARK    2  A    between atoms: O_2  and  C_3
REMARK    3  A    between atoms: C_7  and  N_8
REMARK    4  A    between atoms: C_9  and  C_10
REMARK    5  A    between atoms: C_17  and  O_18
REMARK                            x       y       z     vdW  Elec       q    Type
REMARK                         _______ _______ _______ _____ _____    ______ ____
ROOT
ATOM      1  C   UNL     1       6.351   4.156  13.992  0.00  0.00    +0.000 A 
ATOM      2  C   UNL     1       5.257   3.733  14.766  0.00  0.00    +0.000 A 
ATOM      3  C   UNL     1       5.016   4.276  16.029  0.00  0.00    +0.000 A 
ATOM      4  C   UNL     1       3.879   3.872  16.838  0.00  0.00    +0.000 A 
ATOM      5  C   UNL     1       3.732   4.322  18.092  0.00  0.00    +0.000 A 
ATOM      6  C   UNL     1       4.770   5.235  18.674  0.00  0.00    +0.000 A 
ATOM      7  O   UNL     1       4.732   5.535  19.867  0.00  0.00    +0.000 OA
ATOM      8  O   UNL     1       5.728   5.759  17.816  0.00  0.00    +0.000 OA
ATOM      9  C   UNL     1       5.880   5.244  16.516  0.00  0.00    +0.000 A 
ATOM     10  C   UNL     1       6.951   5.712  15.759  0.00  0.00    +0.000 A 
ATOM     11  C   UNL     1       7.189   5.160  14.496  0.00  0.00    +0.000 A 
ENDROOT
BRANCH   5  12
ATOM     12  N   UNL     1       2.672   4.021  18.932  0.00  0.00    +0.000 N 
ATOM     13  C   UNL     1       2.595   3.020  19.875  0.00  0.00    +0.000 C 
ATOM     14  C   UNL     1       1.255   2.932  20.569  0.00  0.00    +0.000 C 
ATOM     15  O   UNL     1       3.499   2.247  20.178  0.00  0.00    +0.000 OA
ATOM     16  H   UNL     1       1.859   4.626  18.810  0.00  0.00    +0.000 HD
ENDBRANCH   5  12
BRANCH   1  18
ATOM     17  C   UNL     1       5.248   3.270  12.060  0.00  0.00    +0.000 C 
ATOM     18  O   UNL     1       6.440   3.491  12.799  0.00  0.00    +0.000 OA
ENDBRANCH   1  18
BRANCH  11  19
ATOM     19  O   UNL     1       8.257   5.620  13.781  0.00  0.00    +0.000 OA
ATOM     20  H   UNL     1       7.955   5.936  12.914  0.00  0.00    +0.000 HD
ENDBRANCH  11  19
TORSDOF 3
ENDMDL
