MODEL 1
REMARK VINA RESULT:      -8.5      0.000      0.000
REMARK  Name = 
REMARK  8 active torsions:
REMARK  status: ('A' for Active; 'I' for Inactive)
REMARK    1  A    between atoms: C_1  and  O_2
REMARK    2  A    between atoms: O_2  and  C_3
REMARK    3  A    between atoms: C_6  and  C_7
REMARK    4  A    between atoms: C_12  and  C_14
REMARK    5  A    between atoms: C_14  and  C_15
REMARK    6  A    between atoms: C_15  and  N_16
REMARK    7  A    between atoms: C_29  and  O_30
REMARK    8  A    between atoms: O_30  and  C_31
REMARK                            x       y       z     vdW  Elec       q    Type
REMARK                         _______ _______ _______ _____ _____    ______ ____
ROOT
ATOM      1  C   UNL     1       3.761   4.966  18.815  0.00  0.00    +0.000 A 
ATOM      2  C   UNL     1       3.536   3.892  19.658  0.00  0.00    +0.000 A 
ATOM      3  S   UNL     1       2.361   4.312  20.840  0.00  0.00    +0.000 S 
ATOM      4  C   UNL     1       2.310   5.892  20.197  0.00  0.00    +0.000 A 
ATOM      5  N   UNL     1       1.461   6.742  20.851  0.00  0.00    +0.000 N 
ATOM      6  C   UNL     1       1.405   8.080  20.538  0.00  0.00    +0.000 C 
ATOM      7  O   UNL     1       2.134   8.667  19.743  0.00  0.00    +0.000 OA
ATOM      8  N   UNL     1       3.070   6.118  19.157  0.00  0.00    +0.000 NA
ATOM      9  H   UNL     1       0.897   6.348  21.587  0.00  0.00    +0.000 HD
ENDROOT
BRANCH   1  13
ATOM     10  C   UNL     1       6.360   5.000  15.407  0.00  0.00    +0.000 A 
ATOM     11  C   UNL     1       5.307   4.080  15.506  0.00  0.00    +0.000 A 
ATOM     12  C   UNL     1       4.466   4.068  16.620  0.00  0.00    +0.000 A 
ATOM     13  C   UNL     1       4.684   4.950  17.683  0.00  0.00    +0.000 A 
ATOM     14  C   UNL     1       5.797   5.797  17.622  0.00  0.00    +0.000 A 
ATOM     15  C   UNL     1       6.644   5.833  16.503  0.00  0.00    +0.000 A 
BRANCH  10  17
ATOM     16  C   UNL     1       6.728   4.240  13.199  0.00  0.00    +0.000 C 
ATOM     17  O   UNL     1       7.137   5.071  14.282  0.00  0.00    +0.000 OA
ENDBRANCH  10  17
BRANCH  15  18
ATOM     18  O   UNL     1       7.651   6.746  16.656  0.00  0.00    +0.000 OA
ATOM     19  C   UNL     1       7.436   7.887  17.471  0.00  0.00    +0.000 C 
ENDBRANCH  15  18
ENDBRANCH   1  13
BRANCH   6  20
ATOM     20  C   UNL     1       0.344   8.839  21.328  0.00  0.00    +0.000 C 
BRANCH  20  21
ATOM     21  C   UNL     1       0.490  10.323  21.014  0.00  0.00    +0.000 C 
BRANCH  21  22
ATOM     22  N   UNL     1      -0.619  10.937  20.304  0.00  0.00    +0.000 N 
ATOM     23  C   UNL     1      -1.548  11.740  20.896  0.00  0.00    +0.000 C 
ATOM     24  O   UNL     1      -1.742  11.853  22.099  0.00  0.00    +0.000 OA
ATOM     25  C   UNL     1      -2.257  12.536  19.827  0.00  0.00    +0.000 C 
ATOM     26  C   UNL     1      -3.763  12.648  20.051  0.00  0.00    +0.000 C 
ATOM     27  C   UNL     1      -4.628  11.994  19.025  0.00  0.00    +0.000 C 
ATOM     28  C   UNL     1      -4.178  11.485  17.876  0.00  0.00    +0.000 C 
ATOM     29  C   UNL     1      -2.747  11.498  17.454  0.00  0.00    +0.000 C 
ATOM     30  C   UNL     1      -1.744  11.935  18.516  0.00  0.00    +0.000 C 
ATOM     31  C   UNL     1      -0.814  10.826  18.960  0.00  0.00    +0.000 C 
ATOM     32  O   UNL     1      -0.275  10.014  18.221  0.00  0.00    +0.000 OA
ENDBRANCH  21  22
ENDBRANCH  20  21
ENDBRANCH   6  20
TORSDOF 6
ENDMDL
MODEL 2
REMARK VINA RESULT:      -8.4      0.864      1.123
REMARK  Name = 
REMARK  8 active torsions:
REMARK  status: ('A' for Active; 'I' for Inactive)
REMARK    1  A    between atoms: C_1  and  O_2
REMARK    2  A    between atoms: O_2  and  C_3
REMARK    3  A    between atoms: C_6  and  C_7
REMARK    4  A    between atoms: C_12  and  C_14
REMARK    5  A    between atoms: C_14  and  C_15
REMARK    6  A    between atoms: C_15  and  N_16
REMARK    7  A    between atoms: C_29  and  O_30
REMARK    8  A    between atoms: O_30  and  C_31
REMARK                            x       y       z     vdW  Elec       q    Type
REMARK                         _______ _______ _______ _____ _____    ______ ____
ROOT
ATOM      1  C   UNL     1       3.996   4.810  18.779  0.00  0.00    +0.000 A 
ATOM      2  C   UNL     1       3.799   3.700  19.583  0.00  0.00    +0.000 A 
ATOM      3  S   UNL     1       2.584   4.032  20.752  0.00  0.00    +0.000 S 
ATOM      4  C   UNL     1       2.480   5.629  20.159  0.00  0.00    +0.000 A 
ATOM      5  N   UNL     1       1.583   6.421  20.822  0.00  0.00    +0.000 N 
ATOM      6  C   UNL     1       1.477   7.765  20.550  0.00  0.00    +0.000 C 
ATOM      7  O   UNL     1       2.197   8.408  19.790  0.00  0.00    +0.000 OA
ATOM      8  N   UNL     1       3.251   5.920  19.143  0.00  0.00    +0.000 NA
ATOM      9  H   UNL     1       1.021   5.980  21.532  0.00  0.00    +0.000 HD
ENDROOT
BRANCH   1  13
ATOM     10  C   UNL     1       6.654   5.048  15.425  0.00  0.00    +0.000 A 
ATOM     11  C   UNL     1       5.712   4.016  15.531  0.00  0.00    +0.000 A 
ATOM     12  C   UNL     1       4.851   3.938  16.627  0.00  0.00    +0.000 A 
ATOM     13  C   UNL     1       4.942   4.868  17.667  0.00  0.00    +0.000 A 
ATOM     14  C   UNL     1       5.950   5.837  17.603  0.00  0.00    +0.000 A 
ATOM     15  C   UNL     1       6.813   5.939  16.500  0.00  0.00    +0.000 A 
BRANCH  10  17
ATOM     16  C   UNL     1       7.010   4.457  13.164  0.00  0.00    +0.000 C 
ATOM     17  O   UNL     1       7.444   5.178  14.315  0.00  0.00    +0.000 OA
ENDBRANCH  10  17
BRANCH  15  18
ATOM     18  O   UNL     1       7.705   6.967  16.645  0.00  0.00    +0.000 OA
ATOM     19  C   UNL     1       7.688   7.737  17.837  0.00  0.00    +0.000 C 
ENDBRANCH  15  18
ENDBRANCH   1  13
BRANCH   6  20
ATOM     20  C   UNL     1       0.370   8.453  21.341  0.00  0.00    +0.000 C 
BRANCH  20  21
ATOM     21  C   UNL     1       0.686   9.943  21.403  0.00  0.00    +0.000 C 
BRANCH  21  22
ATOM     22  N   UNL     1      -0.441  10.842  21.222  0.00  0.00    +0.000 N 
ATOM     23  C   UNL     1      -1.066  11.490  22.246  0.00  0.00    +0.000 C 
ATOM     24  O   UNL     1      -0.959  11.230  23.437  0.00  0.00    +0.000 OA
ATOM     25  C   UNL     1      -1.862  12.642  21.681  0.00  0.00    +0.000 C 
ATOM     26  C   UNL     1      -3.237  12.803  22.323  0.00  0.00    +0.000 C 
ATOM     27  C   UNL     1      -4.409  12.585  21.423  0.00  0.00    +0.000 C 
ATOM     28  C   UNL     1      -4.323  12.433  20.099  0.00  0.00    +0.000 C 
ATOM     29  C   UNL     1      -3.043  12.459  19.332  0.00  0.00    +0.000 C 
ATOM     30  C   UNL     1      -1.767  12.449  20.165  0.00  0.00    +0.000 C 
ATOM     31  C   UNL     1      -0.953  11.182  20.007  0.00  0.00    +0.000 C 
ATOM     32  O   UNL     1      -0.737  10.606  18.950  0.00  0.00    +0.000 OA
ENDBRANCH  21  22
ENDBRANCH  20  21
ENDBRANCH   6  20
TORSDOF 6
ENDMDL
MODEL 3
REMARK VINA RESULT:      -8.4      3.170      4.522
REMARK  Name = 
REMARK  8 active torsions:
REMARK  status: ('A' for Active; 'I' for Inactive)
REMARK    1  A    between atoms: C_1  and  O_2
REMARK    2  A    between atoms: O_2  and  C_3
REMARK    3  A    between atoms: C_6  and  C_7
REMARK    4  A    between atoms: C_12  and  C_14
REMARK    5  A    between atoms: C_14  and  C_15
REMARK    6  A    between atoms: C_15  and  N_16
REMARK    7  A    between atoms: C_29  and  O_30
REMARK    8  A    between atoms: O_30  and  C_31
REMARK                            x       y       z     vdW  Elec       q    Type
REMARK                         _______ _______ _______ _____ _____    ______ ____
ROOT
ATOM      1  C   UNL     1       1.739   8.368  19.374  0.00  0.00    +0.000 A 
ATOM      2  C   UNL     1       1.855   9.274  18.334  0.00  0.00    +0.000 A 
ATOM      3  S   UNL     1       1.121  10.765  18.770  0.00  0.00    +0.000 S 
ATOM      4  C   UNL     1       0.638  10.068  20.252  0.00  0.00    +0.000 A 
ATOM      5  N   UNL     1      -0.082  10.903  21.062  0.00  0.00    +0.000 N 
ATOM      6  C   UNL     1      -0.653  10.452  22.228  0.00  0.00    +0.000 C 
ATOM      7  O   UNL     1      -0.670   9.289  22.622  0.00  0.00    +0.000 OA
ATOM      8  N   UNL     1       1.010   8.832  20.457  0.00  0.00    +0.000 NA
ATOM      9  H   UNL     1      -0.193  11.856  20.753  0.00  0.00    +0.000 HD
ENDROOT
BRANCH   1  13
ATOM     10  C   UNL     1       3.449   4.439  19.345  0.00  0.00    +0.000 A 
ATOM     11  C   UNL     1       3.624   5.313  18.264  0.00  0.00    +0.000 A 
ATOM     12  C   UNL     1       3.061   6.590  18.274  0.00  0.00    +0.000 A 
ATOM     13  C   UNL     1       2.272   7.009  19.349  0.00  0.00    +0.000 A 
ATOM     14  C   UNL     1       2.019   6.095  20.379  0.00  0.00    +0.000 A 
ATOM     15  C   UNL     1       2.590   4.812  20.393  0.00  0.00    +0.000 A 
BRANCH  10  17
ATOM     16  C   UNL     1       3.667   2.300  18.363  0.00  0.00    +0.000 C 
ATOM     17  O   UNL     1       4.066   3.217  19.378  0.00  0.00    +0.000 OA
ENDBRANCH  10  17
BRANCH  15  18
ATOM     18  O   UNL     1       2.220   4.102  21.502  0.00  0.00    +0.000 OA
ATOM     19  C   UNL     1       1.415   2.943  21.347  0.00  0.00    +0.000 C 
ENDBRANCH  15  18
ENDBRANCH   1  13
BRANCH   6  20
ATOM     20  C   UNL     1      -1.348  11.553  23.023  0.00  0.00    +0.000 C 
BRANCH  20  21
ATOM     21  C   UNL     1      -1.714  12.676  22.059  0.00  0.00    +0.000 C 
BRANCH  21  22
ATOM     22  N   UNL     1      -3.015  12.569  21.421  0.00  0.00    +0.000 N 
ATOM     23  C   UNL     1      -4.198  12.637  22.095  0.00  0.00    +0.000 C 
ATOM     24  O   UNL     1      -4.345  12.538  23.305  0.00  0.00    +0.000 OA
ATOM     25  C   UNL     1      -5.303  12.934  21.110  0.00  0.00    +0.000 C 
ATOM     26  C   UNL     1      -6.575  12.130  21.364  0.00  0.00    +0.000 C 
ATOM     27  C   UNL     1      -6.961  11.161  20.295  0.00  0.00    +0.000 C 
ATOM     28  C   UNL     1      -6.372  11.086  19.099  0.00  0.00    +0.000 C 
ATOM     29  C   UNL     1      -5.245  11.961  18.661  0.00  0.00    +0.000 C 
ATOM     30  C   UNL     1      -4.619  12.832  19.743  0.00  0.00    +0.000 C 
ATOM     31  C   UNL     1      -3.192  12.451  20.075  0.00  0.00    +0.000 C 
ATOM     32  O   UNL     1      -2.330  12.157  19.260  0.00  0.00    +0.000 OA
ENDBRANCH  21  22
ENDBRANCH  20  21
ENDBRANCH   6  20
TORSDOF 6
ENDMDL
MODEL 4
REMARK VINA RESULT:      -8.3      1.459      2.271
REMARK  Name = 
REMARK  8 active torsions:
REMARK  status: ('A' for Active; 'I' for Inactive)
REMARK    1  A    between atoms: C_1  and  O_2
REMARK    2  A    between atoms: O_2  and  C_3
REMARK    3  A    between atoms: C_6  and  C_7
REMARK    4  A    between atoms: C_12  and  C_14
REMARK    5  A    between atoms: C_14  and  C_15
REMARK    6  A    between atoms: C_15  and  N_16
REMARK    7  A    between atoms: C_29  and  O_30
REMARK    8  A    between atoms: O_30  and  C_31
REMARK                            x       y       z     vdW  Elec       q    Type
REMARK                         _______ _______ _______ _____ _____    ______ ____
ROOT
ATOM      1  C   UNL     1       3.955   4.709  18.784  0.00  0.00    +0.000 A 
ATOM      2  C   UNL     1       3.700   3.558  19.510  0.00  0.00    +0.000 A 
ATOM      3  S   UNL     1       2.469   3.857  20.671  0.00  0.00    +0.000 S 
ATOM      4  C   UNL     1       2.434   5.491  20.180  0.00  0.00    +0.000 A 
ATOM      5  N   UNL     1       1.548   6.271  20.872  0.00  0.00    +0.000 N 
ATOM      6  C   UNL     1       1.494   7.632  20.686  0.00  0.00    +0.000 C 
ATOM      7  O   UNL     1       2.254   8.296  19.986  0.00  0.00    +0.000 OA
ATOM      8  N   UNL     1       3.239   5.819  19.203  0.00  0.00    +0.000 NA
ATOM      9  H   UNL     1       0.954   5.805  21.540  0.00  0.00    +0.000 HD
ENDROOT
BRANCH   1  13
ATOM     10  C   UNL     1       6.696   5.049  15.508  0.00  0.00    +0.000 A 
ATOM     11  C   UNL     1       5.810   3.967  15.602  0.00  0.00    +0.000 A 
ATOM     12  C   UNL     1       4.922   3.857  16.673  0.00  0.00    +0.000 A 
ATOM     13  C   UNL     1       4.929   4.805  17.701  0.00  0.00    +0.000 A 
ATOM     14  C   UNL     1       5.884   5.827  17.652  0.00  0.00    +0.000 A 
ATOM     15  C   UNL     1       6.774   5.962  16.574  0.00  0.00    +0.000 A 
BRANCH  10  17
ATOM     16  C   UNL     1       7.047   4.610  13.212  0.00  0.00    +0.000 C 
ATOM     17  O   UNL     1       7.512   5.207  14.420  0.00  0.00    +0.000 OA
ENDBRANCH  10  17
BRANCH  15  18
ATOM     18  O   UNL     1       7.602   7.040  16.730  0.00  0.00    +0.000 OA
ATOM     19  C   UNL     1       7.948   7.466  18.039  0.00  0.00    +0.000 C 
ENDBRANCH  15  18
ENDBRANCH   1  13
BRANCH   6  20
ATOM     20  C   UNL     1       0.391   8.307  21.494  0.00  0.00    +0.000 C 
BRANCH  20  21
ATOM     21  C   UNL     1       0.890   9.682  21.922  0.00  0.00    +0.000 C 
BRANCH  21  22
ATOM     22  N   UNL     1       0.096  10.815  21.475  0.00  0.00    +0.000 N 
ATOM     23  C   UNL     1       0.219  11.388  20.244  0.00  0.00    +0.000 C 
ATOM     24  O   UNL     1       1.145  11.224  19.461  0.00  0.00    +0.000 OA
ATOM     25  C   UNL     1      -1.017  12.208  19.962  0.00  0.00    +0.000 C 
ATOM     26  C   UNL     1      -0.718  13.550  19.300  0.00  0.00    +0.000 C 
ATOM     27  C   UNL     1      -1.058  14.764  20.099  0.00  0.00    +0.000 C 
ATOM     28  C   UNL     1      -1.742  14.743  21.246  0.00  0.00    +0.000 C 
ATOM     29  C   UNL     1      -2.263  13.502  21.891  0.00  0.00    +0.000 C 
ATOM     30  C   UNL     1      -1.785  12.187  21.287  0.00  0.00    +0.000 C 
ATOM     31  C   UNL     1      -0.896  11.385  22.213  0.00  0.00    +0.000 C 
ATOM     32  O   UNL     1      -1.085  11.221  23.410  0.00  0.00    +0.000 OA
ENDBRANCH  21  22
ENDBRANCH  20  21
ENDBRANCH   6  20
TORSDOF 6
ENDMDL
MODEL 5
REMARK VINA RESULT:      -8.2      2.509      3.882
REMARK  Name = 
REMARK  8 active torsions:
REMARK  status: ('A' for Active; 'I' for Inactive)
REMARK    1  A    between atoms: C_1  and  O_2
REMARK    2  A    between atoms: O_2  and  C_3
REMARK    3  A    between atoms: C_6  and  C_7
REMARK    4  A    between atoms: C_12  and  C_14
REMARK    5  A    between atoms: C_14  and  C_15
REMARK    6  A    between atoms: C_15  and  N_16
REMARK    7  A    between atoms: C_29  and  O_30
REMARK    8  A    between atoms: O_30  and  C_31
REMARK                            x       y       z     vdW  Elec       q    Type
REMARK                         _______ _______ _______ _____ _____    ______ ____
ROOT
ATOM      1  C   UNL     1       1.905   8.223  19.125  0.00  0.00    +0.000 A 
ATOM      2  C   UNL     1       1.918   9.163  18.109  0.00  0.00    +0.000 A 
ATOM      3  S   UNL     1       1.134  10.601  18.630  0.00  0.00    +0.000 S 
ATOM      4  C   UNL     1       0.769   9.838  20.113  0.00  0.00    +0.000 A 
ATOM      5  N   UNL     1       0.054  10.611  20.986  0.00  0.00    +0.000 N 
ATOM      6  C   UNL     1      -0.428  10.098  22.167  0.00  0.00    +0.000 C 
ATOM      7  O   UNL     1      -0.365   8.926  22.525  0.00  0.00    +0.000 OA
ATOM      8  N   UNL     1       1.214   8.617  20.260  0.00  0.00    +0.000 NA
ATOM      9  H   UNL     1      -0.122  11.565  20.713  0.00  0.00    +0.000 HD
ENDROOT
BRANCH   1  13
ATOM     10  C   UNL     1       3.520   4.267  18.796  0.00  0.00    +0.000 A 
ATOM     11  C   UNL     1       2.750   4.645  19.904  0.00  0.00    +0.000 A 
ATOM     12  C   UNL     1       2.229   5.936  20.011  0.00  0.00    +0.000 A 
ATOM     13  C   UNL     1       2.505   6.895  19.031  0.00  0.00    +0.000 A 
ATOM     14  C   UNL     1       3.357   6.540  17.979  0.00  0.00    +0.000 A 
ATOM     15  C   UNL     1       3.876   5.241  17.848  0.00  0.00    +0.000 A 
BRANCH  10  17
ATOM     16  C   UNL     1       3.081   2.104  17.952  0.00  0.00    +0.000 C 
ATOM     17  O   UNL     1       3.964   2.981  18.645  0.00  0.00    +0.000 OA
ENDBRANCH  10  17
BRANCH  15  18
ATOM     18  O   UNL     1       4.667   5.119  16.738  0.00  0.00    +0.000 OA
ATOM     19  C   UNL     1       6.069   4.973  16.898  0.00  0.00    +0.000 C 
ENDBRANCH  15  18
ENDBRANCH   1  13
BRANCH   6  20
ATOM     20  C   UNL     1      -1.134  11.139  23.031  0.00  0.00    +0.000 C 
BRANCH  20  21
ATOM     21  C   UNL     1      -1.429  12.356  22.162  0.00  0.00    +0.000 C 
BRANCH  21  22
ATOM     22  N   UNL     1      -2.761  12.419  21.584  0.00  0.00    +0.000 N 
ATOM     23  C   UNL     1      -3.899  12.577  22.318  0.00  0.00    +0.000 C 
ATOM     24  O   UNL     1      -4.003  12.434  23.529  0.00  0.00    +0.000 OA
ATOM     25  C   UNL     1      -5.008  13.038  21.404  0.00  0.00    +0.000 C 
ATOM     26  C   UNL     1      -6.347  12.361  21.683  0.00  0.00    +0.000 C 
ATOM     27  C   UNL     1      -6.881  11.492  20.592  0.00  0.00    +0.000 C 
ATOM     28  C   UNL     1      -6.357  11.416  19.367  0.00  0.00    +0.000 C 
ATOM     29  C   UNL     1      -5.163  12.188  18.914  0.00  0.00    +0.000 C 
ATOM     30  C   UNL     1      -4.400  12.933  20.002  0.00  0.00    +0.000 C 
ATOM     31  C   UNL     1      -3.009  12.388  20.246  0.00  0.00    +0.000 C 
ATOM     32  O   UNL     1      -2.220  12.046  19.377  0.00  0.00    +0.000 OA
ENDBRANCH  21  22
ENDBRANCH  20  21
ENDBRANCH   6  20
TORSDOF 6
ENDMDL
MODEL 6
REMARK VINA RESULT:      -8.1      2.696      4.009
REMARK  Name = 
REMARK  8 active torsions:
REMARK  status: ('A' for Active; 'I' for Inactive)
REMARK    1  A    between atoms: C_1  and  O_2
REMARK    2  A    between atoms: O_2  and  C_3
REMARK    3  A    between atoms: C_6  and  C_7
REMARK    4  A    between atoms: C_12  and  C_14
REMARK    5  A    between atoms: C_14  and  C_15
REMARK    6  A    between atoms: C_15  and  N_16
REMARK    7  A    between atoms: C_29  and  O_30
REMARK    8  A    between atoms: O_30  and  C_31
REMARK                            x       y       z     vdW  Elec       q    Type
REMARK                         _______ _______ _______ _____ _____    ______ ____
ROOT
ATOM      1  C   UNL     1       2.029   8.631  18.629  0.00  0.00    +0.000 A 
ATOM      2  C   UNL     1       2.010   9.789  17.870  0.00  0.00    +0.000 A 
ATOM      3  S   UNL     1       1.201  11.038  18.728  0.00  0.00    +0.000 S 
ATOM      4  C   UNL     1       0.871   9.932  19.985  0.00  0.00    +0.000 A 
ATOM      5  N   UNL     1       0.149  10.454  21.023  0.00  0.00    +0.000 N 
ATOM      6  C   UNL     1      -0.308   9.660  22.048  0.00  0.00    +0.000 C 
ATOM      7  O   UNL     1      -0.215   8.437  22.112  0.00  0.00    +0.000 OA
ATOM      8  N   UNL     1       1.344   8.723  19.830  0.00  0.00    +0.000 NA
ATOM      9  H   UNL     1      -0.051  11.441  20.990  0.00  0.00    +0.000 HD
ENDROOT
BRANCH   1  13
ATOM     10  C   UNL     1       3.985   4.982  17.520  0.00  0.00    +0.000 A 
ATOM     11  C   UNL     1       4.453   6.223  17.065  0.00  0.00    +0.000 A 
ATOM     12  C   UNL     1       3.811   7.409  17.424  0.00  0.00    +0.000 A 
ATOM     13  C   UNL     1       2.657   7.380  18.213  0.00  0.00    +0.000 A 
ATOM     14  C   UNL     1       2.138   6.133  18.580  0.00  0.00    +0.000 A 
ATOM     15  C   UNL     1       2.780   4.931  18.241  0.00  0.00    +0.000 A 
BRANCH  10  17
ATOM     16  C   UNL     1       5.506   3.866  16.096  0.00  0.00    +0.000 C 
ATOM     17  O   UNL     1       4.657   3.823  17.240  0.00  0.00    +0.000 OA
ENDBRANCH  10  17
BRANCH  15  18
ATOM     18  O   UNL     1       2.105   3.841  18.720  0.00  0.00    +0.000 OA
ATOM     19  C   UNL     1       2.472   3.294  19.977  0.00  0.00    +0.000 C 
ENDBRANCH  15  18
ENDBRANCH   1  13
BRANCH   6  20
ATOM     20  C   UNL     1      -1.025  10.443  23.143  0.00  0.00    +0.000 C 
BRANCH  20  21
ATOM     21  C   UNL     1      -1.177  11.885  22.673  0.00  0.00    +0.000 C 
BRANCH  21  22
ATOM     22  N   UNL     1      -2.498  12.268  22.204  0.00  0.00    +0.000 N 
ATOM     23  C   UNL     1      -3.543  12.553  23.032  0.00  0.00    +0.000 C 
ATOM     24  O   UNL     1      -3.610  12.291  24.225  0.00  0.00    +0.000 OA
ATOM     25  C   UNL     1      -4.585  13.321  22.255  0.00  0.00    +0.000 C 
ATOM     26  C   UNL     1      -6.015  12.882  22.559  0.00  0.00    +0.000 C 
ATOM     27  C   UNL     1      -6.766  12.266  21.426  0.00  0.00    +0.000 C 
ATOM     28  C   UNL     1      -6.331  12.235  20.163  0.00  0.00    +0.000 C 
ATOM     29  C   UNL     1      -5.033  12.814  19.708  0.00  0.00    +0.000 C 
ATOM     30  C   UNL     1      -4.083  13.267  20.809  0.00  0.00    +0.000 C 
ATOM     31  C   UNL     1      -2.816  12.442  20.891  0.00  0.00    +0.000 C 
ATOM     32  O   UNL     1      -2.156  12.061  19.936  0.00  0.00    +0.000 OA
ENDBRANCH  21  22
ENDBRANCH  20  21
ENDBRANCH   6  20
TORSDOF 6
ENDMDL
MODEL 7
REMARK VINA RESULT:      -8.0      3.062      4.558
REMARK  Name = 
REMARK  8 active torsions:
REMARK  status: ('A' for Active; 'I' for Inactive)
REMARK    1  A    between atoms: C_1  and  O_2
REMARK    2  A    between atoms: O_2  and  C_3
REMARK    3  A    between atoms: C_6  and  C_7
REMARK    4  A    between atoms: C_12  and  C_14
REMARK    5  A    between atoms: C_14  and  C_15
REMARK    6  A    between atoms: C_15  and  N_16
REMARK    7  A    between atoms: C_29  and  O_30
REMARK    8  A    between atoms: O_30  and  C_31
REMARK                            x       y       z     vdW  Elec       q    Type
REMARK                         _______ _______ _______ _____ _____    ______ ____
ROOT
ATOM      1  C   UNL     1       2.148   7.898  18.847  0.00  0.00    +0.000 A 
ATOM      2  C   UNL     1       2.479   8.683  17.756  0.00  0.00    +0.000 A 
ATOM      3  S   UNL     1       1.841  10.265  17.956  0.00  0.00    +0.000 S 
ATOM      4  C   UNL     1       1.113   9.763  19.416  0.00  0.00    +0.000 A 
ATOM      5  N   UNL     1       0.380  10.732  20.046  0.00  0.00    +0.000 N 
ATOM      6  C   UNL     1      -0.372  10.449  21.161  0.00  0.00    +0.000 C 
ATOM      7  O   UNL     1      -0.549   9.337  21.651  0.00  0.00    +0.000 OA
ATOM      8  N   UNL     1       1.337   8.527  19.778  0.00  0.00    +0.000 NA
ATOM      9  H   UNL     1       0.399  11.654  19.641  0.00  0.00    +0.000 HD
ENDROOT
BRANCH   1  13
ATOM     10  C   UNL     1       3.475   3.857  19.375  0.00  0.00    +0.000 A 
ATOM     11  C   UNL     1       3.724   4.552  18.183  0.00  0.00    +0.000 A 
ATOM     12  C   UNL     1       3.286   5.866  18.013  0.00  0.00    +0.000 A 
ATOM     13  C   UNL     1       2.549   6.504  19.015  0.00  0.00    +0.000 A 
ATOM     14  C   UNL     1       2.218   5.771  20.161  0.00  0.00    +0.000 A 
ATOM     15  C   UNL     1       2.664   4.454  20.356  0.00  0.00    +0.000 A 
BRANCH  10  17
ATOM     16  C   UNL     1       3.626   1.632  18.593  0.00  0.00    +0.000 C 
ATOM     17  O   UNL     1       3.972   2.599  19.581  0.00  0.00    +0.000 OA
ENDBRANCH  10  17
BRANCH  15  18
ATOM     18  O   UNL     1       2.237   3.943  21.551  0.00  0.00    +0.000 OA
ATOM     19  C   UNL     1       1.424   2.779  21.558  0.00  0.00    +0.000 C 
ENDBRANCH  15  18
ENDBRANCH   1  13
BRANCH   6  20
ATOM     20  C   UNL     1      -1.053  11.678  21.755  0.00  0.00    +0.000 C 
BRANCH  20  21
ATOM     21  C   UNL     1      -1.354  12.649  20.619  0.00  0.00    +0.000 C 
BRANCH  21  22
ATOM     22  N   UNL     1      -2.649  12.499  19.978  0.00  0.00    +0.000 N 
ATOM     23  C   UNL     1      -2.845  11.808  18.819  0.00  0.00    +0.000 C 
ATOM     24  O   UNL     1      -1.975  11.449  18.037  0.00  0.00    +0.000 OA
ATOM     25  C   UNL     1      -4.314  11.483  18.688  0.00  0.00    +0.000 C 
ATOM     26  C   UNL     1      -4.852  11.665  17.271  0.00  0.00    +0.000 C 
ATOM     27  C   UNL     1      -5.883  12.730  17.095  0.00  0.00    +0.000 C 
ATOM     28  C   UNL     1      -6.462  13.391  18.100  0.00  0.00    +0.000 C 
ATOM     29  C   UNL     1      -6.161  13.157  19.543  0.00  0.00    +0.000 C 
ATOM     30  C   UNL     1      -4.968  12.256  19.837  0.00  0.00    +0.000 C 
ATOM     31  C   UNL     1      -3.813  12.979  20.496  0.00  0.00    +0.000 C 
ATOM     32  O   UNL     1      -3.913  13.803  21.394  0.00  0.00    +0.000 OA
ENDBRANCH  21  22
ENDBRANCH  20  21
ENDBRANCH   6  20
TORSDOF 6
ENDMDL
MODEL 8
REMARK VINA RESULT:      -8.0      1.404      2.385
REMARK  Name = 
REMARK  8 active torsions:
REMARK  status: ('A' for Active; 'I' for Inactive)
REMARK    1  A    between atoms: C_1  and  O_2
REMARK    2  A    between atoms: O_2  and  C_3
REMARK    3  A    between atoms: C_6  and  C_7
REMARK    4  A    between atoms: C_12  and  C_14
REMARK    5  A    between atoms: C_14  and  C_15
REMARK    6  A    between atoms: C_15  and  N_16
REMARK    7  A    between atoms: C_29  and  O_30
REMARK    8  A    between atoms: O_30  and  C_31
REMARK                            x       y       z     vdW  Elec       q    Type
REMARK                         _______ _______ _______ _____ _____    ______ ____
ROOT
ATOM      1  C   UNL     1       3.896   5.107  18.808  0.00  0.00    +0.000 A 
ATOM      2  C   UNL     1       3.672   4.068  19.695  0.00  0.00    +0.000 A 
ATOM      3  S   UNL     1       2.439   4.505  20.810  0.00  0.00    +0.000 S 
ATOM      4  C   UNL     1       2.364   6.050  20.088  0.00  0.00    +0.000 A 
ATOM      5  N   UNL     1       1.465   6.902  20.667  0.00  0.00    +0.000 N 
ATOM      6  C   UNL     1       1.379   8.220  20.285  0.00  0.00    +0.000 C 
ATOM      7  O   UNL     1       2.119   8.792  19.490  0.00  0.00    +0.000 OA
ATOM      8  N   UNL     1       3.157   6.250  19.067  0.00  0.00    +0.000 NA
ATOM      9  H   UNL     1       0.885   6.525  21.400  0.00  0.00    +0.000 HD
ENDROOT
BRANCH   1  13
ATOM     10  C   UNL     1       6.619   5.052  15.499  0.00  0.00    +0.000 A 
ATOM     11  C   UNL     1       5.637   4.063  15.645  0.00  0.00    +0.000 A 
ATOM     12  C   UNL     1       4.755   4.081  16.727  0.00  0.00    +0.000 A 
ATOM     13  C   UNL     1       4.863   5.066  17.714  0.00  0.00    +0.000 A 
ATOM     14  C   UNL     1       5.908   5.991  17.613  0.00  0.00    +0.000 A 
ATOM     15  C   UNL     1       6.794   5.997  16.524  0.00  0.00    +0.000 A 
BRANCH  10  17
ATOM     16  C   UNL     1       6.947   4.395  13.252  0.00  0.00    +0.000 C 
ATOM     17  O   UNL     1       7.433   5.087  14.399  0.00  0.00    +0.000 OA
ENDBRANCH  10  17
BRANCH  15  18
ATOM     18  O   UNL     1       7.721   6.998  16.627  0.00  0.00    +0.000 OA
ATOM     19  C   UNL     1       7.715   7.834  17.774  0.00  0.00    +0.000 C 
ENDBRANCH  15  18
ENDBRANCH   1  13
BRANCH   6  20
ATOM     20  C   UNL     1       0.265   8.981  20.996  0.00  0.00    +0.000 C 
BRANCH  20  21
ATOM     21  C   UNL     1       0.533  10.473  20.838  0.00  0.00    +0.000 C 
BRANCH  21  22
ATOM     22  N   UNL     1      -0.545  11.361  21.242  0.00  0.00    +0.000 N 
ATOM     23  C   UNL     1      -1.205  12.190  20.385  0.00  0.00    +0.000 C 
ATOM     24  O   UNL     1      -0.843  12.499  19.258  0.00  0.00    +0.000 OA
ATOM     25  C   UNL     1      -2.507  12.612  21.021  0.00  0.00    +0.000 C 
ATOM     26  C   UNL     1      -2.837  14.088  20.811  0.00  0.00    +0.000 C 
ATOM     27  C   UNL     1      -2.875  14.932  22.042  0.00  0.00    +0.000 C 
ATOM     28  C   UNL     1      -2.810  14.451  23.286  0.00  0.00    +0.000 C 
ATOM     29  C   UNL     1      -2.690  13.003  23.622  0.00  0.00    +0.000 C 
ATOM     30  C   UNL     1      -2.415  12.068  22.450  0.00  0.00    +0.000 C 
ATOM     31  C   UNL     1      -1.051  11.414  22.506  0.00  0.00    +0.000 C 
ATOM     32  O   UNL     1      -0.528  10.950  23.508  0.00  0.00    +0.000 OA
ENDBRANCH  21  22
ENDBRANCH  20  21
ENDBRANCH   6  20
TORSDOF 6
ENDMDL
MODEL 9
REMARK VINA RESULT:      -8.0      2.175      2.908
REMARK  Name = 
REMARK  8 active torsions:
REMARK  status: ('A' for Active; 'I' for Inactive)
REMARK    1  A    between atoms: C_1  and  O_2
REMARK    2  A    between atoms: O_2  and  C_3
REMARK    3  A    between atoms: C_6  and  C_7
REMARK    4  A    between atoms: C_12  and  C_14
REMARK    5  A    between atoms: C_14  and  C_15
REMARK    6  A    between atoms: C_15  and  N_16
REMARK    7  A    between atoms: C_29  and  O_30
REMARK    8  A    between atoms: O_30  and  C_31
REMARK                            x       y       z     vdW  Elec       q    Type
REMARK                         _______ _______ _______ _____ _____    ______ ____
ROOT
ATOM      1  C   UNL     1       3.154   6.485  18.698  0.00  0.00    +0.000 A 
ATOM      2  C   UNL     1       2.666   5.965  19.885  0.00  0.00    +0.000 A 
ATOM      3  S   UNL     1       1.542   7.060  20.585  0.00  0.00    +0.000 S 
ATOM      4  C   UNL     1       1.854   8.159  19.317  0.00  0.00    +0.000 A 
ATOM      5  N   UNL     1       1.166   9.337  19.406  0.00  0.00    +0.000 N 
ATOM      6  C   UNL     1       1.405  10.374  18.536  0.00  0.00    +0.000 C 
ATOM      7  O   UNL     1       2.281  10.409  17.677  0.00  0.00    +0.000 OA
ATOM      8  N   UNL     1       2.699   7.760  18.402  0.00  0.00    +0.000 NA
ATOM      9  H   UNL     1       0.493   9.418  20.152  0.00  0.00    +0.000 HD
ENDROOT
BRANCH   1  13
ATOM     10  C   UNL     1       5.879   4.535  16.025  0.00  0.00    +0.000 A 
ATOM     11  C   UNL     1       4.684   3.917  16.420  0.00  0.00    +0.000 A 
ATOM     12  C   UNL     1       3.802   4.553  17.295  0.00  0.00    +0.000 A 
ATOM     13  C   UNL     1       4.114   5.806  17.831  0.00  0.00    +0.000 A 
ATOM     14  C   UNL     1       5.353   6.373  17.510  0.00  0.00    +0.000 A 
ATOM     15  C   UNL     1       6.245   5.755  16.619  0.00  0.00    +0.000 A 
BRANCH  10  17
ATOM     16  C   UNL     1       6.238   3.967  13.759  0.00  0.00    +0.000 C 
ATOM     17  O   UNL     1       6.708   3.954  15.104  0.00  0.00    +0.000 OA
ENDBRANCH  10  17
BRANCH  15  18
ATOM     18  O   UNL     1       7.382   6.496  16.442  0.00  0.00    +0.000 OA
ATOM     19  C   UNL     1       7.734   7.471  17.411  0.00  0.00    +0.000 C 
ENDBRANCH  15  18
ENDBRANCH   1  13
BRANCH   6  20
ATOM     20  C   UNL     1       0.483  11.569  18.756  0.00  0.00    +0.000 C 
BRANCH  20  21
ATOM     21  C   UNL     1       0.964  12.318  19.994  0.00  0.00    +0.000 C 
BRANCH  21  22
ATOM     22  N   UNL     1      -0.053  12.630  20.984  0.00  0.00    +0.000 N 
ATOM     23  C   UNL     1      -0.578  11.714  21.846  0.00  0.00    +0.000 C 
ATOM     24  O   UNL     1      -0.481  10.498  21.754  0.00  0.00    +0.000 OA
ATOM     25  C   UNL     1      -1.243  12.444  22.988  0.00  0.00    +0.000 C 
ATOM     26  C   UNL     1      -2.578  11.834  23.406  0.00  0.00    +0.000 C 
ATOM     27  C   UNL     1      -3.783  12.690  23.199  0.00  0.00    +0.000 C 
ATOM     28  C   UNL     1      -3.739  13.977  22.843  0.00  0.00    +0.000 C 
ATOM     29  C   UNL     1      -2.480  14.740  22.602  0.00  0.00    +0.000 C 
ATOM     30  C   UNL     1      -1.199  13.915  22.563  0.00  0.00    +0.000 C 
ATOM     31  C   UNL     1      -0.543  13.883  21.199  0.00  0.00    +0.000 C 
ATOM     32  O   UNL     1      -0.416  14.841  20.451  0.00  0.00    +0.000 OA
ENDBRANCH  21  22
ENDBRANCH  20  21
ENDBRANCH   6  20
TORSDOF 6
ENDMDL
