MODEL 1
REMARK VINA RESULT:      -6.6      0.000      0.000
REMARK  Name = 
REMARK  11 active torsions:
REMARK  status: ('A' for Active; 'I' for Inactive)
REMARK    1  A    between atoms: C_1  and  O_2
REMARK    2  A    between atoms: O_2  and  C_3
REMARK    3  A    between atoms: C_7  and  N_8
REMARK    4  A    between atoms: C_11  and  S_12
REMARK    5  A    between atoms: S_12  and  C_13
REMARK    6  A    between atoms: C_13  and  C_14
REMARK    7  A    between atoms: C_14  and  O_15
REMARK    8  A    between atoms: C_16  and  S_17
REMARK    9  A    between atoms: S_17  and  C_18
REMARK   10  A    between atoms: C_18  and  C_19
REMARK   11  A    between atoms: C_19  and  O_20
REMARK                            x       y       z     vdW  Elec       q    Type
REMARK                         _______ _______ _______ _____ _____    ______ ____
ROOT
ATOM      1  N   UNL     1       3.048   6.530  17.984  0.00  0.00    +0.000 N 
ATOM      2  C   UNL     1       2.619   5.224  18.054  0.00  0.00    +0.000 C 
ATOM      3  O   UNL     1       1.566   4.776  18.453  0.00  0.00    +0.000 OA
ATOM      4  C   UNL     1       3.725   4.388  17.513  0.00  0.00    +0.000 C 
ATOM      5  C   UNL     1       4.718   5.193  17.133  0.00  0.00    +0.000 C 
ATOM      6  C   UNL     1       4.316   6.582  17.459  0.00  0.00    +0.000 C 
ATOM      7  O   UNL     1       5.062   7.536  17.306  0.00  0.00    +0.000 OA
ENDROOT
BRANCH   1  12
ATOM      8  C   UNL     1       1.295   8.774  20.405  0.00  0.00    +0.000 A 
ATOM      9  C   UNL     1       0.789   9.745  19.542  0.00  0.00    +0.000 A 
ATOM     10  C   UNL     1       1.061   9.682  18.177  0.00  0.00    +0.000 A 
ATOM     11  C   UNL     1       1.861   8.655  17.673  0.00  0.00    +0.000 A 
ATOM     12  C   UNL     1       2.351   7.650  18.511  0.00  0.00    +0.000 A 
ATOM     13  C   UNL     1       2.066   7.733  19.883  0.00  0.00    +0.000 A 
BRANCH   8  15
ATOM     14  C   UNL     1      -0.419   8.640  22.046  0.00  0.00    +0.000 C 
ATOM     15  O   UNL     1       0.943   8.909  21.720  0.00  0.00    +0.000 OA
ENDBRANCH   8  15
ENDBRANCH   1  12
BRANCH   4  16
ATOM     16  S   UNL     1       3.544   2.705  17.284  0.00  0.00    +0.000 S 
BRANCH  16  17
ATOM     17  C   UNL     1       3.297   1.998  18.955  0.00  0.00    +0.000 C 
BRANCH  17  18
ATOM     18  C   UNL     1       4.413   2.576  19.841  0.00  0.00    +0.000 C 
BRANCH  18  19
ATOM     19  O   UNL     1       5.272   1.543  20.320  0.00  0.00    +0.000 OA
ATOM     20  H   UNL     1       5.880   1.964  20.954  0.00  0.00    +0.000 HD
ENDBRANCH  18  19
ENDBRANCH  17  18
ENDBRANCH  16  17
ENDBRANCH   4  16
BRANCH   5  21
ATOM     21  S   UNL     1       6.295   4.833  16.559  0.00  0.00    +0.000 S 
BRANCH  21  22
ATOM     22  C   UNL     1       7.296   4.550  18.060  0.00  0.00    +0.000 C 
BRANCH  22  23
ATOM     23  C   UNL     1       7.605   5.802  18.872  0.00  0.00    +0.000 C 
BRANCH  23  24
ATOM     24  O   UNL     1       7.850   5.488  20.236  0.00  0.00    +0.000 OA
ATOM     25  H   UNL     1       8.344   4.643  20.250  0.00  0.00    +0.000 HD
ENDBRANCH  23  24
ENDBRANCH  22  23
ENDBRANCH  21  22
ENDBRANCH   5  21
TORSDOF 10
ENDMDL
MODEL 2
REMARK VINA RESULT:      -6.4      1.884      2.112
REMARK  Name = 
REMARK  11 active torsions:
REMARK  status: ('A' for Active; 'I' for Inactive)
REMARK    1  A    between atoms: C_1  and  O_2
REMARK    2  A    between atoms: O_2  and  C_3
REMARK    3  A    between atoms: C_7  and  N_8
REMARK    4  A    between atoms: C_11  and  S_12
REMARK    5  A    between atoms: S_12  and  C_13
REMARK    6  A    between atoms: C_13  and  C_14
REMARK    7  A    between atoms: C_14  and  O_15
REMARK    8  A    between atoms: C_16  and  S_17
REMARK    9  A    between atoms: S_17  and  C_18
REMARK   10  A    between atoms: C_18  and  C_19
REMARK   11  A    between atoms: C_19  and  O_20
REMARK                            x       y       z     vdW  Elec       q    Type
REMARK                         _______ _______ _______ _____ _____    ______ ____
ROOT
ATOM      1  N   UNL     1       3.134   6.397  18.824  0.00  0.00    +0.000 N 
ATOM      2  C   UNL     1       2.931   5.232  19.528  0.00  0.00    +0.000 C 
ATOM      3  O   UNL     1       2.038   4.935  20.292  0.00  0.00    +0.000 OA
ATOM      4  C   UNL     1       4.053   4.322  19.169  0.00  0.00    +0.000 C 
ATOM      5  C   UNL     1       4.835   4.942  18.284  0.00  0.00    +0.000 C 
ATOM      6  C   UNL     1       4.278   6.299  18.071  0.00  0.00    +0.000 C 
ATOM      7  O   UNL     1       4.832   7.136  17.375  0.00  0.00    +0.000 OA
ENDROOT
BRANCH   1  12
ATOM      8  C   UNL     1       1.019   9.070  20.358  0.00  0.00    +0.000 A 
ATOM      9  C   UNL     1       0.661   9.801  19.228  0.00  0.00    +0.000 A 
ATOM     10  C   UNL     1       1.150   9.441  17.973  0.00  0.00    +0.000 A 
ATOM     11  C   UNL     1       2.019   8.355  17.851  0.00  0.00    +0.000 A 
ATOM     12  C   UNL     1       2.364   7.582  18.964  0.00  0.00    +0.000 A 
ATOM     13  C   UNL     1       1.861   7.965  20.218  0.00  0.00    +0.000 A 
BRANCH   8  15
ATOM     14  C   UNL     1      -0.299  10.693  21.488  0.00  0.00    +0.000 C 
ATOM     15  O   UNL     1       0.459   9.487  21.535  0.00  0.00    +0.000 OA
ENDBRANCH   8  15
ENDBRANCH   1  12
BRANCH   4  16
ATOM     16  S   UNL     1       4.104   2.706  19.717  0.00  0.00    +0.000 S 
BRANCH  16  17
ATOM     17  C   UNL     1       3.544   1.683  18.305  0.00  0.00    +0.000 C 
BRANCH  17  18
ATOM     18  C   UNL     1       2.148   2.198  17.920  0.00  0.00    +0.000 C 
BRANCH  18  19
ATOM     19  O   UNL     1       1.267   2.170  19.041  0.00  0.00    +0.000 OA
ATOM     20  H   UNL     1       0.441   1.757  18.730  0.00  0.00    +0.000 HD
ENDBRANCH  18  19
ENDBRANCH  17  18
ENDBRANCH  16  17
ENDBRANCH   4  16
BRANCH   5  21
ATOM     21  S   UNL     1       6.337   4.477  17.596  0.00  0.00    +0.000 S 
BRANCH  21  22
ATOM     22  C   UNL     1       5.939   3.954  15.892  0.00  0.00    +0.000 C 
BRANCH  22  23
ATOM     23  C   UNL     1       6.774   4.618  14.804  0.00  0.00    +0.000 C 
BRANCH  23  24
ATOM     24  O   UNL     1       7.524   5.709  15.318  0.00  0.00    +0.000 OA
ATOM     25  H   UNL     1       8.265   5.864  14.697  0.00  0.00    +0.000 HD
ENDBRANCH  23  24
ENDBRANCH  22  23
ENDBRANCH  21  22
ENDBRANCH   5  21
TORSDOF 10
ENDMDL
MODEL 3
REMARK VINA RESULT:      -6.4      1.387      1.483
REMARK  Name = 
REMARK  11 active torsions:
REMARK  status: ('A' for Active; 'I' for Inactive)
REMARK    1  A    between atoms: C_1  and  O_2
REMARK    2  A    between atoms: O_2  and  C_3
REMARK    3  A    between atoms: C_7  and  N_8
REMARK    4  A    between atoms: C_11  and  S_12
REMARK    5  A    between atoms: S_12  and  C_13
REMARK    6  A    between atoms: C_13  and  C_14
REMARK    7  A    between atoms: C_14  and  O_15
REMARK    8  A    between atoms: C_16  and  S_17
REMARK    9  A    between atoms: S_17  and  C_18
REMARK   10  A    between atoms: C_18  and  C_19
REMARK   11  A    between atoms: C_19  and  O_20
REMARK                            x       y       z     vdW  Elec       q    Type
REMARK                         _______ _______ _______ _____ _____    ______ ____
ROOT
ATOM      1  N   UNL     1       3.180   6.455  18.587  0.00  0.00    +0.000 N 
ATOM      2  C   UNL     1       3.144   5.322  19.367  0.00  0.00    +0.000 C 
ATOM      3  O   UNL     1       2.413   5.043  20.293  0.00  0.00    +0.000 OA
ATOM      4  C   UNL     1       4.210   4.421  18.852  0.00  0.00    +0.000 C 
ATOM      5  C   UNL     1       4.800   5.013  17.813  0.00  0.00    +0.000 C 
ATOM      6  C   UNL     1       4.172   6.346  17.644  0.00  0.00    +0.000 C 
ATOM      7  O   UNL     1       4.566   7.159  16.823  0.00  0.00    +0.000 OA
ENDROOT
BRANCH   1  12
ATOM      8  C   UNL     1       1.000   8.973  20.283  0.00  0.00    +0.000 A 
ATOM      9  C   UNL     1       0.713   9.828  19.221  0.00  0.00    +0.000 A 
ATOM     10  C   UNL     1       1.270   9.599  17.964  0.00  0.00    +0.000 A 
ATOM     11  C   UNL     1       2.136   8.521  17.772  0.00  0.00    +0.000 A 
ATOM     12  C   UNL     1       2.412   7.628  18.812  0.00  0.00    +0.000 A 
ATOM     13  C   UNL     1       1.841   7.879  20.070  0.00  0.00    +0.000 A 
BRANCH   8  15
ATOM     14  C   UNL     1       1.203   9.315  22.626  0.00  0.00    +0.000 C 
ATOM     15  O   UNL     1       0.377   9.268  21.465  0.00  0.00    +0.000 OA
ENDBRANCH   8  15
ENDBRANCH   1  12
BRANCH   4  16
ATOM     16  S   UNL     1       4.408   2.834  19.452  0.00  0.00    +0.000 S 
BRANCH  16  17
ATOM     17  C   UNL     1       3.264   1.786  18.480  0.00  0.00    +0.000 C 
BRANCH  17  18
ATOM     18  C   UNL     1       1.892   1.888  19.166  0.00  0.00    +0.000 C 
BRANCH  18  19
ATOM     19  O   UNL     1       1.047   2.812  18.483  0.00  0.00    +0.000 OA
ATOM     20  H   UNL     1       0.143   2.451  18.541  0.00  0.00    +0.000 HD
ENDBRANCH  18  19
ENDBRANCH  17  18
ENDBRANCH  16  17
ENDBRANCH   4  16
BRANCH   5  21
ATOM     21  S   UNL     1       6.167   4.548  16.885  0.00  0.00    +0.000 S 
BRANCH  21  22
ATOM     22  C   UNL     1       7.583   4.661  18.032  0.00  0.00    +0.000 C 
BRANCH  22  23
ATOM     23  C   UNL     1       7.570   5.875  18.952  0.00  0.00    +0.000 C 
BRANCH  23  24
ATOM     24  O   UNL     1       7.811   5.506  20.302  0.00  0.00    +0.000 OA
ATOM     25  H   UNL     1       8.359   6.214  20.699  0.00  0.00    +0.000 HD
ENDBRANCH  23  24
ENDBRANCH  22  23
ENDBRANCH  21  22
ENDBRANCH   5  21
TORSDOF 10
ENDMDL
MODEL 4
REMARK VINA RESULT:      -6.2      1.692      2.132
REMARK  Name = 
REMARK  11 active torsions:
REMARK  status: ('A' for Active; 'I' for Inactive)
REMARK    1  A    between atoms: C_1  and  O_2
REMARK    2  A    between atoms: O_2  and  C_3
REMARK    3  A    between atoms: C_7  and  N_8
REMARK    4  A    between atoms: C_11  and  S_12
REMARK    5  A    between atoms: S_12  and  C_13
REMARK    6  A    between atoms: C_13  and  C_14
REMARK    7  A    between atoms: C_14  and  O_15
REMARK    8  A    between atoms: C_16  and  S_17
REMARK    9  A    between atoms: S_17  and  C_18
REMARK   10  A    between atoms: C_18  and  C_19
REMARK   11  A    between atoms: C_19  and  O_20
REMARK                            x       y       z     vdW  Elec       q    Type
REMARK                         _______ _______ _______ _____ _____    ______ ____
ROOT
ATOM      1  N   UNL     1       2.750   6.208  18.172  0.00  0.00    +0.000 N 
ATOM      2  C   UNL     1       2.188   4.957  18.279  0.00  0.00    +0.000 C 
ATOM      3  O   UNL     1       1.131   4.623  18.769  0.00  0.00    +0.000 OA
ATOM      4  C   UNL     1       3.142   4.010  17.642  0.00  0.00    +0.000 C 
ATOM      5  C   UNL     1       4.181   4.705  17.176  0.00  0.00    +0.000 C 
ATOM      6  C   UNL     1       3.965   6.126  17.537  0.00  0.00    +0.000 C 
ATOM      7  O   UNL     1       4.795   6.994  17.320  0.00  0.00    +0.000 OA
ENDROOT
BRANCH   1  12
ATOM      8  C   UNL     1       1.421   8.587  20.730  0.00  0.00    +0.000 A 
ATOM      9  C   UNL     1       1.003   9.638  19.918  0.00  0.00    +0.000 A 
ATOM     10  C   UNL     1       1.197   9.581  18.538  0.00  0.00    +0.000 A 
ATOM     11  C   UNL     1       1.833   8.475  17.971  0.00  0.00    +0.000 A 
ATOM     12  C   UNL     1       2.229   7.392  18.760  0.00  0.00    +0.000 A 
ATOM     13  C   UNL     1       2.025   7.472  20.147  0.00  0.00    +0.000 A 
BRANCH   8  15
ATOM     14  C   UNL     1      -0.061   9.393  22.405  0.00  0.00    +0.000 C 
ATOM     15  O   UNL     1       1.154   8.728  22.065  0.00  0.00    +0.000 OA
ENDBRANCH   8  15
ENDBRANCH   1  12
BRANCH   4  16
ATOM     16  S   UNL     1       2.758   2.360  17.429  0.00  0.00    +0.000 S 
BRANCH  16  17
ATOM     17  C   UNL     1       3.949   1.432  18.465  0.00  0.00    +0.000 C 
BRANCH  17  18
ATOM     18  C   UNL     1       4.136   2.252  19.752  0.00  0.00    +0.000 C 
BRANCH  18  19
ATOM     19  O   UNL     1       5.253   1.778  20.502  0.00  0.00    +0.000 OA
ATOM     20  H   UNL     1       5.901   2.506  20.518  0.00  0.00    +0.000 HD
ENDBRANCH  18  19
ENDBRANCH  17  18
ENDBRANCH  16  17
ENDBRANCH   4  16
BRANCH   5  21
ATOM     21  S   UNL     1       5.652   4.180  16.465  0.00  0.00    +0.000 S 
BRANCH  21  22
ATOM     22  C   UNL     1       5.689   4.960  14.814  0.00  0.00    +0.000 C 
BRANCH  22  23
ATOM     23  C   UNL     1       6.735   4.396  13.859  0.00  0.00    +0.000 C 
BRANCH  23  24
ATOM     24  O   UNL     1       6.307   3.169  13.286  0.00  0.00    +0.000 OA
ATOM     25  H   UNL     1       5.782   2.703  13.969  0.00  0.00    +0.000 HD
ENDBRANCH  23  24
ENDBRANCH  22  23
ENDBRANCH  21  22
ENDBRANCH   5  21
TORSDOF 10
ENDMDL
MODEL 5
REMARK VINA RESULT:      -6.2      1.910      3.808
REMARK  Name = 
REMARK  11 active torsions:
REMARK  status: ('A' for Active; 'I' for Inactive)
REMARK    1  A    between atoms: C_1  and  O_2
REMARK    2  A    between atoms: O_2  and  C_3
REMARK    3  A    between atoms: C_7  and  N_8
REMARK    4  A    between atoms: C_11  and  S_12
REMARK    5  A    between atoms: S_12  and  C_13
REMARK    6  A    between atoms: C_13  and  C_14
REMARK    7  A    between atoms: C_14  and  O_15
REMARK    8  A    between atoms: C_16  and  S_17
REMARK    9  A    between atoms: S_17  and  C_18
REMARK   10  A    between atoms: C_18  and  C_19
REMARK   11  A    between atoms: C_19  and  O_20
REMARK                            x       y       z     vdW  Elec       q    Type
REMARK                         _______ _______ _______ _____ _____    ______ ____
ROOT
ATOM      1  N   UNL     1       3.189   6.566  18.943  0.00  0.00    +0.000 N 
ATOM      2  C   UNL     1       4.285   6.426  18.123  0.00  0.00    +0.000 C 
ATOM      3  O   UNL     1       4.815   7.236  17.394  0.00  0.00    +0.000 OA
ATOM      4  C   UNL     1       4.762   5.026  18.293  0.00  0.00    +0.000 C 
ATOM      5  C   UNL     1       3.981   4.418  19.188  0.00  0.00    +0.000 C 
ATOM      6  C   UNL     1       2.935   5.386  19.597  0.00  0.00    +0.000 C 
ATOM      7  O   UNL     1       2.018   5.086  20.345  0.00  0.00    +0.000 OA
ENDROOT
BRANCH   1  12
ATOM      8  C   UNL     1       0.926   9.223  20.282  0.00  0.00    +0.000 A 
ATOM      9  C   UNL     1       0.516   9.837  19.100  0.00  0.00    +0.000 A 
ATOM     10  C   UNL     1       1.016   9.404  17.873  0.00  0.00    +0.000 A 
ATOM     11  C   UNL     1       1.948   8.366  17.828  0.00  0.00    +0.000 A 
ATOM     12  C   UNL     1       2.349   7.710  18.996  0.00  0.00    +0.000 A 
ATOM     13  C   UNL     1       1.834   8.164  20.221  0.00  0.00    +0.000 A 
BRANCH   8  15
ATOM     14  C   UNL     1      -0.438   8.780  22.177  0.00  0.00    +0.000 C 
ATOM     15  O   UNL     1       0.352   9.701  21.428  0.00  0.00    +0.000 OA
ENDBRANCH   8  15
ENDBRANCH   1  12
BRANCH   4  16
ATOM     16  S   UNL     1       6.202   4.476  17.559  0.00  0.00    +0.000 S 
BRANCH  16  17
ATOM     17  C   UNL     1       5.731   3.946  15.871  0.00  0.00    +0.000 C 
BRANCH  17  18
ATOM     18  C   UNL     1       6.104   5.105  14.932  0.00  0.00    +0.000 C 
BRANCH  18  19
ATOM     19  O   UNL     1       7.517   5.280  14.873  0.00  0.00    +0.000 OA
ATOM     20  H   UNL     1       7.681   6.234  14.994  0.00  0.00    +0.000 HD
ENDBRANCH  18  19
ENDBRANCH  17  18
ENDBRANCH  16  17
ENDBRANCH   4  16
BRANCH   5  21
ATOM     21  S   UNL     1       3.937   2.784  19.710  0.00  0.00    +0.000 S 
BRANCH  21  22
ATOM     22  C   UNL     1       2.895   1.920  18.485  0.00  0.00    +0.000 C 
BRANCH  22  23
ATOM     23  C   UNL     1       1.393   2.100  18.676  0.00  0.00    +0.000 C 
BRANCH  23  24
ATOM     24  O   UNL     1       0.918   3.252  17.995  0.00  0.00    +0.000 OA
ATOM     25  H   UNL     1       0.882   3.027  17.043  0.00  0.00    +0.000 HD
ENDBRANCH  23  24
ENDBRANCH  22  23
ENDBRANCH  21  22
ENDBRANCH   5  21
TORSDOF 10
ENDMDL
MODEL 6
REMARK VINA RESULT:      -6.2      1.635      1.715
REMARK  Name = 
REMARK  11 active torsions:
REMARK  status: ('A' for Active; 'I' for Inactive)
REMARK    1  A    between atoms: C_1  and  O_2
REMARK    2  A    between atoms: O_2  and  C_3
REMARK    3  A    between atoms: C_7  and  N_8
REMARK    4  A    between atoms: C_11  and  S_12
REMARK    5  A    between atoms: S_12  and  C_13
REMARK    6  A    between atoms: C_13  and  C_14
REMARK    7  A    between atoms: C_14  and  O_15
REMARK    8  A    between atoms: C_16  and  S_17
REMARK    9  A    between atoms: S_17  and  C_18
REMARK   10  A    between atoms: C_18  and  C_19
REMARK   11  A    between atoms: C_19  and  O_20
REMARK                            x       y       z     vdW  Elec       q    Type
REMARK                         _______ _______ _______ _____ _____    ______ ____
ROOT
ATOM      1  N   UNL     1       2.737   6.711  19.038  0.00  0.00    +0.000 N 
ATOM      2  C   UNL     1       2.494   5.608  19.824  0.00  0.00    +0.000 C 
ATOM      3  O   UNL     1       1.595   5.400  20.609  0.00  0.00    +0.000 OA
ATOM      4  C   UNL     1       3.580   4.634  19.529  0.00  0.00    +0.000 C 
ATOM      5  C   UNL     1       4.380   5.159  18.601  0.00  0.00    +0.000 C 
ATOM      6  C   UNL     1       3.873   6.517  18.292  0.00  0.00    +0.000 C 
ATOM      7  O   UNL     1       4.455   7.280  17.537  0.00  0.00    +0.000 OA
ENDROOT
BRANCH   1  12
ATOM      8  C   UNL     1       0.763   9.583  20.390  0.00  0.00    +0.000 A 
ATOM      9  C   UNL     1       0.395  10.225  19.210  0.00  0.00    +0.000 A 
ATOM     10  C   UNL     1       0.831   9.739  17.979  0.00  0.00    +0.000 A 
ATOM     11  C   UNL     1       1.658   8.615  17.928  0.00  0.00    +0.000 A 
ATOM     12  C   UNL     1       2.012   7.931  19.095  0.00  0.00    +0.000 A 
ATOM     13  C   UNL     1       1.563   8.440  20.324  0.00  0.00    +0.000 A 
BRANCH   8  15
ATOM     14  C   UNL     1       0.433   9.360  22.733  0.00  0.00    +0.000 C 
ATOM     15  O   UNL     1       0.256  10.122  21.541  0.00  0.00    +0.000 OA
ENDBRANCH   8  15
ENDBRANCH   1  12
BRANCH   4  16
ATOM     16  S   UNL     1       3.573   3.059  20.191  0.00  0.00    +0.000 S 
BRANCH  16  17
ATOM     17  C   UNL     1       2.238   2.158  19.320  0.00  0.00    +0.000 C 
BRANCH  17  18
ATOM     18  C   UNL     1       2.726   1.943  17.878  0.00  0.00    +0.000 C 
BRANCH  18  19
ATOM     19  O   UNL     1       4.051   1.416  17.861  0.00  0.00    +0.000 OA
ATOM     20  H   UNL     1       4.321   1.321  18.793  0.00  0.00    +0.000 HD
ENDBRANCH  18  19
ENDBRANCH  17  18
ENDBRANCH  16  17
ENDBRANCH   4  16
BRANCH   5  21
ATOM     21  S   UNL     1       5.860   4.590  17.945  0.00  0.00    +0.000 S 
BRANCH  21  22
ATOM     22  C   UNL     1       7.163   5.496  18.848  0.00  0.00    +0.000 C 
BRANCH  22  23
ATOM     23  C   UNL     1       7.743   6.695  18.109  0.00  0.00    +0.000 C 
BRANCH  23  24
ATOM     24  O   UNL     1       7.453   6.639  16.720  0.00  0.00    +0.000 OA
ATOM     25  H   UNL     1       7.089   7.512  16.468  0.00  0.00    +0.000 HD
ENDBRANCH  23  24
ENDBRANCH  22  23
ENDBRANCH  21  22
ENDBRANCH   5  21
TORSDOF 10
ENDMDL
MODEL 7
REMARK VINA RESULT:      -6.2      1.609      3.479
REMARK  Name = 
REMARK  11 active torsions:
REMARK  status: ('A' for Active; 'I' for Inactive)
REMARK    1  A    between atoms: C_1  and  O_2
REMARK    2  A    between atoms: O_2  and  C_3
REMARK    3  A    between atoms: C_7  and  N_8
REMARK    4  A    between atoms: C_11  and  S_12
REMARK    5  A    between atoms: S_12  and  C_13
REMARK    6  A    between atoms: C_13  and  C_14
REMARK    7  A    between atoms: C_14  and  O_15
REMARK    8  A    between atoms: C_16  and  S_17
REMARK    9  A    between atoms: S_17  and  C_18
REMARK   10  A    between atoms: C_18  and  C_19
REMARK   11  A    between atoms: C_19  and  O_20
REMARK                            x       y       z     vdW  Elec       q    Type
REMARK                         _______ _______ _______ _____ _____    ______ ____
ROOT
ATOM      1  N   UNL     1       3.033   6.237  18.263  0.00  0.00    +0.000 N 
ATOM      2  C   UNL     1       4.248   6.177  17.620  0.00  0.00    +0.000 C 
ATOM      3  O   UNL     1       5.033   7.064  17.366  0.00  0.00    +0.000 OA
ATOM      4  C   UNL     1       4.470   4.747  17.270  0.00  0.00    +0.000 C 
ATOM      5  C   UNL     1       3.436   4.035  17.721  0.00  0.00    +0.000 C 
ATOM      6  C   UNL     1       2.477   4.983  18.338  0.00  0.00    +0.000 C 
ATOM      7  O   UNL     1       1.387   4.632  18.762  0.00  0.00    +0.000 OA
ENDROOT
BRANCH   1  12
ATOM      8  C   UNL     1       1.326   8.781  20.404  0.00  0.00    +0.000 A 
ATOM      9  C   UNL     1       0.885   9.682  19.438  0.00  0.00    +0.000 A 
ATOM     10  C   UNL     1       1.187   9.474  18.093  0.00  0.00    +0.000 A 
ATOM     11  C   UNL     1       1.951   8.369  17.714  0.00  0.00    +0.000 A 
ATOM     12  C   UNL     1       2.375   7.431  18.660  0.00  0.00    +0.000 A 
ATOM     13  C   UNL     1       2.061   7.662  20.009  0.00  0.00    +0.000 A 
BRANCH   8  15
ATOM     14  C   UNL     1      -0.412   8.798  22.025  0.00  0.00    +0.000 C 
ATOM     15  O   UNL     1       0.949   9.059  21.690  0.00  0.00    +0.000 OA
ENDBRANCH   8  15
ENDBRANCH   1  12
BRANCH   4  16
ATOM     16  S   UNL     1       5.940   4.212  16.585  0.00  0.00    +0.000 S 
BRANCH  16  17
ATOM     17  C   UNL     1       6.027   4.982  14.926  0.00  0.00    +0.000 C 
BRANCH  17  18
ATOM     18  C   UNL     1       5.449   3.955  13.939  0.00  0.00    +0.000 C 
BRANCH  18  19
ATOM     19  O   UNL     1       6.482   3.367  13.151  0.00  0.00    +0.000 OA
ATOM     20  H   UNL     1       6.927   2.715  13.723  0.00  0.00    +0.000 HD
ENDBRANCH  18  19
ENDBRANCH  17  18
ENDBRANCH  16  17
ENDBRANCH   4  16
BRANCH   5  21
ATOM     21  S   UNL     1       3.046   2.376  17.520  0.00  0.00    +0.000 S 
BRANCH  21  22
ATOM     22  C   UNL     1       3.959   1.508  18.842  0.00  0.00    +0.000 C 
BRANCH  22  23
ATOM     23  C   UNL     1       4.201   2.329  20.103  0.00  0.00    +0.000 C 
BRANCH  23  24
ATOM     24  O   UNL     1       5.153   1.706  20.953  0.00  0.00    +0.000 OA
ATOM     25  H   UNL     1       4.679   1.443  21.768  0.00  0.00    +0.000 HD
ENDBRANCH  23  24
ENDBRANCH  22  23
ENDBRANCH  21  22
ENDBRANCH   5  21
TORSDOF 10
ENDMDL
MODEL 8
REMARK VINA RESULT:      -6.2      1.525      1.836
REMARK  Name = 
REMARK  11 active torsions:
REMARK  status: ('A' for Active; 'I' for Inactive)
REMARK    1  A    between atoms: C_1  and  O_2
REMARK    2  A    between atoms: O_2  and  C_3
REMARK    3  A    between atoms: C_7  and  N_8
REMARK    4  A    between atoms: C_11  and  S_12
REMARK    5  A    between atoms: S_12  and  C_13
REMARK    6  A    between atoms: C_13  and  C_14
REMARK    7  A    between atoms: C_14  and  O_15
REMARK    8  A    between atoms: C_16  and  S_17
REMARK    9  A    between atoms: S_17  and  C_18
REMARK   10  A    between atoms: C_18  and  C_19
REMARK   11  A    between atoms: C_19  and  O_20
REMARK                            x       y       z     vdW  Elec       q    Type
REMARK                         _______ _______ _______ _____ _____    ______ ____
ROOT
ATOM      1  N   UNL     1       2.986   6.339  18.230  0.00  0.00    +0.000 N 
ATOM      2  C   UNL     1       2.503   5.062  18.406  0.00  0.00    +0.000 C 
ATOM      3  O   UNL     1       1.423   4.693  18.815  0.00  0.00    +0.000 OA
ATOM      4  C   UNL     1       3.586   4.138  17.972  0.00  0.00    +0.000 C 
ATOM      5  C   UNL     1       4.620   4.867  17.548  0.00  0.00    +0.000 C 
ATOM      6  C   UNL     1       4.267   6.294  17.737  0.00  0.00    +0.000 C 
ATOM      7  O   UNL     1       5.055   7.201  17.519  0.00  0.00    +0.000 OA
ENDROOT
BRANCH   1  12
ATOM      8  C   UNL     1       1.226   8.839  20.380  0.00  0.00    +0.000 A 
ATOM      9  C   UNL     1       0.822   9.768  19.423  0.00  0.00    +0.000 A 
ATOM     10  C   UNL     1       1.166   9.593  18.084  0.00  0.00    +0.000 A 
ATOM     11  C   UNL     1       1.936   8.493  17.701  0.00  0.00    +0.000 A 
ATOM     12  C   UNL     1       2.323   7.528  18.635  0.00  0.00    +0.000 A 
ATOM     13  C   UNL     1       1.967   7.726  19.979  0.00  0.00    +0.000 A 
BRANCH   8  15
ATOM     14  C   UNL     1       0.160  10.336  21.887  0.00  0.00    +0.000 C 
ATOM     15  O   UNL     1       0.809   9.087  21.659  0.00  0.00    +0.000 OA
ENDBRANCH   8  15
ENDBRANCH   1  12
BRANCH   4  16
ATOM     16  S   UNL     1       3.343   2.450  17.891  0.00  0.00    +0.000 S 
BRANCH  16  17
ATOM     17  C   UNL     1       2.606   1.974  19.499  0.00  0.00    +0.000 C 
BRANCH  17  18
ATOM     18  C   UNL     1       3.576   2.468  20.585  0.00  0.00    +0.000 C 
BRANCH  18  19
ATOM     19  O   UNL     1       2.954   2.459  21.868  0.00  0.00    +0.000 OA
ATOM     20  H   UNL     1       2.099   2.915  21.761  0.00  0.00    +0.000 HD
ENDBRANCH  18  19
ENDBRANCH  17  18
ENDBRANCH  16  17
ENDBRANCH   4  16
BRANCH   5  21
ATOM     21  S   UNL     1       6.193   4.396  17.051  0.00  0.00    +0.000 S 
BRANCH  21  22
ATOM     22  C   UNL     1       6.001   3.831  15.326  0.00  0.00    +0.000 C 
BRANCH  22  23
ATOM     23  C   UNL     1       6.736   4.670  14.288  0.00  0.00    +0.000 C 
BRANCH  23  24
ATOM     24  O   UNL     1       7.671   5.549  14.899  0.00  0.00    +0.000 OA
ATOM     25  H   UNL     1       7.160   6.302  15.261  0.00  0.00    +0.000 HD
ENDBRANCH  23  24
ENDBRANCH  22  23
ENDBRANCH  21  22
ENDBRANCH   5  21
TORSDOF 10
ENDMDL
MODEL 9
REMARK VINA RESULT:      -6.1      1.980      3.965
REMARK  Name = 
REMARK  11 active torsions:
REMARK  status: ('A' for Active; 'I' for Inactive)
REMARK    1  A    between atoms: C_1  and  O_2
REMARK    2  A    between atoms: O_2  and  C_3
REMARK    3  A    between atoms: C_7  and  N_8
REMARK    4  A    between atoms: C_11  and  S_12
REMARK    5  A    between atoms: S_12  and  C_13
REMARK    6  A    between atoms: C_13  and  C_14
REMARK    7  A    between atoms: C_14  and  O_15
REMARK    8  A    between atoms: C_16  and  S_17
REMARK    9  A    between atoms: S_17  and  C_18
REMARK   10  A    between atoms: C_18  and  C_19
REMARK   11  A    between atoms: C_19  and  O_20
REMARK                            x       y       z     vdW  Elec       q    Type
REMARK                         _______ _______ _______ _____ _____    ______ ____
ROOT
ATOM      1  N   UNL     1       2.490   6.905  19.415  0.00  0.00    +0.000 N 
ATOM      2  C   UNL     1       3.264   6.844  18.279  0.00  0.00    +0.000 C 
ATOM      3  O   UNL     1       3.564   7.723  17.500  0.00  0.00    +0.000 OA
ATOM      4  C   UNL     1       3.719   5.433  18.154  0.00  0.00    +0.000 C 
ATOM      5  C   UNL     1       3.241   4.740  19.188  0.00  0.00    +0.000 C 
ATOM      6  C   UNL     1       2.414   5.664  20.000  0.00  0.00    +0.000 C 
ATOM      7  O   UNL     1       1.772   5.293  20.970  0.00  0.00    +0.000 OA
ENDROOT
BRANCH   1  12
ATOM      8  C   UNL     1       0.596   9.258  21.616  0.00  0.00    +0.000 A 
ATOM      9  C   UNL     1       0.111  10.163  20.675  0.00  0.00    +0.000 A 
ATOM     10  C   UNL     1       0.443  10.023  19.329  0.00  0.00    +0.000 A 
ATOM     11  C   UNL     1       1.282   8.983  18.923  0.00  0.00    +0.000 A 
ATOM     12  C   UNL     1       1.752   8.040  19.842  0.00  0.00    +0.000 A 
ATOM     13  C   UNL     1       1.406   8.202  21.193  0.00  0.00    +0.000 A 
BRANCH   8  15
ATOM     14  C   UNL     1      -0.858  10.420  23.095  0.00  0.00    +0.000 C 
ATOM     15  O   UNL     1       0.184   9.466  22.905  0.00  0.00    +0.000 OA
ENDBRANCH   8  15
ENDBRANCH   1  12
BRANCH   4  16
ATOM     16  S   UNL     1       4.831   4.955  16.949  0.00  0.00    +0.000 S 
BRANCH  16  17
ATOM     17  C   UNL     1       6.474   4.950  17.759  0.00  0.00    +0.000 C 
BRANCH  17  18
ATOM     18  C   UNL     1       7.263   6.120  17.150  0.00  0.00    +0.000 C 
BRANCH  18  19
ATOM     19  O   UNL     1       6.383   7.121  16.642  0.00  0.00    +0.000 OA
ATOM     20  H   UNL     1       6.628   7.255  15.709  0.00  0.00    +0.000 HD
ENDBRANCH  18  19
ENDBRANCH  17  18
ENDBRANCH  16  17
ENDBRANCH   4  16
BRANCH   5  21
ATOM     21  S   UNL     1       3.306   3.061  19.539  0.00  0.00    +0.000 S 
BRANCH  21  22
ATOM     22  C   UNL     1       2.089   2.292  18.416  0.00  0.00    +0.000 C 
BRANCH  22  23
ATOM     23  C   UNL     1       0.631   2.487  18.818  0.00  0.00    +0.000 C 
BRANCH  23  24
ATOM     24  O   UNL     1       0.511   2.822  20.193  0.00  0.00    +0.000 OA
ATOM     25  H   UNL     1       0.400   3.793  20.241  0.00  0.00    +0.000 HD
ENDBRANCH  23  24
ENDBRANCH  22  23
ENDBRANCH  21  22
ENDBRANCH   5  21
TORSDOF 10
ENDMDL
