MODEL 1
REMARK VINA RESULT:      -6.2      0.000      0.000
REMARK  Name = 
REMARK  6 active torsions:
REMARK  status: ('A' for Active; 'I' for Inactive)
REMARK    1  A    between atoms: C_4  and  S_5
REMARK    2  A    between atoms: N_7  and  C1*_8
REMARK    3  A    between atoms: C4*_10  and  C5*_11
REMARK    4  A    between atoms: C5*_11  and  O5*_12
REMARK    5  A    between atoms: C3*_13  and  O3*_14
REMARK    6  A    between atoms: C2*_15  and  O2*_16
REMARK                            x       y       z     vdW  Elec       q    Type
REMARK                         _______ _______ _______ _____ _____    ______ ____
ROOT
ATOM      1  C1* UNL     1       5.528   4.593  17.830  0.00  0.00    +0.000 C 
ATOM      2  O4* UNL     1       6.810   4.278  18.415  0.00  0.00    +0.000 OA
ATOM      3  C4* UNL     1       7.743   5.340  18.091  0.00  0.00    +0.000 C 
ATOM      4  C3* UNL     1       7.066   6.190  17.025  0.00  0.00    +0.000 C 
ATOM      5  C2* UNL     1       5.592   6.058  17.373  0.00  0.00    +0.000 C 
ENDROOT
BRANCH   1  11
ATOM      6  N   UNL     1       4.915   2.103  19.518  0.00  0.00    +0.000 NA
ATOM      7  C   UNL     1       4.258   3.204  19.485  0.00  0.00    +0.000 A 
ATOM      8  S   UNL     1       2.902   3.412  20.578  0.00  0.00    +0.000 S 
ATOM      9  C   UNL     1       2.759   5.036  19.950  0.00  0.00    +0.000 A 
ATOM     10  N   UNL     1       3.576   5.400  19.012  0.00  0.00    +0.000 NA
ATOM     11  N   UNL     1       4.417   4.336  18.732  0.00  0.00    +0.000 N 
ATOM     12  H   UNL     1       4.466   1.500  20.218  0.00  0.00    +0.000 HD
BRANCH   9  13
ATOM     13  S   UNL     1       1.552   6.084  20.609  0.00  0.00    +0.000 S 
ATOM     14  H   UNL     1       0.675   5.119  20.910  0.00  0.00    +0.000 HD
ENDBRANCH   9  13
ENDBRANCH   1  11
BRANCH   4  15
ATOM     15  O3* UNL     1       7.261   5.644  15.704  0.00  0.00    +0.000 OA
ATOM     16  H3* UNL     1       6.552   5.000  15.517  0.00  0.00    +0.000 HD
ENDBRANCH   4  15
BRANCH   5  17
ATOM     17  O2* UNL     1       4.776   6.363  16.242  0.00  0.00    +0.000 OA
ATOM     18  H2* UNL     1       3.937   6.724  16.600  0.00  0.00    +0.000 HD
ENDBRANCH   5  17
BRANCH   3  19
ATOM     19  C5* UNL     1       8.083   6.147  19.348  0.00  0.00    +0.000 C 
BRANCH  19  20
ATOM     20  O5* UNL     1       7.906   5.336  20.504  0.00  0.00    +0.000 OA
ATOM     21  H5* UNL     1       8.615   5.619  21.121  0.00  0.00    +0.000 HD
ENDBRANCH  19  20
ENDBRANCH   3  19
TORSDOF 6
ENDMDL
MODEL 2
REMARK VINA RESULT:      -6.1      3.739      5.409
REMARK  Name = 
REMARK  6 active torsions:
REMARK  status: ('A' for Active; 'I' for Inactive)
REMARK    1  A    between atoms: C_4  and  S_5
REMARK    2  A    between atoms: N_7  and  C1*_8
REMARK    3  A    between atoms: C4*_10  and  C5*_11
REMARK    4  A    between atoms: C5*_11  and  O5*_12
REMARK    5  A    between atoms: C3*_13  and  O3*_14
REMARK    6  A    between atoms: C2*_15  and  O2*_16
REMARK                            x       y       z     vdW  Elec       q    Type
REMARK                         _______ _______ _______ _____ _____    ______ ____
ROOT
ATOM      1  C1* UNL     1       2.783   3.771  17.788  0.00  0.00    +0.000 C 
ATOM      2  O4* UNL     1       1.810   4.450  18.611  0.00  0.00    +0.000 OA
ATOM      3  C4* UNL     1       1.623   3.690  19.832  0.00  0.00    +0.000 C 
ATOM      4  C3* UNL     1       2.303   2.347  19.606  0.00  0.00    +0.000 C 
ATOM      5  C2* UNL     1       3.446   2.702  18.667  0.00  0.00    +0.000 C 
ENDROOT
BRANCH   1  11
ATOM      6  N   UNL     1       3.308   6.737  18.383  0.00  0.00    +0.000 NA
ATOM      7  C   UNL     1       3.941   5.982  17.562  0.00  0.00    +0.000 A 
ATOM      8  S   UNL     1       5.340   6.631  16.724  0.00  0.00    +0.000 S 
ATOM      9  C   UNL     1       5.550   5.041  16.031  0.00  0.00    +0.000 A 
ATOM     10  N   UNL     1       4.683   4.127  16.331  0.00  0.00    +0.000 NA
ATOM     11  N   UNL     1       3.748   4.680  17.189  0.00  0.00    +0.000 N 
ATOM     12  H   UNL     1       3.767   7.656  18.370  0.00  0.00    +0.000 HD
BRANCH   9  13
ATOM     13  S   UNL     1       6.904   4.754  14.994  0.00  0.00    +0.000 S 
ATOM     14  H   UNL     1       7.555   3.939  15.832  0.00  0.00    +0.000 HD
ENDBRANCH   9  13
ENDBRANCH   1  11
BRANCH   4  15
ATOM     15  O3* UNL     1       1.436   1.419  18.920  0.00  0.00    +0.000 OA
ATOM     16  H3* UNL     1       1.751   1.308  18.003  0.00  0.00    +0.000 HD
ENDBRANCH   4  15
BRANCH   5  17
ATOM     17  O2* UNL     1       3.895   1.545  17.959  0.00  0.00    +0.000 OA
ATOM     18  H2* UNL     1       4.519   1.085  18.560  0.00  0.00    +0.000 HD
ENDBRANCH   5  17
BRANCH   3  19
ATOM     19  C5* UNL     1       2.217   4.449  21.023  0.00  0.00    +0.000 C 
BRANCH  19  20
ATOM     20  O5* UNL     1       2.045   5.850  20.837  0.00  0.00    +0.000 OA
ATOM     21  H5* UNL     1       1.100   5.958  20.597  0.00  0.00    +0.000 HD
ENDBRANCH  19  20
ENDBRANCH   3  19
TORSDOF 6
ENDMDL
MODEL 3
REMARK VINA RESULT:      -6.1      3.870      5.541
REMARK  Name = 
REMARK  6 active torsions:
REMARK  status: ('A' for Active; 'I' for Inactive)
REMARK    1  A    between atoms: C_4  and  S_5
REMARK    2  A    between atoms: N_7  and  C1*_8
REMARK    3  A    between atoms: C4*_10  and  C5*_11
REMARK    4  A    between atoms: C5*_11  and  O5*_12
REMARK    5  A    between atoms: C3*_13  and  O3*_14
REMARK    6  A    between atoms: C2*_15  and  O2*_16
REMARK                            x       y       z     vdW  Elec       q    Type
REMARK                         _______ _______ _______ _____ _____    ______ ____
ROOT
ATOM      1  C1* UNL     1       2.401   3.907  18.086  0.00  0.00    +0.000 C 
ATOM      2  O4* UNL     1       1.649   4.578  19.120  0.00  0.00    +0.000 OA
ATOM      3  C4* UNL     1       1.132   3.583  20.040  0.00  0.00    +0.000 C 
ATOM      4  C3* UNL     1       1.344   2.233  19.369  0.00  0.00    +0.000 C 
ATOM      5  C2* UNL     1       2.605   2.458  18.550  0.00  0.00    +0.000 C 
ENDROOT
BRANCH   1  11
ATOM      6  N   UNL     1       4.033   5.888  19.769  0.00  0.00    +0.000 NA
ATOM      7  C   UNL     1       4.334   5.410  18.618  0.00  0.00    +0.000 A 
ATOM      8  S   UNL     1       5.888   5.818  17.913  0.00  0.00    +0.000 S 
ATOM      9  C   UNL     1       5.472   4.748  16.597  0.00  0.00    +0.000 A 
ATOM     10  N   UNL     1       4.312   4.172  16.624  0.00  0.00    +0.000 NA
ATOM     11  N   UNL     1       3.653   4.576  17.773  0.00  0.00    +0.000 N 
ATOM     12  H   UNL     1       4.815   6.486  20.066  0.00  0.00    +0.000 HD
BRANCH   9  13
ATOM     13  S   UNL     1       6.622   4.493  15.331  0.00  0.00    +0.000 S 
ATOM     14  H   UNL     1       5.925   3.545  14.694  0.00  0.00    +0.000 HD
ENDBRANCH   9  13
ENDBRANCH   1  11
BRANCH   4  15
ATOM     15  O3* UNL     1       0.272   1.917  18.456  0.00  0.00    +0.000 OA
ATOM     16  H3* UNL     1      -0.527   2.410  18.721  0.00  0.00    +0.000 HD
ENDBRANCH   4  15
BRANCH   5  17
ATOM     17  O2* UNL     1       2.698   1.503  17.492  0.00  0.00    +0.000 OA
ATOM     18  H2* UNL     1       2.524   0.628  17.900  0.00  0.00    +0.000 HD
ENDBRANCH   5  17
BRANCH   3  19
ATOM     19  C5* UNL     1       1.854   3.683  21.387  0.00  0.00    +0.000 C 
BRANCH  19  20
ATOM     20  O5* UNL     1       1.598   2.514  22.159  0.00  0.00    +0.000 OA
ATOM     21  H5* UNL     1       1.346   1.829  21.503  0.00  0.00    +0.000 HD
ENDBRANCH  19  20
ENDBRANCH   3  19
TORSDOF 6
ENDMDL
MODEL 4
REMARK VINA RESULT:      -6.0      3.523      5.283
REMARK  Name = 
REMARK  6 active torsions:
REMARK  status: ('A' for Active; 'I' for Inactive)
REMARK    1  A    between atoms: C_4  and  S_5
REMARK    2  A    between atoms: N_7  and  C1*_8
REMARK    3  A    between atoms: C4*_10  and  C5*_11
REMARK    4  A    between atoms: C5*_11  and  O5*_12
REMARK    5  A    between atoms: C3*_13  and  O3*_14
REMARK    6  A    between atoms: C2*_15  and  O2*_16
REMARK                            x       y       z     vdW  Elec       q    Type
REMARK                         _______ _______ _______ _____ _____    ______ ____
ROOT
ATOM      1  C1* UNL     1       4.219   4.044  19.595  0.00  0.00    +0.000 C 
ATOM      2  O4* UNL     1       3.803   2.664  19.501  0.00  0.00    +0.000 OA
ATOM      3  C4* UNL     1       2.374   2.593  19.739  0.00  0.00    +0.000 C 
ATOM      4  C3* UNL     1       1.965   3.956  20.281  0.00  0.00    +0.000 C 
ATOM      5  C2* UNL     1       2.944   4.898  19.598  0.00  0.00    +0.000 C 
ENDROOT
BRANCH   1  11
ATOM      6  N   UNL     1       6.979   5.373  19.803  0.00  0.00    +0.000 NA
ATOM      7  C   UNL     1       6.385   4.972  18.740  0.00  0.00    +0.000 A 
ATOM      8  S   UNL     1       7.234   5.075  17.208  0.00  0.00    +0.000 S 
ATOM      9  C   UNL     1       5.848   4.293  16.489  0.00  0.00    +0.000 A 
ATOM     10  N   UNL     1       4.842   4.011  17.255  0.00  0.00    +0.000 NA
ATOM     11  N   UNL     1       5.146   4.427  18.541  0.00  0.00    +0.000 N 
ATOM     12  H   UNL     1       7.901   5.728  19.524  0.00  0.00    +0.000 HD
BRANCH   9  13
ATOM     13  S   UNL     1       5.881   3.918  14.801  0.00  0.00    +0.000 S 
ATOM     14  H   UNL     1       4.554   3.881  14.637  0.00  0.00    +0.000 HD
ENDBRANCH   9  13
ENDBRANCH   1  11
BRANCH   4  15
ATOM     15  O3* UNL     1       2.177   4.049  21.705  0.00  0.00    +0.000 OA
ATOM     16  H3* UNL     1       3.117   3.872  21.899  0.00  0.00    +0.000 HD
ENDBRANCH   4  15
BRANCH   5  17
ATOM     17  O2* UNL     1       3.052   6.124  20.322  0.00  0.00    +0.000 OA
ATOM     18  H2* UNL     1       3.375   5.884  21.217  0.00  0.00    +0.000 HD
ENDBRANCH   5  17
BRANCH   3  19
ATOM     19  C5* UNL     1       1.640   2.238  18.443  0.00  0.00    +0.000 C 
BRANCH  19  20
ATOM     20  O5* UNL     1       2.573   1.789  17.467  0.00  0.00    +0.000 OA
ATOM     21  H5* UNL     1       2.388   2.333  16.672  0.00  0.00    +0.000 HD
ENDBRANCH  19  20
ENDBRANCH   3  19
TORSDOF 6
ENDMDL
MODEL 5
REMARK VINA RESULT:      -6.0      3.640      5.271
REMARK  Name = 
REMARK  6 active torsions:
REMARK  status: ('A' for Active; 'I' for Inactive)
REMARK    1  A    between atoms: C_4  and  S_5
REMARK    2  A    between atoms: N_7  and  C1*_8
REMARK    3  A    between atoms: C4*_10  and  C5*_11
REMARK    4  A    between atoms: C5*_11  and  O5*_12
REMARK    5  A    between atoms: C3*_13  and  O3*_14
REMARK    6  A    between atoms: C2*_15  and  O2*_16
REMARK                            x       y       z     vdW  Elec       q    Type
REMARK                         _______ _______ _______ _____ _____    ______ ____
ROOT
ATOM      1  C1* UNL     1       3.240   3.481  17.749  0.00  0.00    +0.000 C 
ATOM      2  O4* UNL     1       2.361   4.468  18.330  0.00  0.00    +0.000 OA
ATOM      3  C4* UNL     1       1.723   3.892  19.498  0.00  0.00    +0.000 C 
ATOM      4  C3* UNL     1       2.018   2.399  19.450  0.00  0.00    +0.000 C 
ATOM      5  C2* UNL     1       3.377   2.345  18.771  0.00  0.00    +0.000 C 
ENDROOT
BRANCH   1  11
ATOM      6  N   UNL     1       5.586   4.425  19.490  0.00  0.00    +0.000 NA
ATOM      7  C   UNL     1       5.534   4.381  18.210  0.00  0.00    +0.000 A 
ATOM      8  S   UNL     1       6.968   4.800  17.291  0.00  0.00    +0.000 S 
ATOM      9  C   UNL     1       6.065   4.378  15.857  0.00  0.00    +0.000 A 
ATOM     10  N   UNL     1       4.832   4.006  16.002  0.00  0.00    +0.000 NA
ATOM     11  N   UNL     1       4.525   4.034  17.352  0.00  0.00    +0.000 N 
ATOM     12  H   UNL     1       6.527   4.748  19.748  0.00  0.00    +0.000 HD
BRANCH   9  13
ATOM     13  S   UNL     1       6.850   4.460  14.319  0.00  0.00    +0.000 S 
ATOM     14  H   UNL     1       7.959   3.810  14.691  0.00  0.00    +0.000 HD
ENDBRANCH   9  13
ENDBRANCH   1  11
BRANCH   4  15
ATOM     15  O3* UNL     1       1.074   1.697  18.614  0.00  0.00    +0.000 OA
ATOM     16  H3* UNL     1       1.150   0.738  18.784  0.00  0.00    +0.000 HD
ENDBRANCH   4  15
BRANCH   5  17
ATOM     17  O2* UNL     1       3.605   1.056  18.200  0.00  0.00    +0.000 OA
ATOM     18  H2* UNL     1       4.467   0.750  18.553  0.00  0.00    +0.000 HD
ENDBRANCH   5  17
BRANCH   3  19
ATOM     19  C5* UNL     1       2.261   4.550  20.773  0.00  0.00    +0.000 C 
BRANCH  19  20
ATOM     20  O5* UNL     1       2.958   5.746  20.441  0.00  0.00    +0.000 OA
ATOM     21  H5* UNL     1       3.696   5.455  19.863  0.00  0.00    +0.000 HD
ENDBRANCH  19  20
ENDBRANCH   3  19
TORSDOF 6
ENDMDL
MODEL 6
REMARK VINA RESULT:      -5.9      3.518      4.963
REMARK  Name = 
REMARK  6 active torsions:
REMARK  status: ('A' for Active; 'I' for Inactive)
REMARK    1  A    between atoms: C_4  and  S_5
REMARK    2  A    between atoms: N_7  and  C1*_8
REMARK    3  A    between atoms: C4*_10  and  C5*_11
REMARK    4  A    between atoms: C5*_11  and  O5*_12
REMARK    5  A    between atoms: C3*_13  and  O3*_14
REMARK    6  A    between atoms: C2*_15  and  O2*_16
REMARK                            x       y       z     vdW  Elec       q    Type
REMARK                         _______ _______ _______ _____ _____    ______ ____
ROOT
ATOM      1  C1* UNL     1       3.608   4.402  18.418  0.00  0.00    +0.000 C 
ATOM      2  O4* UNL     1       3.884   4.280  19.830  0.00  0.00    +0.000 OA
ATOM      3  C4* UNL     1       3.059   3.219  20.375  0.00  0.00    +0.000 C 
ATOM      4  C3* UNL     1       2.036   2.880  19.299  0.00  0.00    +0.000 C 
ATOM      5  C2* UNL     1       2.793   3.166  18.012  0.00  0.00    +0.000 C 
ENDROOT
BRANCH   1  11
ATOM      6  N   UNL     1       6.496   4.926  19.318  0.00  0.00    +0.000 NA
ATOM      7  C   UNL     1       6.073   4.746  18.120  0.00  0.00    +0.000 A 
ATOM      8  S   UNL     1       7.240   4.682  16.812  0.00  0.00    +0.000 S 
ATOM      9  C   UNL     1       5.897   4.334  15.750  0.00  0.00    +0.000 A 
ATOM     10  N   UNL     1       4.708   4.302  16.263  0.00  0.00    +0.000 NA
ATOM     11  N   UNL     1       4.812   4.565  17.619  0.00  0.00    +0.000 N 
ATOM     12  H   UNL     1       7.517   5.031  19.269  0.00  0.00    +0.000 HD
BRANCH   9  13
ATOM     13  S   UNL     1       6.211   4.036  14.076  0.00  0.00    +0.000 S 
ATOM     14  H   UNL     1       4.982   4.345  13.645  0.00  0.00    +0.000 HD
ENDBRANCH   9  13
ENDBRANCH   1  11
BRANCH   4  15
ATOM     15  O3* UNL     1       0.897   3.764  19.350  0.00  0.00    +0.000 OA
ATOM     16  H3* UNL     1       0.225   3.384  19.947  0.00  0.00    +0.000 HD
ENDBRANCH   4  15
BRANCH   5  17
ATOM     17  O2* UNL     1       1.886   3.381  16.930  0.00  0.00    +0.000 OA
ATOM     18  H2* UNL     1       2.269   2.913  16.157  0.00  0.00    +0.000 HD
ENDBRANCH   5  17
BRANCH   3  19
ATOM     19  C5* UNL     1       3.928   2.014  20.750  0.00  0.00    +0.000 C 
BRANCH  19  20
ATOM     20  O5* UNL     1       5.208   2.133  20.140  0.00  0.00    +0.000 OA
ATOM     21  H5* UNL     1       5.041   2.019  19.180  0.00  0.00    +0.000 HD
ENDBRANCH  19  20
ENDBRANCH   3  19
TORSDOF 6
ENDMDL
MODEL 7
REMARK VINA RESULT:      -5.9      1.658      2.071
REMARK  Name = 
REMARK  6 active torsions:
REMARK  status: ('A' for Active; 'I' for Inactive)
REMARK    1  A    between atoms: C_4  and  S_5
REMARK    2  A    between atoms: N_7  and  C1*_8
REMARK    3  A    between atoms: C4*_10  and  C5*_11
REMARK    4  A    between atoms: C5*_11  and  O5*_12
REMARK    5  A    between atoms: C3*_13  and  O3*_14
REMARK    6  A    between atoms: C2*_15  and  O2*_16
REMARK                            x       y       z     vdW  Elec       q    Type
REMARK                         _______ _______ _______ _____ _____    ______ ____
ROOT
ATOM      1  C1* UNL     1       5.107   5.303  17.449  0.00  0.00    +0.000 C 
ATOM      2  O4* UNL     1       5.986   4.694  18.420  0.00  0.00    +0.000 OA
ATOM      3  C4* UNL     1       7.358   4.993  18.058  0.00  0.00    +0.000 C 
ATOM      4  C3* UNL     1       7.310   5.568  16.648  0.00  0.00    +0.000 C 
ATOM      5  C2* UNL     1       5.961   6.268  16.616  0.00  0.00    +0.000 C 
ENDROOT
BRANCH   1  11
ATOM      6  N   UNL     1       3.575   4.577  20.009  0.00  0.00    +0.000 NA
ATOM      7  C   UNL     1       3.373   5.581  19.238  0.00  0.00    +0.000 A 
ATOM      8  S   UNL     1       2.164   6.768  19.694  0.00  0.00    +0.000 S 
ATOM      9  C   UNL     1       2.648   7.673  18.280  0.00  0.00    +0.000 A 
ATOM     10  N   UNL     1       3.564   7.166  17.517  0.00  0.00    +0.000 NA
ATOM     11  N   UNL     1       3.958   5.954  18.058  0.00  0.00    +0.000 N 
ATOM     12  H   UNL     1       2.918   4.657  20.794  0.00  0.00    +0.000 HD
BRANCH   9  13
ATOM     13  S   UNL     1       1.899   9.200  17.969  0.00  0.00    +0.000 S 
ATOM     14  H   UNL     1       1.005   8.742  17.084  0.00  0.00    +0.000 HD
ENDBRANCH   9  13
ENDBRANCH   1  11
BRANCH   4  15
ATOM     15  O3* UNL     1       7.295   4.527  15.649  0.00  0.00    +0.000 OA
ATOM     16  H3* UNL     1       6.406   4.125  15.621  0.00  0.00    +0.000 HD
ENDBRANCH   4  15
BRANCH   5  17
ATOM     17  O2* UNL     1       5.517   6.444  15.270  0.00  0.00    +0.000 OA
ATOM     18  H2* UNL     1       5.825   5.655  14.776  0.00  0.00    +0.000 HD
ENDBRANCH   5  17
BRANCH   3  19
ATOM     19  C5* UNL     1       7.968   5.973  19.064  0.00  0.00    +0.000 C 
BRANCH  19  20
ATOM     20  O5* UNL     1       7.847   5.450  20.383  0.00  0.00    +0.000 OA
ATOM     21  H5* UNL     1       8.397   4.638  20.383  0.00  0.00    +0.000 HD
ENDBRANCH  19  20
ENDBRANCH   3  19
TORSDOF 6
ENDMDL
MODEL 8
REMARK VINA RESULT:      -5.8      3.403      5.104
REMARK  Name = 
REMARK  6 active torsions:
REMARK  status: ('A' for Active; 'I' for Inactive)
REMARK    1  A    between atoms: C_4  and  S_5
REMARK    2  A    between atoms: N_7  and  C1*_8
REMARK    3  A    between atoms: C4*_10  and  C5*_11
REMARK    4  A    between atoms: C5*_11  and  O5*_12
REMARK    5  A    between atoms: C3*_13  and  O3*_14
REMARK    6  A    between atoms: C2*_15  and  O2*_16
REMARK                            x       y       z     vdW  Elec       q    Type
REMARK                         _______ _______ _______ _____ _____    ______ ____
ROOT
ATOM      1  C1* UNL     1       3.707   3.311  17.857  0.00  0.00    +0.000 C 
ATOM      2  O4* UNL     1       2.701   4.275  18.237  0.00  0.00    +0.000 OA
ATOM      3  C4* UNL     1       1.916   3.724  19.324  0.00  0.00    +0.000 C 
ATOM      4  C3* UNL     1       2.285   2.249  19.410  0.00  0.00    +0.000 C 
ATOM      5  C2* UNL     1       3.735   2.237  18.953  0.00  0.00    +0.000 C 
ENDROOT
BRANCH   1  11
ATOM      6  N   UNL     1       5.063   4.108  15.220  0.00  0.00    +0.000 NA
ATOM      7  C   UNL     1       5.509   4.282  16.410  0.00  0.00    +0.000 A 
ATOM      8  S   UNL     1       7.013   5.158  16.629  0.00  0.00    +0.000 S 
ATOM      9  C   UNL     1       6.751   4.999  18.349  0.00  0.00    +0.000 A 
ATOM     10  N   UNL     1       5.706   4.345  18.748  0.00  0.00    +0.000 NA
ATOM     11  N   UNL     1       5.011   3.914  17.631  0.00  0.00    +0.000 N 
ATOM     12  H   UNL     1       5.743   4.528  14.574  0.00  0.00    +0.000 HD
BRANCH   9  13
ATOM     13  S   UNL     1       7.882   5.725  19.437  0.00  0.00    +0.000 S 
ATOM     14  H   UNL     1       6.976   6.124  20.338  0.00  0.00    +0.000 HD
ENDBRANCH   9  13
ENDBRANCH   1  11
BRANCH   4  15
ATOM     15  O3* UNL     1       1.520   1.453  18.482  0.00  0.00    +0.000 OA
ATOM     16  H3* UNL     1       1.960   0.590  18.364  0.00  0.00    +0.000 HD
ENDBRANCH   4  15
BRANCH   5  17
ATOM     17  O2* UNL     1       4.111   0.936  18.500  0.00  0.00    +0.000 OA
ATOM     18  H2* UNL     1       3.323   0.365  18.627  0.00  0.00    +0.000 HD
ENDBRANCH   5  17
BRANCH   3  19
ATOM     19  C5* UNL     1       2.216   4.474  20.626  0.00  0.00    +0.000 C 
BRANCH  19  20
ATOM     20  O5* UNL     1       3.182   5.492  20.384  0.00  0.00    +0.000 OA
ATOM     21  H5* UNL     1       2.989   6.185  21.052  0.00  0.00    +0.000 HD
ENDBRANCH  19  20
ENDBRANCH   3  19
TORSDOF 6
ENDMDL
MODEL 9
REMARK VINA RESULT:      -5.7      1.535      2.825
REMARK  Name = 
REMARK  6 active torsions:
REMARK  status: ('A' for Active; 'I' for Inactive)
REMARK    1  A    between atoms: C_4  and  S_5
REMARK    2  A    between atoms: N_7  and  C1*_8
REMARK    3  A    between atoms: C4*_10  and  C5*_11
REMARK    4  A    between atoms: C5*_11  and  O5*_12
REMARK    5  A    between atoms: C3*_13  and  O3*_14
REMARK    6  A    between atoms: C2*_15  and  O2*_16
REMARK                            x       y       z     vdW  Elec       q    Type
REMARK                         _______ _______ _______ _____ _____    ______ ____
ROOT
ATOM      1  C1* UNL     1       5.262   5.550  18.324  0.00  0.00    +0.000 C 
ATOM      2  O4* UNL     1       5.199   5.909  16.927  0.00  0.00    +0.000 OA
ATOM      3  C4* UNL     1       6.551   6.030  16.417  0.00  0.00    +0.000 C 
ATOM      4  C3* UNL     1       7.467   6.020  17.634  0.00  0.00    +0.000 C 
ATOM      5  C2* UNL     1       6.712   5.141  18.617  0.00  0.00    +0.000 C 
ENDROOT
BRANCH   1  11
ATOM      6  N   UNL     1       4.712   2.842  16.986  0.00  0.00    +0.000 NA
ATOM      7  C   UNL     1       4.170   3.310  18.050  0.00  0.00    +0.000 A 
ATOM      8  S   UNL     1       3.052   2.298  18.945  0.00  0.00    +0.000 S 
ATOM      9  C   UNL     1       2.960   3.589  20.118  0.00  0.00    +0.000 A 
ATOM     10  N   UNL     1       3.633   4.671  19.886  0.00  0.00    +0.000 NA
ATOM     11  N   UNL     1       4.305   4.515  18.685  0.00  0.00    +0.000 N 
ATOM     12  H   UNL     1       4.335   1.897  16.841  0.00  0.00    +0.000 HD
BRANCH   9  13
ATOM     13  S   UNL     1       1.995   3.364  21.535  0.00  0.00    +0.000 S 
ATOM     14  H   UNL     1       0.814   3.539  20.931  0.00  0.00    +0.000 HD
ENDBRANCH   9  13
ENDBRANCH   1  11
BRANCH   4  15
ATOM     15  O3* UNL     1       7.592   7.334  18.217  0.00  0.00    +0.000 OA
ATOM     16  H3* UNL     1       8.539   7.543  18.330  0.00  0.00    +0.000 HD
ENDBRANCH   4  15
BRANCH   5  17
ATOM     17  O2* UNL     1       7.142   5.395  19.955  0.00  0.00    +0.000 OA
ATOM     18  H2* UNL     1       6.857   6.311  20.163  0.00  0.00    +0.000 HD
ENDBRANCH   5  17
BRANCH   3  19
ATOM     19  C5* UNL     1       6.856   4.880  15.452  0.00  0.00    +0.000 C 
BRANCH  19  20
ATOM     20  O5* UNL     1       7.707   5.340  14.407  0.00  0.00    +0.000 OA
ATOM     21  H5* UNL     1       7.369   6.233  14.181  0.00  0.00    +0.000 HD
ENDBRANCH  19  20
ENDBRANCH   3  19
TORSDOF 6
ENDMDL
