MODEL 1
REMARK VINA RESULT:      -8.3      0.000      0.000
REMARK  Name = 
REMARK  7 active torsions:
REMARK  status: ('A' for Active; 'I' for Inactive)
REMARK    1  A    between atoms: C_1  and  C_2
REMARK    2  A    between atoms: C_4  and  C_5
REMARK    3  A    between atoms: N_7  and  C_8
REMARK    4  A    between atoms: C_9  and  C_10
REMARK    5  A    between atoms: N_12  and  C_13
REMARK    6  A    between atoms: C_13  and  C_14
REMARK    7  A    between atoms: C_22  and  C_23
REMARK                            x       y       z     vdW  Elec       q    Type
REMARK                         _______ _______ _______ _____ _____    ______ ____
ROOT
ATOM      1  C   UNL     1       5.831   5.385  17.026  0.00  0.00    +0.000 A 
ATOM      2  C   UNL     1       5.930   4.521  15.912  0.00  0.00    +0.000 A 
ATOM      3  C   UNL     1       6.772   4.651  14.697  0.00  0.00    +0.000 C 
ATOM      4  N   UNL     1       5.203   3.415  16.094  0.00  0.00    +0.000 NA
ATOM      5  N   UNL     1       4.640   3.560  17.314  0.00  0.00    +0.000 N 
ATOM      6  C   UNL     1       5.021   4.731  17.930  0.00  0.00    +0.000 A 
ATOM      7  C   UNL     1       4.516   5.223  19.238  0.00  0.00    +0.000 C 
ENDROOT
BRANCH   1  10
ATOM      8  C   UNL     1       7.496   6.791  18.057  0.00  0.00    +0.000 C 
ATOM      9  O   UNL     1       8.078   5.883  18.647  0.00  0.00    +0.000 OA
ATOM     10  N   UNL     1       6.385   6.627  17.243  0.00  0.00    +0.000 N 
ATOM     11  H   UNL     1       6.252   7.351  16.546  0.00  0.00    +0.000 HD
BRANCH   8  15
ATOM     12  C   UNL     1       9.598  11.199  19.400  0.00  0.00    +0.000 C 
ATOM     13  C   UNL     1       8.941  10.042  18.769  0.00  0.00    +0.000 A 
ATOM     14  C   UNL     1       8.938   8.694  19.018  0.00  0.00    +0.000 A 
ATOM     15  C   UNL     1       7.982   8.168  18.113  0.00  0.00    +0.000 A 
ATOM     16  N   UNL     1       7.522   9.130  17.293  0.00  0.00    +0.000 NA
ATOM     17  O   UNL     1       8.112  10.306  17.724  0.00  0.00    +0.000 OA
ENDBRANCH   8  15
ENDBRANCH   1  10
BRANCH   5  18
ATOM     18  C   UNL     1       3.671   2.545  17.751  0.00  0.00    +0.000 C 
BRANCH  18  19
ATOM     19  C   UNL     1       2.948   2.969  19.012  0.00  0.00    +0.000 A 
ATOM     20  C   UNL     1       3.359   2.532  20.285  0.00  0.00    +0.000 A 
ATOM     21 CL   UNL     1       4.923   1.854  20.582  0.00  0.00    +0.000 Cl
ATOM     22  C   UNL     1       2.554   2.720  21.415  0.00  0.00    +0.000 A 
ATOM     23  C   UNL     1       1.361   3.424  21.319  0.00  0.00    +0.000 A 
ATOM     24  C   UNL     1       1.001   3.985  20.099  0.00  0.00    +0.000 A 
ATOM     25  C   UNL     1       1.786   3.767  18.959  0.00  0.00    +0.000 A 
ATOM     26 CL   UNL     1       1.297   4.606  17.527  0.00  0.00    +0.000 Cl
ENDBRANCH  18  19
ENDBRANCH   5  18
TORSDOF 4
ENDMDL
MODEL 2
REMARK VINA RESULT:      -7.9      1.312      2.310
REMARK  Name = 
REMARK  7 active torsions:
REMARK  status: ('A' for Active; 'I' for Inactive)
REMARK    1  A    between atoms: C_1  and  C_2
REMARK    2  A    between atoms: C_4  and  C_5
REMARK    3  A    between atoms: N_7  and  C_8
REMARK    4  A    between atoms: C_9  and  C_10
REMARK    5  A    between atoms: N_12  and  C_13
REMARK    6  A    between atoms: C_13  and  C_14
REMARK    7  A    between atoms: C_22  and  C_23
REMARK                            x       y       z     vdW  Elec       q    Type
REMARK                         _______ _______ _______ _____ _____    ______ ____
ROOT
ATOM      1  C   UNL     1       5.696   6.267  17.588  0.00  0.00    +0.000 A 
ATOM      2  C   UNL     1       4.952   6.095  16.398  0.00  0.00    +0.000 A 
ATOM      3  C   UNL     1       4.844   6.992  15.222  0.00  0.00    +0.000 C 
ATOM      4  N   UNL     1       4.364   4.895  16.368  0.00  0.00    +0.000 NA
ATOM      5  N   UNL     1       4.724   4.296  17.524  0.00  0.00    +0.000 N 
ATOM      6  C   UNL     1       5.561   5.083  18.282  0.00  0.00    +0.000 A 
ATOM      7  C   UNL     1       6.069   4.750  19.638  0.00  0.00    +0.000 C 
ENDROOT
BRANCH   1  10
ATOM      8  C   UNL     1       7.620   7.712  17.439  0.00  0.00    +0.000 C 
ATOM      9  O   UNL     1       8.139   7.130  16.488  0.00  0.00    +0.000 OA
ATOM     10  N   UNL     1       6.422   7.348  18.035  0.00  0.00    +0.000 N 
ATOM     11  H   UNL     1       5.939   8.096  18.521  0.00  0.00    +0.000 HD
BRANCH   8  15
ATOM     12  C   UNL     1       9.471  12.359  18.230  0.00  0.00    +0.000 C 
ATOM     13  C   UNL     1       8.979  10.972  18.269  0.00  0.00    +0.000 A 
ATOM     14  C   UNL     1       8.158  10.228  17.461  0.00  0.00    +0.000 A 
ATOM     15  C   UNL     1       8.212   8.921  18.005  0.00  0.00    +0.000 A 
ATOM     16  N   UNL     1       8.934   8.907  19.141  0.00  0.00    +0.000 NA
ATOM     17  O   UNL     1       9.428  10.193  19.288  0.00  0.00    +0.000 OA
ENDBRANCH   8  15
ENDBRANCH   1  10
BRANCH   5  18
ATOM     18  C   UNL     1       4.126   2.992  17.840  0.00  0.00    +0.000 C 
BRANCH  18  19
ATOM     19  C   UNL     1       3.168   3.085  19.009  0.00  0.00    +0.000 A 
ATOM     20  C   UNL     1       1.944   3.772  18.913  0.00  0.00    +0.000 A 
ATOM     21 CL   UNL     1       1.224   4.192  17.396  0.00  0.00    +0.000 Cl
ATOM     22  C   UNL     1       1.181   4.065  20.049  0.00  0.00    +0.000 A 
ATOM     23  C   UNL     1       1.576   3.605  21.298  0.00  0.00    +0.000 A 
ATOM     24  C   UNL     1       2.709   2.806  21.400  0.00  0.00    +0.000 A 
ATOM     25  C   UNL     1       3.494   2.542  20.270  0.00  0.00    +0.000 A 
ATOM     26 CL   UNL     1       4.814   1.447  20.500  0.00  0.00    +0.000 Cl
ENDBRANCH  18  19
ENDBRANCH   5  18
TORSDOF 4
ENDMDL
MODEL 3
REMARK VINA RESULT:      -7.8      5.501     10.962
REMARK  Name = 
REMARK  7 active torsions:
REMARK  status: ('A' for Active; 'I' for Inactive)
REMARK    1  A    between atoms: C_1  and  C_2
REMARK    2  A    between atoms: C_4  and  C_5
REMARK    3  A    between atoms: N_7  and  C_8
REMARK    4  A    between atoms: C_9  and  C_10
REMARK    5  A    between atoms: N_12  and  C_13
REMARK    6  A    between atoms: C_13  and  C_14
REMARK    7  A    between atoms: C_22  and  C_23
REMARK                            x       y       z     vdW  Elec       q    Type
REMARK                         _______ _______ _______ _____ _____    ______ ____
ROOT
ATOM      1  C   UNL     1       9.857  10.993  19.837  0.00  0.00    +0.000 A 
ATOM      2  C   UNL     1       9.522  11.862  20.900  0.00  0.00    +0.000 A 
ATOM      3  C   UNL     1       8.505  11.691  21.966  0.00  0.00    +0.000 C 
ATOM      4  N   UNL     1      10.338  12.921  20.931  0.00  0.00    +0.000 NA
ATOM      5  N   UNL     1      11.194  12.737  19.902  0.00  0.00    +0.000 N 
ATOM      6  C   UNL     1      10.957  11.560  19.228  0.00  0.00    +0.000 A 
ATOM      7  C   UNL     1      11.667  11.106  18.004  0.00  0.00    +0.000 C 
ENDROOT
BRANCH   1  10
ATOM      8  C   UNL     1       8.432   9.776  18.321  0.00  0.00    +0.000 C 
ATOM      9  O   UNL     1       8.143  10.744  17.619  0.00  0.00    +0.000 OA
ATOM     10  N   UNL     1       9.266   9.818  19.427  0.00  0.00    +0.000 N 
ATOM     11  H   UNL     1       9.708   8.938  19.667  0.00  0.00    +0.000 HD
BRANCH   8  15
ATOM     12  C   UNL     1       7.698   4.775  18.005  0.00  0.00    +0.000 C 
ATOM     13  C   UNL     1       7.688   6.246  17.938  0.00  0.00    +0.000 A 
ATOM     14  C   UNL     1       8.234   7.240  18.708  0.00  0.00    +0.000 A 
ATOM     15  C   UNL     1       7.952   8.434  18.000  0.00  0.00    +0.000 A 
ATOM     16  N   UNL     1       7.182   8.181  16.926  0.00  0.00    +0.000 NA
ATOM     17  O   UNL     1       7.038   6.804  16.882  0.00  0.00    +0.000 OA
ENDBRANCH   8  15
ENDBRANCH   1  10
BRANCH   5  18
ATOM     18  C   UNL     1      12.149  13.812  19.599  0.00  0.00    +0.000 C 
BRANCH  18  19
ATOM     19  C   UNL     1      11.457  15.028  19.020  0.00  0.00    +0.000 A 
ATOM     20  C   UNL     1      11.224  15.161  17.638  0.00  0.00    +0.000 A 
ATOM     21 CL   UNL     1      11.297  13.823  16.544  0.00  0.00    +0.000 Cl
ATOM     22  C   UNL     1      10.813  16.379  17.083  0.00  0.00    +0.000 A 
ATOM     23  C   UNL     1      10.542  17.468  17.900  0.00  0.00    +0.000 A 
ATOM     24  C   UNL     1      10.631  17.320  19.280  0.00  0.00    +0.000 A 
ATOM     25  C   UNL     1      11.077  16.114  19.836  0.00  0.00    +0.000 A 
ATOM     26 CL   UNL     1      11.041  16.014  21.563  0.00  0.00    +0.000 Cl
ENDBRANCH  18  19
ENDBRANCH   5  18
TORSDOF 4
ENDMDL
MODEL 4
REMARK VINA RESULT:      -7.7      5.898      6.855
REMARK  Name = 
REMARK  7 active torsions:
REMARK  status: ('A' for Active; 'I' for Inactive)
REMARK    1  A    between atoms: C_1  and  C_2
REMARK    2  A    between atoms: C_4  and  C_5
REMARK    3  A    between atoms: N_7  and  C_8
REMARK    4  A    between atoms: C_9  and  C_10
REMARK    5  A    between atoms: N_12  and  C_13
REMARK    6  A    between atoms: C_13  and  C_14
REMARK    7  A    between atoms: C_22  and  C_23
REMARK                            x       y       z     vdW  Elec       q    Type
REMARK                         _______ _______ _______ _____ _____    ______ ____
ROOT
ATOM      1  C   UNL     1       1.212   8.785  19.795  0.00  0.00    +0.000 A 
ATOM      2  C   UNL     1       0.851   8.067  20.957  0.00  0.00    +0.000 A 
ATOM      3  C   UNL     1      -0.221   8.354  21.942  0.00  0.00    +0.000 C 
ATOM      4  N   UNL     1       1.561   6.939  21.066  0.00  0.00    +0.000 NA
ATOM      5  N   UNL     1       2.372   6.927  19.985  0.00  0.00    +0.000 N 
ATOM      6  C   UNL     1       2.170   8.016  19.167  0.00  0.00    +0.000 A 
ATOM      7  C   UNL     1       2.954   8.338  17.947  0.00  0.00    +0.000 C 
ENDROOT
BRANCH   1  10
ATOM      8  C   UNL     1       0.935  11.167  20.040  0.00  0.00    +0.000 C 
ATOM      9  O   UNL     1       1.490  11.245  21.135  0.00  0.00    +0.000 OA
ATOM     10  N   UNL     1       0.759   9.996  19.319  0.00  0.00    +0.000 N 
ATOM     11  H   UNL     1       0.648  10.119  18.319  0.00  0.00    +0.000 HD
BRANCH   8  15
ATOM     12  C   UNL     1      -0.264  15.891  18.660  0.00  0.00    +0.000 C 
ATOM     13  C   UNL     1      -0.014  14.448  18.815  0.00  0.00    +0.000 A 
ATOM     14  C   UNL     1       0.811  13.703  19.617  0.00  0.00    +0.000 A 
ATOM     15  C   UNL     1       0.450  12.359  19.348  0.00  0.00    +0.000 A 
ATOM     16  N   UNL     1      -0.459  12.298  18.358  0.00  0.00    +0.000 NA
ATOM     17  O   UNL     1      -0.760  13.613  18.044  0.00  0.00    +0.000 OA
ENDBRANCH   8  15
ENDBRANCH   1  10
BRANCH   5  18
ATOM     18  C   UNL     1       3.374   5.857  19.887  0.00  0.00    +0.000 C 
BRANCH  18  19
ATOM     19  C   UNL     1       2.784   4.589  19.307  0.00  0.00    +0.000 A 
ATOM     20  C   UNL     1       2.863   4.294  17.934  0.00  0.00    +0.000 A 
ATOM     21 CL   UNL     1       3.973   5.087  16.870  0.00  0.00    +0.000 Cl
ATOM     22  C   UNL     1       2.113   3.257  17.366  0.00  0.00    +0.000 A 
ATOM     23  C   UNL     1       1.332   2.435  18.168  0.00  0.00    +0.000 A 
ATOM     24  C   UNL     1       1.345   2.620  19.545  0.00  0.00    +0.000 A 
ATOM     25  C   UNL     1       2.066   3.679  20.112  0.00  0.00    +0.000 A 
ATOM     26 CL   UNL     1       2.096   3.739  21.841  0.00  0.00    +0.000 Cl
ENDBRANCH  18  19
ENDBRANCH   5  18
TORSDOF 4
ENDMDL
MODEL 5
REMARK VINA RESULT:      -7.7      5.982      7.562
REMARK  Name = 
REMARK  7 active torsions:
REMARK  status: ('A' for Active; 'I' for Inactive)
REMARK    1  A    between atoms: C_1  and  C_2
REMARK    2  A    between atoms: C_4  and  C_5
REMARK    3  A    between atoms: N_7  and  C_8
REMARK    4  A    between atoms: C_9  and  C_10
REMARK    5  A    between atoms: N_12  and  C_13
REMARK    6  A    between atoms: C_13  and  C_14
REMARK    7  A    between atoms: C_22  and  C_23
REMARK                            x       y       z     vdW  Elec       q    Type
REMARK                         _______ _______ _______ _____ _____    ______ ____
ROOT
ATOM      1  C   UNL     1       1.646   9.070  19.481  0.00  0.00    +0.000 A 
ATOM      2  C   UNL     1       2.111   9.520  18.225  0.00  0.00    +0.000 A 
ATOM      3  C   UNL     1       2.155  10.899  17.680  0.00  0.00    +0.000 C 
ATOM      4  N   UNL     1       2.652   8.517  17.524  0.00  0.00    +0.000 NA
ATOM      5  N   UNL     1       2.539   7.431  18.320  0.00  0.00    +0.000 N 
ATOM      6  C   UNL     1       1.961   7.728  19.534  0.00  0.00    +0.000 A 
ATOM      7  C   UNL     1       1.623   6.745  20.595  0.00  0.00    +0.000 C 
ENDROOT
BRANCH   1  10
ATOM      8  C   UNL     1      -0.254  10.306  20.302  0.00  0.00    +0.000 C 
ATOM      9  O   UNL     1      -0.902  10.247  19.259  0.00  0.00    +0.000 OA
ATOM     10  N   UNL     1       1.004   9.754  20.490  0.00  0.00    +0.000 N 
ATOM     11  H   UNL     1       1.243   9.544  21.453  0.00  0.00    +0.000 HD
BRANCH   8  15
ATOM     12  C   UNL     1      -2.704  13.255  23.612  0.00  0.00    +0.000 C 
ATOM     13  C   UNL     1      -1.920  12.253  22.871  0.00  0.00    +0.000 A 
ATOM     14  C   UNL     1      -1.892  11.838  21.564  0.00  0.00    +0.000 A 
ATOM     15  C   UNL     1      -0.803  10.933  21.502  0.00  0.00    +0.000 A 
ATOM     16  N   UNL     1      -0.280  10.731  22.725  0.00  0.00    +0.000 NA
ATOM     17  O   UNL     1      -0.973  11.578  23.575  0.00  0.00    +0.000 OA
ENDBRANCH   8  15
ENDBRANCH   1  10
BRANCH   5  18
ATOM     18  C   UNL     1       2.940   6.129  17.769  0.00  0.00    +0.000 C 
BRANCH  18  19
ATOM     19  C   UNL     1       4.424   5.883  17.938  0.00  0.00    +0.000 A 
ATOM     20  C   UNL     1       4.944   5.226  19.068  0.00  0.00    +0.000 A 
ATOM     21 CL   UNL     1       3.963   4.279  20.133  0.00  0.00    +0.000 Cl
ATOM     22  C   UNL     1       6.317   5.218  19.339  0.00  0.00    +0.000 A 
ATOM     23  C   UNL     1       7.213   5.789  18.445  0.00  0.00    +0.000 A 
ATOM     24  C   UNL     1       6.735   6.322  17.253  0.00  0.00    +0.000 A 
ATOM     25  C   UNL     1       5.359   6.364  16.997  0.00  0.00    +0.000 A 
ATOM     26 CL   UNL     1       4.894   6.947  15.436  0.00  0.00    +0.000 Cl
ENDBRANCH  18  19
ENDBRANCH   5  18
TORSDOF 4
ENDMDL
MODEL 6
REMARK VINA RESULT:      -7.6      1.290      1.383
REMARK  Name = 
REMARK  7 active torsions:
REMARK  status: ('A' for Active; 'I' for Inactive)
REMARK    1  A    between atoms: C_1  and  C_2
REMARK    2  A    between atoms: C_4  and  C_5
REMARK    3  A    between atoms: N_7  and  C_8
REMARK    4  A    between atoms: C_9  and  C_10
REMARK    5  A    between atoms: N_12  and  C_13
REMARK    6  A    between atoms: C_13  and  C_14
REMARK    7  A    between atoms: C_22  and  C_23
REMARK                            x       y       z     vdW  Elec       q    Type
REMARK                         _______ _______ _______ _____ _____    ______ ____
ROOT
ATOM      1  C   UNL     1       5.663   6.271  17.548  0.00  0.00    +0.000 A 
ATOM      2  C   UNL     1       5.003   6.047  16.319  0.00  0.00    +0.000 A 
ATOM      3  C   UNL     1       5.003   6.878  15.090  0.00  0.00    +0.000 C 
ATOM      4  N   UNL     1       4.388   4.860  16.312  0.00  0.00    +0.000 NA
ATOM      5  N   UNL     1       4.650   4.320  17.522  0.00  0.00    +0.000 N 
ATOM      6  C   UNL     1       5.449   5.132  18.296  0.00  0.00    +0.000 A 
ATOM      7  C   UNL     1       5.848   4.866  19.702  0.00  0.00    +0.000 C 
ENDROOT
BRANCH   1  10
ATOM      8  C   UNL     1       7.601   7.699  17.420  0.00  0.00    +0.000 C 
ATOM      9  O   UNL     1       8.147   7.086  16.504  0.00  0.00    +0.000 OA
ATOM     10  N   UNL     1       6.382   7.360  17.988  0.00  0.00    +0.000 N 
ATOM     11  H   UNL     1       5.888   8.125  18.435  0.00  0.00    +0.000 HD
BRANCH   8  15
ATOM     12  C   UNL     1       9.372  12.386  18.161  0.00  0.00    +0.000 C 
ATOM     13  C   UNL     1       8.912  10.988  18.213  0.00  0.00    +0.000 A 
ATOM     14  C   UNL     1       8.084  10.227  17.429  0.00  0.00    +0.000 A 
ATOM     15  C   UNL     1       8.184   8.921  17.970  0.00  0.00    +0.000 A 
ATOM     16  N   UNL     1       8.939   8.922  19.083  0.00  0.00    +0.000 NA
ATOM     17  O   UNL     1       9.409  10.219  19.217  0.00  0.00    +0.000 OA
ENDBRANCH   8  15
ENDBRANCH   1  10
BRANCH   5  18
ATOM     18  C   UNL     1       3.997   3.049  17.866  0.00  0.00    +0.000 C 
BRANCH  18  19
ATOM     19  C   UNL     1       3.107   3.188  19.082  0.00  0.00    +0.000 A 
ATOM     20  C   UNL     1       3.374   2.501  20.281  0.00  0.00    +0.000 A 
ATOM     21 CL   UNL     1       4.915   1.798  20.632  0.00  0.00    +0.000 Cl
ATOM     22  C   UNL     1       2.428   2.436  21.310  0.00  0.00    +0.000 A 
ATOM     23  C   UNL     1       1.228   3.127  21.207  0.00  0.00    +0.000 A 
ATOM     24  C   UNL     1       0.999   3.926  20.092  0.00  0.00    +0.000 A 
ATOM     25  C   UNL     1       1.928   3.963  19.044  0.00  0.00    +0.000 A 
ATOM     26 CL   UNL     1       1.586   5.077  17.765  0.00  0.00    +0.000 Cl
ENDBRANCH  18  19
ENDBRANCH   5  18
TORSDOF 4
ENDMDL
MODEL 7
REMARK VINA RESULT:      -7.6      3.035      5.171
REMARK  Name = 
REMARK  7 active torsions:
REMARK  status: ('A' for Active; 'I' for Inactive)
REMARK    1  A    between atoms: C_1  and  C_2
REMARK    2  A    between atoms: C_4  and  C_5
REMARK    3  A    between atoms: N_7  and  C_8
REMARK    4  A    between atoms: C_9  and  C_10
REMARK    5  A    between atoms: N_12  and  C_13
REMARK    6  A    between atoms: C_13  and  C_14
REMARK    7  A    between atoms: C_22  and  C_23
REMARK                            x       y       z     vdW  Elec       q    Type
REMARK                         _______ _______ _______ _____ _____    ______ ____
ROOT
ATOM      1  C   UNL     1       5.842   4.310  17.077  0.00  0.00    +0.000 A 
ATOM      2  C   UNL     1       6.814   4.562  18.071  0.00  0.00    +0.000 A 
ATOM      3  C   UNL     1       8.294   4.529  17.965  0.00  0.00    +0.000 C 
ATOM      4  N   UNL     1       6.245   4.964  19.212  0.00  0.00    +0.000 NA
ATOM      5  N   UNL     1       4.918   4.975  18.958  0.00  0.00    +0.000 N 
ATOM      6  C   UNL     1       4.630   4.614  17.661  0.00  0.00    +0.000 A 
ATOM      7  C   UNL     1       3.267   4.449  17.092  0.00  0.00    +0.000 C 
ENDROOT
BRANCH   1  10
ATOM      8  C   UNL     1       6.206   4.730  14.732  0.00  0.00    +0.000 C 
ATOM      9  O   UNL     1       6.291   5.953  14.836  0.00  0.00    +0.000 OA
ATOM     10  N   UNL     1       5.985   3.856  15.785  0.00  0.00    +0.000 N 
ATOM     11  H   UNL     1       6.310   2.908  15.633  0.00  0.00    +0.000 HD
BRANCH   8  15
ATOM     12  C   UNL     1       6.221   1.482  10.846  0.00  0.00    +0.000 C 
ATOM     13  C   UNL     1       6.339   2.597  11.800  0.00  0.00    +0.000 A 
ATOM     14  C   UNL     1       5.700   2.927  12.967  0.00  0.00    +0.000 A 
ATOM     15  C   UNL     1       6.399   4.062  13.447  0.00  0.00    +0.000 A 
ATOM     16  N   UNL     1       7.331   4.459  12.561  0.00  0.00    +0.000 NA
ATOM     17  O   UNL     1       7.301   3.522  11.540  0.00  0.00    +0.000 OA
ENDBRANCH   8  15
ENDBRANCH   1  10
BRANCH   5  18
ATOM     18  C   UNL     1       4.005   5.262  20.074  0.00  0.00    +0.000 C 
BRANCH  18  19
ATOM     19  C   UNL     1       2.871   4.261  20.141  0.00  0.00    +0.000 A 
ATOM     20  C   UNL     1       3.096   2.876  20.032  0.00  0.00    +0.000 A 
ATOM     21 CL   UNL     1       4.658   2.163  20.244  0.00  0.00    +0.000 Cl
ATOM     22  C   UNL     1       2.038   1.978  19.848  0.00  0.00    +0.000 A 
ATOM     23  C   UNL     1       0.725   2.429  19.855  0.00  0.00    +0.000 A 
ATOM     24  C   UNL     1       0.470   3.774  20.099  0.00  0.00    +0.000 A 
ATOM     25  C   UNL     1       1.528   4.680  20.246  0.00  0.00    +0.000 A 
ATOM     26 CL   UNL     1       1.087   6.302  20.655  0.00  0.00    +0.000 Cl
ENDBRANCH  18  19
ENDBRANCH   5  18
TORSDOF 4
ENDMDL
MODEL 8
REMARK VINA RESULT:      -7.6      4.761      6.773
REMARK  Name = 
REMARK  7 active torsions:
REMARK  status: ('A' for Active; 'I' for Inactive)
REMARK    1  A    between atoms: C_1  and  C_2
REMARK    2  A    between atoms: C_4  and  C_5
REMARK    3  A    between atoms: N_7  and  C_8
REMARK    4  A    between atoms: C_9  and  C_10
REMARK    5  A    between atoms: N_12  and  C_13
REMARK    6  A    between atoms: C_13  and  C_14
REMARK    7  A    between atoms: C_22  and  C_23
REMARK                            x       y       z     vdW  Elec       q    Type
REMARK                         _______ _______ _______ _____ _____    ______ ____
ROOT
ATOM      1  C   UNL     1       2.462   6.692  19.247  0.00  0.00    +0.000 A 
ATOM      2  C   UNL     1       2.403   5.497  19.998  0.00  0.00    +0.000 A 
ATOM      3  C   UNL     1       1.287   4.955  20.813  0.00  0.00    +0.000 C 
ATOM      4  N   UNL     1       3.509   4.766  19.828  0.00  0.00    +0.000 NA
ATOM      5  N   UNL     1       4.275   5.480  18.975  0.00  0.00    +0.000 N 
ATOM      6  C   UNL     1       3.663   6.645  18.570  0.00  0.00    +0.000 A 
ATOM      7  C   UNL     1       4.271   7.686  17.702  0.00  0.00    +0.000 C 
ENDROOT
BRANCH   1  10
ATOM      8  C   UNL     1       1.273   8.535  20.248  0.00  0.00    +0.000 C 
ATOM      9  O   UNL     1       1.765   8.407  21.368  0.00  0.00    +0.000 OA
ATOM     10  N   UNL     1       1.563   7.732  19.156  0.00  0.00    +0.000 N 
ATOM     11  H   UNL     1       1.400   8.161  18.251  0.00  0.00    +0.000 HD
BRANCH   8  15
ATOM     12  C   UNL     1      -1.431  12.198  18.029  0.00  0.00    +0.000 C 
ATOM     13  C   UNL     1      -0.800  11.187  18.894  0.00  0.00    +0.000 A 
ATOM     14  C   UNL     1      -0.063  10.055  18.658  0.00  0.00    +0.000 A 
ATOM     15  C   UNL     1       0.349   9.625  19.944  0.00  0.00    +0.000 A 
ATOM     16  N   UNL     1      -0.204  10.390  20.903  0.00  0.00    +0.000 NA
ATOM     17  O   UNL     1      -0.907  11.380  20.235  0.00  0.00    +0.000 OA
ENDBRANCH   8  15
ENDBRANCH   1  10
BRANCH   5  18
ATOM     18  C   UNL     1       5.629   4.987  18.686  0.00  0.00    +0.000 C 
BRANCH  18  19
ATOM     19  C   UNL     1       5.869   4.847  17.198  0.00  0.00    +0.000 A 
ATOM     20  C   UNL     1       5.139   3.936  16.412  0.00  0.00    +0.000 A 
ATOM     21 CL   UNL     1       3.654   3.224  16.942  0.00  0.00    +0.000 Cl
ATOM     22  C   UNL     1       5.524   3.633  15.101  0.00  0.00    +0.000 A 
ATOM     23  C   UNL     1       6.594   4.294  14.512  0.00  0.00    +0.000 A 
ATOM     24  C   UNL     1       7.245   5.297  15.221  0.00  0.00    +0.000 A 
ATOM     25  C   UNL     1       6.884   5.577  16.546  0.00  0.00    +0.000 A 
ATOM     26 CL   UNL     1       7.689   6.918  17.286  0.00  0.00    +0.000 Cl
ENDBRANCH  18  19
ENDBRANCH   5  18
TORSDOF 4
ENDMDL
MODEL 9
REMARK VINA RESULT:      -7.5      5.959      6.928
REMARK  Name = 
REMARK  7 active torsions:
REMARK  status: ('A' for Active; 'I' for Inactive)
REMARK    1  A    between atoms: C_1  and  C_2
REMARK    2  A    between atoms: C_4  and  C_5
REMARK    3  A    between atoms: N_7  and  C_8
REMARK    4  A    between atoms: C_9  and  C_10
REMARK    5  A    between atoms: N_12  and  C_13
REMARK    6  A    between atoms: C_13  and  C_14
REMARK    7  A    between atoms: C_22  and  C_23
REMARK                            x       y       z     vdW  Elec       q    Type
REMARK                         _______ _______ _______ _____ _____    ______ ____
ROOT
ATOM      1  C   UNL     1       1.158   8.896  19.797  0.00  0.00    +0.000 A 
ATOM      2  C   UNL     1       0.814   8.181  20.967  0.00  0.00    +0.000 A 
ATOM      3  C   UNL     1      -0.238   8.477  21.971  0.00  0.00    +0.000 C 
ATOM      4  N   UNL     1       1.518   7.049  21.065  0.00  0.00    +0.000 NA
ATOM      5  N   UNL     1       2.308   7.030  19.969  0.00  0.00    +0.000 N 
ATOM      6  C   UNL     1       2.099   8.119  19.153  0.00  0.00    +0.000 A 
ATOM      7  C   UNL     1       2.863   8.435  17.919  0.00  0.00    +0.000 C 
ENDROOT
BRANCH   1  10
ATOM      8  C   UNL     1       0.913  11.282  20.039  0.00  0.00    +0.000 C 
ATOM      9  O   UNL     1       1.498  11.358  21.118  0.00  0.00    +0.000 OA
ATOM     10  N   UNL     1       0.705  10.109  19.329  0.00  0.00    +0.000 N 
ATOM     11  H   UNL     1       0.568  10.229  18.332  0.00  0.00    +0.000 HD
BRANCH   8  15
ATOM     12  C   UNL     1      -0.279  16.011  18.672  0.00  0.00    +0.000 C 
ATOM     13  C   UNL     1      -0.038  14.567  18.826  0.00  0.00    +0.000 A 
ATOM     14  C   UNL     1       0.800  13.817  19.610  0.00  0.00    +0.000 A 
ATOM     15  C   UNL     1       0.421  12.475  19.355  0.00  0.00    +0.000 A 
ATOM     16  N   UNL     1      -0.513  12.419  18.388  0.00  0.00    +0.000 NA
ATOM     17  O   UNL     1      -0.811  13.736  18.077  0.00  0.00    +0.000 OA
ENDBRANCH   8  15
ENDBRANCH   1  10
BRANCH   5  18
ATOM     18  C   UNL     1       3.301   5.953  19.854  0.00  0.00    +0.000 C 
BRANCH  18  19
ATOM     19  C   UNL     1       2.838   4.863  18.910  0.00  0.00    +0.000 A 
ATOM     20  C   UNL     1       1.830   3.949  19.270  0.00  0.00    +0.000 A 
ATOM     21 CL   UNL     1       0.749   4.222  20.593  0.00  0.00    +0.000 Cl
ATOM     22  C   UNL     1       1.578   2.804  18.505  0.00  0.00    +0.000 A 
ATOM     23  C   UNL     1       2.263   2.588  17.317  0.00  0.00    +0.000 A 
ATOM     24  C   UNL     1       3.165   3.547  16.869  0.00  0.00    +0.000 A 
ATOM     25  C   UNL     1       3.446   4.675  17.651  0.00  0.00    +0.000 A 
ATOM     26 CL   UNL     1       4.498   5.850  16.940  0.00  0.00    +0.000 Cl
ENDBRANCH  18  19
ENDBRANCH   5  18
TORSDOF 4
ENDMDL
