MODEL 1
REMARK VINA RESULT:      -5.2      0.000      0.000
REMARK  Name = 
REMARK  1 active torsions:
REMARK  status: ('A' for Active; 'I' for Inactive)
REMARK    1  A    between atoms: C_4  and  C_5
REMARK                            x       y       z     vdW  Elec       q    Type
REMARK                         _______ _______ _______ _____ _____    ______ ____
ROOT
ATOM      1  C   UNL     1       6.750   5.316  17.141  0.00  0.00    +0.000 C 
ATOM      2  C   UNL     1       7.445   6.664  17.238  0.00  0.00    +0.000 C 
ATOM      3  C   UNL     1       7.874   6.717  18.693  0.00  0.00    +0.000 C 
ATOM      4  C   UNL     1       8.068   5.258  19.090  0.00  0.00    +0.000 C 
ATOM      5  N   UNL     1       7.627   4.456  17.949  0.00  0.00    +0.000 NA
ATOM      6  H   UNL     1       7.116   3.629  18.253  0.00  0.00    +0.000 HD
ENDROOT
BRANCH   1  10
ATOM      7  C   UNL     1       6.218   3.904  13.746  0.00  0.00    +0.000 A 
ATOM      8  C   UNL     1       7.242   4.815  13.636  0.00  0.00    +0.000 A 
ATOM      9  O   UNL     1       7.495   5.394  14.838  0.00  0.00    +0.000 OA
ATOM     10  C   UNL     1       6.624   4.848  15.738  0.00  0.00    +0.000 A 
ATOM     11  C   UNL     1       5.814   3.927  15.103  0.00  0.00    +0.000 A 
ENDBRANCH   1  10
TORSDOF 1
ENDMDL
MODEL 2
REMARK VINA RESULT:      -5.2      3.465      4.323
REMARK  Name = 
REMARK  1 active torsions:
REMARK  status: ('A' for Active; 'I' for Inactive)
REMARK    1  A    between atoms: C_4  and  C_5
REMARK                            x       y       z     vdW  Elec       q    Type
REMARK                         _______ _______ _______ _____ _____    ______ ____
ROOT
ATOM      1  C   UNL     1       5.156   4.369  17.432  0.00  0.00    +0.000 C 
ATOM      2  C   UNL     1       5.680   4.088  16.032  0.00  0.00    +0.000 C 
ATOM      3  C   UNL     1       7.071   4.694  16.067  0.00  0.00    +0.000 C 
ATOM      4  C   UNL     1       7.497   4.598  17.526  0.00  0.00    +0.000 C 
ATOM      5  N   UNL     1       6.337   4.098  18.264  0.00  0.00    +0.000 NA
ATOM      6  H   UNL     1       6.241   4.564  19.164  0.00  0.00    +0.000 HD
ENDROOT
BRANCH   1  10
ATOM      7  C   UNL     1       2.080   2.385  18.070  0.00  0.00    +0.000 A 
ATOM      8  C   UNL     1       2.977   2.047  19.056  0.00  0.00    +0.000 A 
ATOM      9  O   UNL     1       4.144   2.721  18.890  0.00  0.00    +0.000 OA
ATOM     10  C   UNL     1       3.999   3.508  17.783  0.00  0.00    +0.000 A 
ATOM     11  C   UNL     1       2.741   3.325  17.243  0.00  0.00    +0.000 A 
ENDBRANCH   1  10
TORSDOF 1
ENDMDL
MODEL 3
REMARK VINA RESULT:      -5.1      1.560      4.263
REMARK  Name = 
REMARK  1 active torsions:
REMARK  status: ('A' for Active; 'I' for Inactive)
REMARK    1  A    between atoms: C_4  and  C_5
REMARK                            x       y       z     vdW  Elec       q    Type
REMARK                         _______ _______ _______ _____ _____    ______ ____
ROOT
ATOM      1  C   UNL     1       6.561   5.381  15.363  0.00  0.00    +0.000 C 
ATOM      2  C   UNL     1       6.052   3.953  15.241  0.00  0.00    +0.000 C 
ATOM      3  C   UNL     1       6.017   3.736  13.739  0.00  0.00    +0.000 C 
ATOM      4  C   UNL     1       7.107   4.650  13.193  0.00  0.00    +0.000 C 
ATOM      5  N   UNL     1       7.605   5.426  14.329  0.00  0.00    +0.000 NA
ATOM      6  H   UNL     1       7.790   6.392  14.065  0.00  0.00    +0.000 HD
ENDROOT
BRANCH   1  10
ATOM      7  C   UNL     1       7.774   5.804  18.848  0.00  0.00    +0.000 A 
ATOM      8  C   UNL     1       7.866   7.038  18.248  0.00  0.00    +0.000 A 
ATOM      9  O   UNL     1       7.453   6.971  16.957  0.00  0.00    +0.000 OA
ATOM     10  C   UNL     1       7.086   5.677  16.719  0.00  0.00    +0.000 A 
ATOM     11  C   UNL     1       7.275   4.922  17.860  0.00  0.00    +0.000 A 
ENDBRANCH   1  10
TORSDOF 1
ENDMDL
MODEL 4
REMARK VINA RESULT:      -5.0      3.398      4.256
REMARK  Name = 
REMARK  1 active torsions:
REMARK  status: ('A' for Active; 'I' for Inactive)
REMARK    1  A    between atoms: C_4  and  C_5
REMARK                            x       y       z     vdW  Elec       q    Type
REMARK                         _______ _______ _______ _____ _____    ______ ____
ROOT
ATOM      1  C   UNL     1       5.095   4.493  17.323  0.00  0.00    +0.000 C 
ATOM      2  C   UNL     1       5.624   4.162  15.936  0.00  0.00    +0.000 C 
ATOM      3  C   UNL     1       7.061   4.644  16.001  0.00  0.00    +0.000 C 
ATOM      4  C   UNL     1       7.444   4.517  17.471  0.00  0.00    +0.000 C 
ATOM      5  N   UNL     1       6.229   4.123  18.183  0.00  0.00    +0.000 NA
ATOM      6  H   UNL     1       6.153   4.599  19.079  0.00  0.00    +0.000 HD
ENDROOT
BRANCH   1  10
ATOM      7  C   UNL     1       2.186   2.314  18.091  0.00  0.00    +0.000 A 
ATOM      8  C   UNL     1       1.702   3.598  18.003  0.00  0.00    +0.000 A 
ATOM      9  O   UNL     1       2.709   4.469  17.736  0.00  0.00    +0.000 OA
ATOM     10  C   UNL     1       3.859   3.738  17.648  0.00  0.00    +0.000 A 
ATOM     11  C   UNL     1       3.581   2.403  17.868  0.00  0.00    +0.000 A 
ENDBRANCH   1  10
TORSDOF 1
ENDMDL
MODEL 5
REMARK VINA RESULT:      -5.0      1.487      1.959
REMARK  Name = 
REMARK  1 active torsions:
REMARK  status: ('A' for Active; 'I' for Inactive)
REMARK    1  A    between atoms: C_4  and  C_5
REMARK                            x       y       z     vdW  Elec       q    Type
REMARK                         _______ _______ _______ _____ _____    ______ ____
ROOT
ATOM      1  C   UNL     1       6.485   5.257  15.840  0.00  0.00    +0.000 C 
ATOM      2  C   UNL     1       5.186   6.023  16.029  0.00  0.00    +0.000 C 
ATOM      3  C   UNL     1       5.411   6.746  17.345  0.00  0.00    +0.000 C 
ATOM      4  C   UNL     1       6.920   6.945  17.421  0.00  0.00    +0.000 C 
ATOM      5  N   UNL     1       7.490   6.238  16.274  0.00  0.00    +0.000 NA
ATOM      6  H   UNL     1       8.354   5.761  16.525  0.00  0.00    +0.000 HD
ENDROOT
BRANCH   1  10
ATOM      7  C   UNL     1       6.756   3.907  12.390  0.00  0.00    +0.000 A 
ATOM      8  C   UNL     1       7.712   4.889  12.503  0.00  0.00    +0.000 A 
ATOM      9  O   UNL     1       7.674   5.450  13.739  0.00  0.00    +0.000 OA
ATOM     10  C   UNL     1       6.681   4.821  14.435  0.00  0.00    +0.000 A 
ATOM     11  C   UNL     1       6.086   3.865  13.636  0.00  0.00    +0.000 A 
ENDBRANCH   1  10
TORSDOF 1
ENDMDL
MODEL 6
REMARK VINA RESULT:      -5.0      3.204      3.832
REMARK  Name = 
REMARK  1 active torsions:
REMARK  status: ('A' for Active; 'I' for Inactive)
REMARK    1  A    between atoms: C_4  and  C_5
REMARK                            x       y       z     vdW  Elec       q    Type
REMARK                         _______ _______ _______ _____ _____    ______ ____
ROOT
ATOM      1  C   UNL     1       5.321   5.129  18.381  0.00  0.00    +0.000 C 
ATOM      2  C   UNL     1       5.756   6.273  17.478  0.00  0.00    +0.000 C 
ATOM      3  C   UNL     1       7.265   6.271  17.638  0.00  0.00    +0.000 C 
ATOM      4  C   UNL     1       7.617   4.824  17.961  0.00  0.00    +0.000 C 
ATOM      5  N   UNL     1       6.347   4.113  18.109  0.00  0.00    +0.000 NA
ATOM      6  H   UNL     1       6.385   3.444  18.877  0.00  0.00    +0.000 HD
ENDROOT
BRANCH   1  10
ATOM      7  C   UNL     1       1.774   4.251  17.709  0.00  0.00    +0.000 A 
ATOM      8  C   UNL     1       2.504   3.099  17.532  0.00  0.00    +0.000 A 
ATOM      9  O   UNL     1       3.824   3.334  17.747  0.00  0.00    +0.000 OA
ATOM     10  C   UNL     1       3.950   4.656  18.068  0.00  0.00    +0.000 A 
ATOM     11  C   UNL     1       2.707   5.259  18.050  0.00  0.00    +0.000 A 
ENDBRANCH   1  10
TORSDOF 1
ENDMDL
MODEL 7
REMARK VINA RESULT:      -5.0      3.476      4.796
REMARK  Name = 
REMARK  1 active torsions:
REMARK  status: ('A' for Active; 'I' for Inactive)
REMARK    1  A    between atoms: C_4  and  C_5
REMARK                            x       y       z     vdW  Elec       q    Type
REMARK                         _______ _______ _______ _____ _____    ______ ____
ROOT
ATOM      1  C   UNL     1       4.412   4.889  18.928  0.00  0.00    +0.000 C 
ATOM      2  C   UNL     1       3.553   5.036  17.682  0.00  0.00    +0.000 C 
ATOM      3  C   UNL     1       2.150   4.805  18.213  0.00  0.00    +0.000 C 
ATOM      4  C   UNL     1       2.208   5.260  19.666  0.00  0.00    +0.000 C 
ATOM      5  N   UNL     1       3.607   5.584  19.943  0.00  0.00    +0.000 NA
ATOM      6  H   UNL     1       3.882   5.276  20.874  0.00  0.00    +0.000 HD
ENDROOT
BRANCH   1  10
ATOM      7  C   UNL     1       7.679   6.493  18.185  0.00  0.00    +0.000 A 
ATOM      8  C   UNL     1       7.844   5.792  19.356  0.00  0.00    +0.000 A 
ATOM      9  O   UNL     1       6.685   5.181  19.712  0.00  0.00    +0.000 OA
ATOM     10  C   UNL     1       5.759   5.489  18.757  0.00  0.00    +0.000 A 
ATOM     11  C   UNL     1       6.331   6.303  17.799  0.00  0.00    +0.000 A 
ENDBRANCH   1  10
TORSDOF 1
ENDMDL
MODEL 8
REMARK VINA RESULT:      -4.9      3.177      4.436
REMARK  Name = 
REMARK  1 active torsions:
REMARK  status: ('A' for Active; 'I' for Inactive)
REMARK    1  A    between atoms: C_4  and  C_5
REMARK                            x       y       z     vdW  Elec       q    Type
REMARK                         _______ _______ _______ _____ _____    ______ ____
ROOT
ATOM      1  C   UNL     1       4.915   4.055  18.361  0.00  0.00    +0.000 C 
ATOM      2  C   UNL     1       3.601   4.625  18.872  0.00  0.00    +0.000 C 
ATOM      3  C   UNL     1       2.832   3.381  19.279  0.00  0.00    +0.000 C 
ATOM      4  C   UNL     1       3.908   2.371  19.659  0.00  0.00    +0.000 C 
ATOM      5  N   UNL     1       5.192   2.992  19.337  0.00  0.00    +0.000 NA
ATOM      6  H   UNL     1       5.840   2.316  18.937  0.00  0.00    +0.000 HD
ENDROOT
BRANCH   1  10
ATOM      7  C   UNL     1       7.481   6.705  17.921  0.00  0.00    +0.000 A 
ATOM      8  C   UNL     1       7.831   6.004  19.051  0.00  0.00    +0.000 A 
ATOM      9  O   UNL     1       6.931   5.017  19.296  0.00  0.00    +0.000 OA
ATOM     10  C   UNL     1       5.989   5.079  18.310  0.00  0.00    +0.000 A 
ATOM     11  C   UNL     1       6.289   6.112  17.443  0.00  0.00    +0.000 A 
ENDBRANCH   1  10
TORSDOF 1
ENDMDL
MODEL 9
REMARK VINA RESULT:      -4.9      1.242      1.739
REMARK  Name = 
REMARK  1 active torsions:
REMARK  status: ('A' for Active; 'I' for Inactive)
REMARK    1  A    between atoms: C_4  and  C_5
REMARK                            x       y       z     vdW  Elec       q    Type
REMARK                         _______ _______ _______ _____ _____    ______ ____
ROOT
ATOM      1  C   UNL     1       6.432   4.330  15.896  0.00  0.00    +0.000 C 
ATOM      2  C   UNL     1       5.433   5.384  16.348  0.00  0.00    +0.000 C 
ATOM      3  C   UNL     1       5.647   5.425  17.850  0.00  0.00    +0.000 C 
ATOM      4  C   UNL     1       7.104   5.020  18.043  0.00  0.00    +0.000 C 
ATOM      5  N   UNL     1       7.606   4.641  16.723  0.00  0.00    +0.000 NA
ATOM      6  H   UNL     1       8.216   3.828  16.778  0.00  0.00    +0.000 HD
ENDROOT
BRANCH   1  10
ATOM      7  C   UNL     1       6.943   4.265  12.216  0.00  0.00    +0.000 A 
ATOM      8  C   UNL     1       7.823   5.195  12.718  0.00  0.00    +0.000 A 
ATOM      9  O   UNL     1       7.693   5.294  14.067  0.00  0.00    +0.000 OA
ATOM     10  C   UNL     1       6.717   4.414  14.441  0.00  0.00    +0.000 A 
ATOM     11  C   UNL     1       6.224   3.763  13.328  0.00  0.00    +0.000 A 
ENDBRANCH   1  10
TORSDOF 1
ENDMDL
