MODEL 1
REMARK VINA RESULT:      -6.0      0.000      0.000
REMARK  Name = 
REMARK  0 active torsions:
REMARK  status: ('A' for Active; 'I' for Inactive)
REMARK                            x       y       z     vdW  Elec       q    Type
REMARK                         _______ _______ _______ _____ _____    ______ ____
ROOT
ATOM      1  N   UNL     1       7.478   5.189  14.914  0.00  0.00    +0.000 N 
ATOM      2  C   UNL     1       6.389   5.357  15.763  0.00  0.00    +0.000 A 
ATOM      3  C   UNL     1       5.502   4.311  15.986  0.00  0.00    +0.000 A 
ATOM      4  C   UNL     1       4.370   4.529  16.784  0.00  0.00    +0.000 A 
ATOM      5  C   UNL     1       3.428   3.517  17.032  0.00  0.00    +0.000 A 
ATOM      6  C   UNL     1       2.290   3.776  17.799  0.00  0.00    +0.000 A 
ATOM      7  C   UNL     1       2.084   5.045  18.335  0.00  0.00    +0.000 A 
ATOM      8  C   UNL     1       3.019   6.057  18.111  0.00  0.00    +0.000 A 
ATOM      9  C   UNL     1       4.166   5.806  17.335  0.00  0.00    +0.000 A 
ATOM     10  C   UNL     1       5.130   6.778  17.062  0.00  0.00    +0.000 A 
ATOM     11  N   UNL     1       6.225   6.579  16.289  0.00  0.00    +0.000 NA
ATOM     12  H   UNL     1       8.047   4.394  15.178  0.00  0.00    +0.000 HD
ATOM     13  H   UNL     1       8.003   6.059  14.933  0.00  0.00    +0.000 HD
ENDROOT
TORSDOF 0
ENDMDL
MODEL 2
REMARK VINA RESULT:      -5.8      2.019      2.631
REMARK  Name = 
REMARK  0 active torsions:
REMARK  status: ('A' for Active; 'I' for Inactive)
REMARK                            x       y       z     vdW  Elec       q    Type
REMARK                         _______ _______ _______ _____ _____    ______ ____
ROOT
ATOM      1  N   UNL     1       5.844   3.765  16.340  0.00  0.00    +0.000 N 
ATOM      2  C   UNL     1       4.963   3.953  17.400  0.00  0.00    +0.000 A 
ATOM      3  C   UNL     1       3.794   3.208  17.484  0.00  0.00    +0.000 A 
ATOM      4  C   UNL     1       2.885   3.470  18.519  0.00  0.00    +0.000 A 
ATOM      5  C   UNL     1       1.679   2.763  18.648  0.00  0.00    +0.000 A 
ATOM      6  C   UNL     1       0.777   3.074  19.668  0.00  0.00    +0.000 A 
ATOM      7  C   UNL     1       1.073   4.089  20.575  0.00  0.00    +0.000 A 
ATOM      8  C   UNL     1       2.275   4.789  20.471  0.00  0.00    +0.000 A 
ATOM      9  C   UNL     1       3.187   4.485  19.444  0.00  0.00    +0.000 A 
ATOM     10  C   UNL     1       4.399   5.158  19.276  0.00  0.00    +0.000 A 
ATOM     11  N   UNL     1       5.282   4.916  18.277  0.00  0.00    +0.000 NA
ATOM     12  H   UNL     1       6.124   2.797  16.245  0.00  0.00    +0.000 HD
ATOM     13  H   UNL     1       6.637   4.380  16.503  0.00  0.00    +0.000 HD
ENDROOT
TORSDOF 0
ENDMDL
MODEL 3
REMARK VINA RESULT:      -5.7      1.504      1.753
REMARK  Name = 
REMARK  0 active torsions:
REMARK  status: ('A' for Active; 'I' for Inactive)
REMARK                            x       y       z     vdW  Elec       q    Type
REMARK                         _______ _______ _______ _____ _____    ______ ____
ROOT
ATOM      1  N   UNL     1       7.507   5.222  14.394  0.00  0.00    +0.000 N 
ATOM      2  C   UNL     1       6.876   4.878  15.584  0.00  0.00    +0.000 A 
ATOM      3  C   UNL     1       5.536   4.511  15.590  0.00  0.00    +0.000 A 
ATOM      4  C   UNL     1       4.902   4.244  16.812  0.00  0.00    +0.000 A 
ATOM      5  C   UNL     1       3.546   3.885  16.884  0.00  0.00    +0.000 A 
ATOM      6  C   UNL     1       2.934   3.663  18.120  0.00  0.00    +0.000 A 
ATOM      7  C   UNL     1       3.670   3.789  19.296  0.00  0.00    +0.000 A 
ATOM      8  C   UNL     1       5.023   4.129  19.240  0.00  0.00    +0.000 A 
ATOM      9  C   UNL     1       5.646   4.358  17.999  0.00  0.00    +0.000 A 
ATOM     10  C   UNL     1       6.990   4.716  17.876  0.00  0.00    +0.000 A 
ATOM     11  N   UNL     1       7.611   4.980  16.701  0.00  0.00    +0.000 NA
ATOM     12  H   UNL     1       7.415   4.499  13.691  0.00  0.00    +0.000 HD
ATOM     13  H   UNL     1       8.480   5.414  14.620  0.00  0.00    +0.000 HD
ENDROOT
TORSDOF 0
ENDMDL
MODEL 4
REMARK VINA RESULT:      -5.7      2.383      3.283
REMARK  Name = 
REMARK  0 active torsions:
REMARK  status: ('A' for Active; 'I' for Inactive)
REMARK                            x       y       z     vdW  Elec       q    Type
REMARK                         _______ _______ _______ _____ _____    ______ ____
ROOT
ATOM      1  N   UNL     1       6.703   4.246  18.114  0.00  0.00    +0.000 N 
ATOM      2  C   UNL     1       5.331   4.041  18.218  0.00  0.00    +0.000 A 
ATOM      3  C   UNL     1       4.742   3.832  19.459  0.00  0.00    +0.000 A 
ATOM      4  C   UNL     1       3.371   3.550  19.530  0.00  0.00    +0.000 A 
ATOM      5  C   UNL     1       2.722   3.313  20.753  0.00  0.00    +0.000 A 
ATOM      6  C   UNL     1       1.362   2.996  20.786  0.00  0.00    +0.000 A 
ATOM      7  C   UNL     1       0.634   2.921  19.602  0.00  0.00    +0.000 A 
ATOM      8  C   UNL     1       1.260   3.170  18.380  0.00  0.00    +0.000 A 
ATOM      9  C   UNL     1       2.631   3.485  18.336  0.00  0.00    +0.000 A 
ATOM     10  C   UNL     1       3.320   3.730  17.147  0.00  0.00    +0.000 A 
ATOM     11  N   UNL     1       4.645   3.999  17.067  0.00  0.00    +0.000 NA
ATOM     12  H   UNL     1       7.020   5.007  18.703  0.00  0.00    +0.000 HD
ATOM     13  H   UNL     1       6.903   4.414  17.131  0.00  0.00    +0.000 HD
ENDROOT
TORSDOF 0
ENDMDL
MODEL 5
REMARK VINA RESULT:      -5.7      0.781      2.084
REMARK  Name = 
REMARK  0 active torsions:
REMARK  status: ('A' for Active; 'I' for Inactive)
REMARK                            x       y       z     vdW  Elec       q    Type
REMARK                         _______ _______ _______ _____ _____    ______ ____
ROOT
ATOM      1  N   UNL     1       7.620   6.548  16.345  0.00  0.00    +0.000 N 
ATOM      2  C   UNL     1       6.450   5.811  16.500  0.00  0.00    +0.000 A 
ATOM      3  C   UNL     1       5.332   6.381  17.096  0.00  0.00    +0.000 A 
ATOM      4  C   UNL     1       4.192   5.595  17.311  0.00  0.00    +0.000 A 
ATOM      5  C   UNL     1       3.037   6.109  17.923  0.00  0.00    +0.000 A 
ATOM      6  C   UNL     1       1.932   5.289  18.158  0.00  0.00    +0.000 A 
ATOM      7  C   UNL     1       1.962   3.950  17.777  0.00  0.00    +0.000 A 
ATOM      8  C   UNL     1       3.095   3.428  17.152  0.00  0.00    +0.000 A 
ATOM      9  C   UNL     1       4.216   4.246  16.916  0.00  0.00    +0.000 A 
ATOM     10  C   UNL     1       5.385   3.781  16.310  0.00  0.00    +0.000 A 
ATOM     11  N   UNL     1       6.494   4.532  16.101  0.00  0.00    +0.000 NA
ATOM     12  H   UNL     1       7.459   7.419  15.855  0.00  0.00    +0.000 HD
ATOM     13  H   UNL     1       8.282   5.951  15.857  0.00  0.00    +0.000 HD
ENDROOT
TORSDOF 0
ENDMDL
MODEL 6
REMARK VINA RESULT:      -5.7      3.249      4.675
REMARK  Name = 
REMARK  0 active torsions:
REMARK  status: ('A' for Active; 'I' for Inactive)
REMARK                            x       y       z     vdW  Elec       q    Type
REMARK                         _______ _______ _______ _____ _____    ______ ____
ROOT
ATOM      1  N   UNL     1       1.847   7.802  21.173  0.00  0.00    +0.000 N 
ATOM      2  C   UNL     1       1.952   6.760  20.258  0.00  0.00    +0.000 A 
ATOM      3  C   UNL     1       1.564   5.473  20.608  0.00  0.00    +0.000 A 
ATOM      4  C   UNL     1       1.752   4.427  19.694  0.00  0.00    +0.000 A 
ATOM      5  C   UNL     1       1.397   3.102  19.996  0.00  0.00    +0.000 A 
ATOM      6  C   UNL     1       1.633   2.075  19.079  0.00  0.00    +0.000 A 
ATOM      7  C   UNL     1       2.218   2.361  17.848  0.00  0.00    +0.000 A 
ATOM      8  C   UNL     1       2.562   3.674  17.526  0.00  0.00    +0.000 A 
ATOM      9  C   UNL     1       2.332   4.714  18.446  0.00  0.00    +0.000 A 
ATOM     10  C   UNL     1       2.666   6.045  18.192  0.00  0.00    +0.000 A 
ATOM     11  N   UNL     1       2.493   7.063  19.069  0.00  0.00    +0.000 NA
ATOM     12  H   UNL     1       0.910   7.887  21.548  0.00  0.00    +0.000 HD
ATOM     13  H   UNL     1       2.145   8.648  20.694  0.00  0.00    +0.000 HD
ENDROOT
TORSDOF 0
ENDMDL
MODEL 7
REMARK VINA RESULT:      -5.7      1.564      2.160
REMARK  Name = 
REMARK  0 active torsions:
REMARK  status: ('A' for Active; 'I' for Inactive)
REMARK                            x       y       z     vdW  Elec       q    Type
REMARK                         _______ _______ _______ _____ _____    ______ ____
ROOT
ATOM      1  N   UNL     1       7.458   5.167  14.112  0.00  0.00    +0.000 N 
ATOM      2  C   UNL     1       6.927   5.084  15.395  0.00  0.00    +0.000 A 
ATOM      3  C   UNL     1       5.620   5.483  15.645  0.00  0.00    +0.000 A 
ATOM      4  C   UNL     1       5.135   5.463  16.959  0.00  0.00    +0.000 A 
ATOM      5  C   UNL     1       3.828   5.870  17.276  0.00  0.00    +0.000 A 
ATOM      6  C   UNL     1       3.387   5.875  18.602  0.00  0.00    +0.000 A 
ATOM      7  C   UNL     1       4.241   5.465  19.623  0.00  0.00    +0.000 A 
ATOM      8  C   UNL     1       5.536   5.042  19.322  0.00  0.00    +0.000 A 
ATOM      9  C   UNL     1       5.990   5.038  17.991  0.00  0.00    +0.000 A 
ATOM     10  C   UNL     1       7.278   4.642  17.625  0.00  0.00    +0.000 A 
ATOM     11  N   UNL     1       7.759   4.661  16.358  0.00  0.00    +0.000 NA
ATOM     12  H   UNL     1       6.886   4.682  13.432  0.00  0.00    +0.000 HD
ATOM     13  H   UNL     1       8.401   4.790  14.158  0.00  0.00    +0.000 HD
ENDROOT
TORSDOF 0
ENDMDL
MODEL 8
REMARK VINA RESULT:      -5.7      2.945      4.428
REMARK  Name = 
REMARK  0 active torsions:
REMARK  status: ('A' for Active; 'I' for Inactive)
REMARK                            x       y       z     vdW  Elec       q    Type
REMARK                         _______ _______ _______ _____ _____    ______ ____
ROOT
ATOM      1  N   UNL     1       0.917   1.781  18.655  0.00  0.00    +0.000 N 
ATOM      2  C   UNL     1       1.878   2.726  18.308  0.00  0.00    +0.000 A 
ATOM      3  C   UNL     1       1.636   4.080  18.500  0.00  0.00    +0.000 A 
ATOM      4  C   UNL     1       2.587   5.015  18.071  0.00  0.00    +0.000 A 
ATOM      5  C   UNL     1       2.393   6.398  18.222  0.00  0.00    +0.000 A 
ATOM      6  C   UNL     1       3.343   7.306  17.748  0.00  0.00    +0.000 A 
ATOM      7  C   UNL     1       4.501   6.844  17.128  0.00  0.00    +0.000 A 
ATOM      8  C   UNL     1       4.717   5.473  16.985  0.00  0.00    +0.000 A 
ATOM      9  C   UNL     1       3.763   4.551  17.455  0.00  0.00    +0.000 A 
ATOM     10  C   UNL     1       3.912   3.169  17.329  0.00  0.00    +0.000 A 
ATOM     11  N   UNL     1       2.996   2.256  17.737  0.00  0.00    +0.000 NA
ATOM     12  H   UNL     1       0.621   1.876  19.619  0.00  0.00    +0.000 HD
ATOM     13  H   UNL     1       1.320   0.867  18.467  0.00  0.00    +0.000 HD
ENDROOT
TORSDOF 0
ENDMDL
MODEL 9
REMARK VINA RESULT:      -5.7      2.876      4.122
REMARK  Name = 
REMARK  0 active torsions:
REMARK  status: ('A' for Active; 'I' for Inactive)
REMARK                            x       y       z     vdW  Elec       q    Type
REMARK                         _______ _______ _______ _____ _____    ______ ____
ROOT
ATOM      1  N   UNL     1       1.483   1.742  18.665  0.00  0.00    +0.000 N 
ATOM      2  C   UNL     1       2.090   2.940  18.303  0.00  0.00    +0.000 A 
ATOM      3  C   UNL     1       3.149   2.950  17.404  0.00  0.00    +0.000 A 
ATOM      4  C   UNL     1       3.794   4.161  17.115  0.00  0.00    +0.000 A 
ATOM      5  C   UNL     1       4.880   4.233  16.228  0.00  0.00    +0.000 A 
ATOM      6  C   UNL     1       5.526   5.448  15.992  0.00  0.00    +0.000 A 
ATOM      7  C   UNL     1       5.089   6.607  16.630  0.00  0.00    +0.000 A 
ATOM      8  C   UNL     1       4.000   6.555  17.502  0.00  0.00    +0.000 A 
ATOM      9  C   UNL     1       3.347   5.333  17.750  0.00  0.00    +0.000 A 
ATOM     10  C   UNL     1       2.263   5.212  18.621  0.00  0.00    +0.000 A 
ATOM     11  N   UNL     1       1.635   4.046  18.910  0.00  0.00    +0.000 NA
ATOM     12  H   UNL     1       1.167   1.217  17.859  0.00  0.00    +0.000 HD
ATOM     13  H   UNL     1       0.719   1.976  19.293  0.00  0.00    +0.000 HD
ENDROOT
TORSDOF 0
ENDMDL
