MODEL 1
REMARK VINA RESULT:      -9.5      0.000      0.000
REMARK  Name = 
REMARK  10 active torsions:
REMARK  status: ('A' for Active; 'I' for Inactive)
REMARK    1  A    between atoms: C_2  and  O_3
REMARK    2  A    between atoms: C_2  and  C_4
REMARK    3  A    between atoms: C_5  and  C_6
REMARK    4  A    between atoms: C_8  and  O_9
REMARK    5  A    between atoms: O_9  and  C_10
REMARK    6  A    between atoms: C_10  and  C_11
REMARK    7  A    between atoms: C_18  and  C_19
REMARK    8  A    between atoms: N_21  and  C_22
REMARK    9  A    between atoms: C_22  and  C_23
REMARK   10  A    between atoms: C_23  and  C_24
REMARK                            x       y       z     vdW  Elec       q    Type
REMARK                         _______ _______ _______ _____ _____    ______ ____
ROOT
ATOM      1  C   UNL     1       5.827   4.559  15.729  0.00  0.00    +0.000 A 
ATOM      2  C   UNL     1       4.505   4.713  16.153  0.00  0.00    +0.000 A 
ATOM      3  C   UNL     1       4.203   5.544  17.232  0.00  0.00    +0.000 A 
ATOM      4  C   UNL     1       5.222   6.257  17.861  0.00  0.00    +0.000 A 
ATOM      5  C   UNL     1       6.551   6.112  17.441  0.00  0.00    +0.000 A 
ATOM      6  C   UNL     1       6.855   5.244  16.385  0.00  0.00    +0.000 A 
ENDROOT
BRANCH   5   7
ATOM      7  C   UNL     1       7.610   6.872  18.159  0.00  0.00    +0.000 C 
ATOM      8  O   UNL     1       8.261   6.326  19.046  0.00  0.00    +0.000 OA
ATOM      9  N   UNL     1       7.776   8.197  17.802  0.00  0.00    +0.000 N 
ATOM     10  H   UNL     1       7.064   8.646  17.246  0.00  0.00    +0.000 HD
BRANCH   9  11
ATOM     11  C   UNL     1       8.708   9.033  18.545  0.00  0.00    +0.000 C 
BRANCH  11  12
ATOM     12  C   UNL     1       8.751  10.471  18.026  0.00  0.00    +0.000 C 
BRANCH  12  13
ATOM     13  C   UNL     1       9.928  11.231  18.587  0.00  0.00    +0.000 A 
ATOM     14  C   UNL     1      10.885  11.786  17.726  0.00  0.00    +0.000 A 
ATOM     15  C   UNL     1      12.003  12.445  18.240  0.00  0.00    +0.000 A 
ATOM     16  C   UNL     1      12.176  12.555  19.619  0.00  0.00    +0.000 A 
ATOM     17  C   UNL     1      11.228  12.011  20.484  0.00  0.00    +0.000 A 
ATOM     18  C   UNL     1      10.108  11.352  19.971  0.00  0.00    +0.000 A 
ENDBRANCH  12  13
ENDBRANCH  11  12
ENDBRANCH   9  11
ENDBRANCH   5   7
BRANCH   1  20
ATOM     19  C   UNL     1       5.568   3.949  13.367  0.00  0.00    +0.000 C 
ATOM     20  C   UNL     1       6.107   3.711  14.572  0.00  0.00    +0.000 C 
BRANCH  19  22
ATOM     21  O   UNL     1       6.991   2.949  11.776  0.00  0.00    +0.000 OA
ATOM     22  C   UNL     1       5.850   3.173  12.145  0.00  0.00    +0.000 C 
BRANCH  22  23
ATOM     23  O   UNL     1       4.765   2.762  11.463  0.00  0.00    +0.000 OA
ATOM     24  H   UNL     1       3.998   2.520  12.010  0.00  0.00    +0.000 HD
ENDBRANCH  22  23
ENDBRANCH  19  22
ENDBRANCH   1  20
BRANCH   3  25
ATOM     25  O   UNL     1       2.943   5.744  17.722  0.00  0.00    +0.000 OA
BRANCH  25  26
ATOM     26  C   UNL     1       2.111   4.579  17.760  0.00  0.00    +0.000 C 
BRANCH  26  27
ATOM     27  C   UNL     1       2.210   3.891  19.098  0.00  0.00    +0.000 A 
ATOM     28  C   UNL     1       1.092   3.854  19.943  0.00  0.00    +0.000 A 
ATOM     29  C   UNL     1       1.154   3.190  21.169  0.00  0.00    +0.000 A 
ATOM     30  C   UNL     1       2.329   2.549  21.554  0.00  0.00    +0.000 A 
ATOM     31  C   UNL     1       3.437   2.557  20.710  0.00  0.00    +0.000 A 
ATOM     32  C   UNL     1       3.376   3.214  19.484  0.00  0.00    +0.000 A 
ENDBRANCH  26  27
ENDBRANCH  25  26
ENDBRANCH   3  25
TORSDOF 10
ENDMDL
MODEL 2
REMARK VINA RESULT:      -9.3      0.523      1.266
REMARK  Name = 
REMARK  10 active torsions:
REMARK  status: ('A' for Active; 'I' for Inactive)
REMARK    1  A    between atoms: C_2  and  O_3
REMARK    2  A    between atoms: C_2  and  C_4
REMARK    3  A    between atoms: C_5  and  C_6
REMARK    4  A    between atoms: C_8  and  O_9
REMARK    5  A    between atoms: O_9  and  C_10
REMARK    6  A    between atoms: C_10  and  C_11
REMARK    7  A    between atoms: C_18  and  C_19
REMARK    8  A    between atoms: N_21  and  C_22
REMARK    9  A    between atoms: C_22  and  C_23
REMARK   10  A    between atoms: C_23  and  C_24
REMARK                            x       y       z     vdW  Elec       q    Type
REMARK                         _______ _______ _______ _____ _____    ______ ____
ROOT
ATOM      1  C   UNL     1       6.053   4.748  15.492  0.00  0.00    +0.000 A 
ATOM      2  C   UNL     1       4.732   4.731  15.947  0.00  0.00    +0.000 A 
ATOM      3  C   UNL     1       4.364   5.471  17.070  0.00  0.00    +0.000 A 
ATOM      4  C   UNL     1       5.311   6.265  17.716  0.00  0.00    +0.000 A 
ATOM      5  C   UNL     1       6.638   6.291  17.266  0.00  0.00    +0.000 A 
ATOM      6  C   UNL     1       7.013   5.514  16.163  0.00  0.00    +0.000 A 
ENDROOT
BRANCH   5   7
ATOM      7  C   UNL     1       7.620   7.132  18.001  0.00  0.00    +0.000 C 
ATOM      8  O   UNL     1       8.229   6.665  18.960  0.00  0.00    +0.000 OA
ATOM      9  N   UNL     1       7.764   8.439  17.575  0.00  0.00    +0.000 N 
ATOM     10  H   UNL     1       7.076   8.827  16.948  0.00  0.00    +0.000 HD
BRANCH   9  11
ATOM     11  C   UNL     1       8.616   9.352  18.323  0.00  0.00    +0.000 C 
BRANCH  11  12
ATOM     12  C   UNL     1       8.556  10.784  17.789  0.00  0.00    +0.000 C 
BRANCH  12  13
ATOM     13  C   UNL     1       9.751  11.594  18.228  0.00  0.00    +0.000 A 
ATOM     14  C   UNL     1      10.536  11.165  19.308  0.00  0.00    +0.000 A 
ATOM     15  C   UNL     1      11.612  11.936  19.752  0.00  0.00    +0.000 A 
ATOM     16  C   UNL     1      11.912  13.144  19.124  0.00  0.00    +0.000 A 
ATOM     17  C   UNL     1      11.141  13.577  18.047  0.00  0.00    +0.000 A 
ATOM     18  C   UNL     1      10.065  12.806  17.600  0.00  0.00    +0.000 A 
ENDBRANCH  12  13
ENDBRANCH  11  12
ENDBRANCH   9  11
ENDBRANCH   5   7
BRANCH   1  20
ATOM     19  C   UNL     1       5.512   3.764  13.312  0.00  0.00    +0.000 C 
ATOM     20  C   UNL     1       6.400   3.993  14.290  0.00  0.00    +0.000 C 
BRANCH  19  22
ATOM     21  O   UNL     1       6.950   2.895  11.658  0.00  0.00    +0.000 OA
ATOM     22  C   UNL     1       5.806   3.062  12.048  0.00  0.00    +0.000 C 
BRANCH  22  23
ATOM     23  O   UNL     1       4.728   2.653  11.355  0.00  0.00    +0.000 OA
ATOM     24  H   UNL     1       4.873   1.882  10.780  0.00  0.00    +0.000 HD
ENDBRANCH  22  23
ENDBRANCH  19  22
ENDBRANCH   1  20
BRANCH   3  25
ATOM     25  O   UNL     1       3.101   5.503  17.591  0.00  0.00    +0.000 OA
BRANCH  25  26
ATOM     26  C   UNL     1       2.403   4.253  17.578  0.00  0.00    +0.000 C 
BRANCH  26  27
ATOM     27  C   UNL     1       2.331   3.663  18.964  0.00  0.00    +0.000 A 
ATOM     28  C   UNL     1       3.460   3.036  19.509  0.00  0.00    +0.000 A 
ATOM     29  C   UNL     1       3.424   2.516  20.805  0.00  0.00    +0.000 A 
ATOM     30  C   UNL     1       2.264   2.628  21.567  0.00  0.00    +0.000 A 
ATOM     31  C   UNL     1       1.145   3.272  21.044  0.00  0.00    +0.000 A 
ATOM     32  C   UNL     1       1.181   3.797  19.755  0.00  0.00    +0.000 A 
ENDBRANCH  26  27
ENDBRANCH  25  26
ENDBRANCH   3  25
TORSDOF 10
ENDMDL
MODEL 3
REMARK VINA RESULT:      -9.3      0.629      1.238
REMARK  Name = 
REMARK  10 active torsions:
REMARK  status: ('A' for Active; 'I' for Inactive)
REMARK    1  A    between atoms: C_2  and  O_3
REMARK    2  A    between atoms: C_2  and  C_4
REMARK    3  A    between atoms: C_5  and  C_6
REMARK    4  A    between atoms: C_8  and  O_9
REMARK    5  A    between atoms: O_9  and  C_10
REMARK    6  A    between atoms: C_10  and  C_11
REMARK    7  A    between atoms: C_18  and  C_19
REMARK    8  A    between atoms: N_21  and  C_22
REMARK    9  A    between atoms: C_22  and  C_23
REMARK   10  A    between atoms: C_23  and  C_24
REMARK                            x       y       z     vdW  Elec       q    Type
REMARK                         _______ _______ _______ _____ _____    ______ ____
ROOT
ATOM      1  C   UNL     1       5.909   4.613  15.766  0.00  0.00    +0.000 A 
ATOM      2  C   UNL     1       4.582   4.761  16.176  0.00  0.00    +0.000 A 
ATOM      3  C   UNL     1       4.265   5.586  17.255  0.00  0.00    +0.000 A 
ATOM      4  C   UNL     1       5.275   6.298  17.900  0.00  0.00    +0.000 A 
ATOM      5  C   UNL     1       6.609   6.158  17.494  0.00  0.00    +0.000 A 
ATOM      6  C   UNL     1       6.927   5.297  16.437  0.00  0.00    +0.000 A 
ENDROOT
BRANCH   5   7
ATOM      7  C   UNL     1       7.657   6.919  18.228  0.00  0.00    +0.000 C 
ATOM      8  O   UNL     1       8.261   6.387  19.156  0.00  0.00    +0.000 OA
ATOM      9  N   UNL     1       7.867   8.228  17.836  0.00  0.00    +0.000 N 
ATOM     10  H   UNL     1       7.187   8.674  17.239  0.00  0.00    +0.000 HD
BRANCH   9  11
ATOM     11  C   UNL     1       8.789   9.066  18.588  0.00  0.00    +0.000 C 
BRANCH  11  12
ATOM     12  C   UNL     1       8.738  10.532  18.155  0.00  0.00    +0.000 C 
BRANCH  12  13
ATOM     13  C   UNL     1      10.015  11.259  18.497  0.00  0.00    +0.000 A 
ATOM     14  C   UNL     1      10.416  11.392  19.834  0.00  0.00    +0.000 A 
ATOM     15  C   UNL     1      11.569  12.108  20.161  0.00  0.00    +0.000 A 
ATOM     16  C   UNL     1      12.332  12.700  19.156  0.00  0.00    +0.000 A 
ATOM     17  C   UNL     1      11.945  12.570  17.823  0.00  0.00    +0.000 A 
ATOM     18  C   UNL     1      10.793  11.853  17.494  0.00  0.00    +0.000 A 
ENDBRANCH  12  13
ENDBRANCH  11  12
ENDBRANCH   9  11
ENDBRANCH   5   7
BRANCH   1  20
ATOM     19  C   UNL     1       5.691   4.024  13.395  0.00  0.00    +0.000 C 
ATOM     20  C   UNL     1       6.205   3.772  14.608  0.00  0.00    +0.000 C 
BRANCH  19  22
ATOM     21  O   UNL     1       5.178   2.489  11.679  0.00  0.00    +0.000 OA
ATOM     22  C   UNL     1       5.991   3.255  12.172  0.00  0.00    +0.000 C 
BRANCH  22  23
ATOM     23  O   UNL     1       7.224   3.440  11.666  0.00  0.00    +0.000 OA
ATOM     24  H   UNL     1       7.934   3.524  12.325  0.00  0.00    +0.000 HD
ENDBRANCH  22  23
ENDBRANCH  19  22
ENDBRANCH   1  20
BRANCH   3  25
ATOM     25  O   UNL     1       2.999   5.778  17.732  0.00  0.00    +0.000 OA
BRANCH  25  26
ATOM     26  C   UNL     1       2.142   4.633  17.672  0.00  0.00    +0.000 C 
BRANCH  26  27
ATOM     27  C   UNL     1       1.920   4.056  19.048  0.00  0.00    +0.000 A 
ATOM     28  C   UNL     1       1.262   2.826  19.185  0.00  0.00    +0.000 A 
ATOM     29  C   UNL     1       1.079   2.259  20.448  0.00  0.00    +0.000 A 
ATOM     30  C   UNL     1       1.563   2.911  21.579  0.00  0.00    +0.000 A 
ATOM     31  C   UNL     1       2.241   4.121  21.452  0.00  0.00    +0.000 A 
ATOM     32  C   UNL     1       2.430   4.686  20.193  0.00  0.00    +0.000 A 
ENDBRANCH  26  27
ENDBRANCH  25  26
ENDBRANCH   3  25
TORSDOF 10
ENDMDL
MODEL 4
REMARK VINA RESULT:      -8.9      4.653      6.265
REMARK  Name = 
REMARK  10 active torsions:
REMARK  status: ('A' for Active; 'I' for Inactive)
REMARK    1  A    between atoms: C_2  and  O_3
REMARK    2  A    between atoms: C_2  and  C_4
REMARK    3  A    between atoms: C_5  and  C_6
REMARK    4  A    between atoms: C_8  and  O_9
REMARK    5  A    between atoms: O_9  and  C_10
REMARK    6  A    between atoms: C_10  and  C_11
REMARK    7  A    between atoms: C_18  and  C_19
REMARK    8  A    between atoms: N_21  and  C_22
REMARK    9  A    between atoms: C_22  and  C_23
REMARK   10  A    between atoms: C_23  and  C_24
REMARK                            x       y       z     vdW  Elec       q    Type
REMARK                         _______ _______ _______ _____ _____    ______ ____
ROOT
ATOM      1  C   UNL     1       5.371   5.302  16.023  0.00  0.00    +0.000 A 
ATOM      2  C   UNL     1       5.671   4.360  17.011  0.00  0.00    +0.000 A 
ATOM      3  C   UNL     1       5.164   4.506  18.302  0.00  0.00    +0.000 A 
ATOM      4  C   UNL     1       4.320   5.577  18.596  0.00  0.00    +0.000 A 
ATOM      5  C   UNL     1       4.012   6.525  17.611  0.00  0.00    +0.000 A 
ATOM      6  C   UNL     1       4.557   6.397  16.328  0.00  0.00    +0.000 A 
ENDROOT
BRANCH   5   7
ATOM      7  C   UNL     1       3.128   7.666  17.977  0.00  0.00    +0.000 C 
ATOM      8  O   UNL     1       3.232   8.735  17.382  0.00  0.00    +0.000 OA
ATOM      9  N   UNL     1       2.244   7.460  19.020  0.00  0.00    +0.000 N 
ATOM     10  H   UNL     1       2.370   6.655  19.614  0.00  0.00    +0.000 HD
BRANCH   9  11
ATOM     11  C   UNL     1       1.437   8.567  19.509  0.00  0.00    +0.000 C 
BRANCH  11  12
ATOM     12  C   UNL     1       1.226   8.517  21.024  0.00  0.00    +0.000 C 
BRANCH  12  13
ATOM     13  C   UNL     1       0.262   9.581  21.488  0.00  0.00    +0.000 A 
ATOM     14  C   UNL     1      -0.151  10.592  20.609  0.00  0.00    +0.000 A 
ATOM     15  C   UNL     1      -1.002  11.609  21.047  0.00  0.00    +0.000 A 
ATOM     16  C   UNL     1      -1.445  11.626  22.368  0.00  0.00    +0.000 A 
ATOM     17  C   UNL     1      -1.044  10.624  23.249  0.00  0.00    +0.000 A 
ATOM     18  C   UNL     1      -0.194   9.605  22.812  0.00  0.00    +0.000 A 
ENDBRANCH  12  13
ENDBRANCH  11  12
ENDBRANCH   9  11
ENDBRANCH   5   7
BRANCH   1  20
ATOM     19  C   UNL     1       6.038   3.877  14.141  0.00  0.00    +0.000 C 
ATOM     20  C   UNL     1       5.886   5.100  14.670  0.00  0.00    +0.000 C 
BRANCH  19  22
ATOM     21  O   UNL     1       7.238   4.363  12.171  0.00  0.00    +0.000 OA
ATOM     22  C   UNL     1       6.495   3.600  12.766  0.00  0.00    +0.000 C 
BRANCH  22  23
ATOM     23  O   UNL     1       6.011   2.471  12.217  0.00  0.00    +0.000 OA
ATOM     24  H   UNL     1       6.660   1.935  11.731  0.00  0.00    +0.000 HD
ENDBRANCH  22  23
ENDBRANCH  19  22
ENDBRANCH   1  20
BRANCH   3  25
ATOM     25  O   UNL     1       5.416   3.643  19.331  0.00  0.00    +0.000 OA
BRANCH  25  26
ATOM     26  C   UNL     1       4.705   2.402  19.275  0.00  0.00    +0.000 C 
BRANCH  26  27
ATOM     27  C   UNL     1       3.247   2.602  19.605  0.00  0.00    +0.000 A 
ATOM     28  C   UNL     1       2.879   3.027  20.889  0.00  0.00    +0.000 A 
ATOM     29  C   UNL     1       1.537   3.252  21.201  0.00  0.00    +0.000 A 
ATOM     30  C   UNL     1       0.556   3.066  20.230  0.00  0.00    +0.000 A 
ATOM     31  C   UNL     1       0.913   2.670  18.944  0.00  0.00    +0.000 A 
ATOM     32  C   UNL     1       2.252   2.450  18.628  0.00  0.00    +0.000 A 
ENDBRANCH  26  27
ENDBRANCH  25  26
ENDBRANCH   3  25
TORSDOF 10
ENDMDL
MODEL 5
REMARK VINA RESULT:      -8.9      2.158      2.881
REMARK  Name = 
REMARK  10 active torsions:
REMARK  status: ('A' for Active; 'I' for Inactive)
REMARK    1  A    between atoms: C_2  and  O_3
REMARK    2  A    between atoms: C_2  and  C_4
REMARK    3  A    between atoms: C_5  and  C_6
REMARK    4  A    between atoms: C_8  and  O_9
REMARK    5  A    between atoms: O_9  and  C_10
REMARK    6  A    between atoms: C_10  and  C_11
REMARK    7  A    between atoms: C_18  and  C_19
REMARK    8  A    between atoms: N_21  and  C_22
REMARK    9  A    between atoms: C_22  and  C_23
REMARK   10  A    between atoms: C_23  and  C_24
REMARK                            x       y       z     vdW  Elec       q    Type
REMARK                         _______ _______ _______ _____ _____    ______ ____
ROOT
ATOM      1  C   UNL     1       6.028   4.728  15.602  0.00  0.00    +0.000 A 
ATOM      2  C   UNL     1       4.711   4.759  16.067  0.00  0.00    +0.000 A 
ATOM      3  C   UNL     1       4.372   5.539  17.172  0.00  0.00    +0.000 A 
ATOM      4  C   UNL     1       5.346   6.322  17.791  0.00  0.00    +0.000 A 
ATOM      5  C   UNL     1       6.669   6.299  17.331  0.00  0.00    +0.000 A 
ATOM      6  C   UNL     1       7.014   5.483  16.246  0.00  0.00    +0.000 A 
ENDROOT
BRANCH   5   7
ATOM      7  C   UNL     1       7.681   7.132  18.037  0.00  0.00    +0.000 C 
ATOM      8  O   UNL     1       8.331   6.651  18.961  0.00  0.00    +0.000 OA
ATOM      9  N   UNL     1       7.803   8.446  17.625  0.00  0.00    +0.000 N 
ATOM     10  H   UNL     1       7.088   8.841  17.035  0.00  0.00    +0.000 HD
BRANCH   9  11
ATOM     11  C   UNL     1       8.684   9.349  18.351  0.00  0.00    +0.000 C 
BRANCH  11  12
ATOM     12  C   UNL     1       8.567  10.796  17.871  0.00  0.00    +0.000 C 
BRANCH  12  13
ATOM     13  C   UNL     1       9.575  11.692  18.549  0.00  0.00    +0.000 A 
ATOM     14  C   UNL     1      10.722  11.144  19.141  0.00  0.00    +0.000 A 
ATOM     15  C   UNL     1      11.631  11.961  19.815  0.00  0.00    +0.000 A 
ATOM     16  C   UNL     1      11.402  13.333  19.906  0.00  0.00    +0.000 A 
ATOM     17  C   UNL     1      10.268  13.889  19.318  0.00  0.00    +0.000 A 
ATOM     18  C   UNL     1       9.358  13.073  18.642  0.00  0.00    +0.000 A 
ENDBRANCH  12  13
ENDBRANCH  11  12
ENDBRANCH   9  11
ENDBRANCH   5   7
BRANCH   1  20
ATOM     19  C   UNL     1       5.496   3.823  13.386  0.00  0.00    +0.000 C 
ATOM     20  C   UNL     1       6.345   3.931  14.419  0.00  0.00    +0.000 C 
BRANCH  19  22
ATOM     21  O   UNL     1       4.871   2.675  11.423  0.00  0.00    +0.000 OA
ATOM     22  C   UNL     1       5.771   3.087  12.137  0.00  0.00    +0.000 C 
BRANCH  22  23
ATOM     23  O   UNL     1       7.073   2.881  11.868  0.00  0.00    +0.000 OA
ATOM     24  H   UNL     1       7.389   1.974  12.015  0.00  0.00    +0.000 HD
ENDBRANCH  22  23
ENDBRANCH  19  22
ENDBRANCH   1  20
BRANCH   3  25
ATOM     25  O   UNL     1       3.115   5.619  17.702  0.00  0.00    +0.000 OA
BRANCH  25  26
ATOM     26  C   UNL     1       3.044   6.146  19.032  0.00  0.00    +0.000 C 
BRANCH  26  27
ATOM     27  C   UNL     1       2.267   7.437  19.058  0.00  0.00    +0.000 A 
ATOM     28  C   UNL     1       1.717   7.891  20.265  0.00  0.00    +0.000 A 
ATOM     29  C   UNL     1       1.025   9.102  20.316  0.00  0.00    +0.000 A 
ATOM     30  C   UNL     1       0.887   9.874  19.164  0.00  0.00    +0.000 A 
ATOM     31  C   UNL     1       1.452   9.445  17.965  0.00  0.00    +0.000 A 
ATOM     32  C   UNL     1       2.148   8.240  17.913  0.00  0.00    +0.000 A 
ENDBRANCH  26  27
ENDBRANCH  25  26
ENDBRANCH   3  25
TORSDOF 10
ENDMDL
MODEL 6
REMARK VINA RESULT:      -8.8      1.008      1.254
REMARK  Name = 
REMARK  10 active torsions:
REMARK  status: ('A' for Active; 'I' for Inactive)
REMARK    1  A    between atoms: C_2  and  O_3
REMARK    2  A    between atoms: C_2  and  C_4
REMARK    3  A    between atoms: C_5  and  C_6
REMARK    4  A    between atoms: C_8  and  O_9
REMARK    5  A    between atoms: O_9  and  C_10
REMARK    6  A    between atoms: C_10  and  C_11
REMARK    7  A    between atoms: C_18  and  C_19
REMARK    8  A    between atoms: N_21  and  C_22
REMARK    9  A    between atoms: C_22  and  C_23
REMARK   10  A    between atoms: C_23  and  C_24
REMARK                            x       y       z     vdW  Elec       q    Type
REMARK                         _______ _______ _______ _____ _____    ______ ____
ROOT
ATOM      1  C   UNL     1       6.000   5.281  15.296  0.00  0.00    +0.000 A 
ATOM      2  C   UNL     1       4.707   5.200  15.818  0.00  0.00    +0.000 A 
ATOM      3  C   UNL     1       4.396   5.819  17.029  0.00  0.00    +0.000 A 
ATOM      4  C   UNL     1       5.371   6.558  17.698  0.00  0.00    +0.000 A 
ATOM      5  C   UNL     1       6.670   6.647  17.180  0.00  0.00    +0.000 A 
ATOM      6  C   UNL     1       6.989   5.989  15.987  0.00  0.00    +0.000 A 
ENDROOT
BRANCH   5   7
ATOM      7  C   UNL     1       7.685   7.425  17.942  0.00  0.00    +0.000 C 
ATOM      8  O   UNL     1       8.308   6.889  18.855  0.00  0.00    +0.000 OA
ATOM      9  N   UNL     1       7.844   8.753  17.592  0.00  0.00    +0.000 N 
ATOM     10  H   UNL     1       7.148   9.190  17.007  0.00  0.00    +0.000 HD
BRANCH   9  11
ATOM     11  C   UNL     1       8.730   9.603  18.374  0.00  0.00    +0.000 C 
BRANCH  11  12
ATOM     12  C   UNL     1       8.694  11.063  17.921  0.00  0.00    +0.000 C 
BRANCH  12  13
ATOM     13  C   UNL     1       9.767  11.883  18.595  0.00  0.00    +0.000 A 
ATOM     14  C   UNL     1       9.740  13.282  18.518  0.00  0.00    +0.000 A 
ATOM     15  C   UNL     1      10.758  14.044  19.095  0.00  0.00    +0.000 A 
ATOM     16  C   UNL     1      11.814  13.414  19.752  0.00  0.00    +0.000 A 
ATOM     17  C   UNL     1      11.848  12.024  19.839  0.00  0.00    +0.000 A 
ATOM     18  C   UNL     1      10.830  11.260  19.263  0.00  0.00    +0.000 A 
ENDBRANCH  12  13
ENDBRANCH  11  12
ENDBRANCH   9  11
ENDBRANCH   5   7
BRANCH   1  20
ATOM     19  C   UNL     1       5.524   3.668  13.511  0.00  0.00    +0.000 C 
ATOM     20  C   UNL     1       6.286   4.654  14.007  0.00  0.00    +0.000 C 
BRANCH  19  22
ATOM     21  O   UNL     1       4.857   3.069  11.330  0.00  0.00    +0.000 OA
ATOM     22  C   UNL     1       5.717   3.029  12.195  0.00  0.00    +0.000 C 
BRANCH  22  23
ATOM     23  O   UNL     1       6.886   2.383  12.036  0.00  0.00    +0.000 OA
ATOM     24  H   UNL     1       6.818   1.489  11.661  0.00  0.00    +0.000 HD
ENDBRANCH  22  23
ENDBRANCH  19  22
ENDBRANCH   1  20
BRANCH   3  25
ATOM     25  O   UNL     1       3.164   5.781  17.619  0.00  0.00    +0.000 OA
BRANCH  25  26
ATOM     26  C   UNL     1       3.160   5.977  19.038  0.00  0.00    +0.000 C 
BRANCH  26  27
ATOM     27  C   UNL     1       2.435   4.853  19.734  0.00  0.00    +0.000 A 
ATOM     28  C   UNL     1       1.499   4.088  19.024  0.00  0.00    +0.000 A 
ATOM     29  C   UNL     1       0.845   3.021  19.642  0.00  0.00    +0.000 A 
ATOM     30  C   UNL     1       1.129   2.704  20.968  0.00  0.00    +0.000 A 
ATOM     31  C   UNL     1       2.077   3.441  21.674  0.00  0.00    +0.000 A 
ATOM     32  C   UNL     1       2.735   4.502  21.058  0.00  0.00    +0.000 A 
ENDBRANCH  26  27
ENDBRANCH  25  26
ENDBRANCH   3  25
TORSDOF 10
ENDMDL
MODEL 7
REMARK VINA RESULT:      -8.7      1.167      1.518
REMARK  Name = 
REMARK  10 active torsions:
REMARK  status: ('A' for Active; 'I' for Inactive)
REMARK    1  A    between atoms: C_2  and  O_3
REMARK    2  A    between atoms: C_2  and  C_4
REMARK    3  A    between atoms: C_5  and  C_6
REMARK    4  A    between atoms: C_8  and  O_9
REMARK    5  A    between atoms: O_9  and  C_10
REMARK    6  A    between atoms: C_10  and  C_11
REMARK    7  A    between atoms: C_18  and  C_19
REMARK    8  A    between atoms: N_21  and  C_22
REMARK    9  A    between atoms: C_22  and  C_23
REMARK   10  A    between atoms: C_23  and  C_24
REMARK                            x       y       z     vdW  Elec       q    Type
REMARK                         _______ _______ _______ _____ _____    ______ ____
ROOT
ATOM      1  C   UNL     1       6.155   5.010  15.552  0.00  0.00    +0.000 A 
ATOM      2  C   UNL     1       4.808   5.231  15.849  0.00  0.00    +0.000 A 
ATOM      3  C   UNL     1       4.448   6.091  16.886  0.00  0.00    +0.000 A 
ATOM      4  C   UNL     1       5.437   6.765  17.601  0.00  0.00    +0.000 A 
ATOM      5  C   UNL     1       6.791   6.551  17.309  0.00  0.00    +0.000 A 
ATOM      6  C   UNL     1       7.149   5.655  16.295  0.00  0.00    +0.000 A 
ENDROOT
BRANCH   5   7
ATOM      7  C   UNL     1       7.814   7.272  18.115  0.00  0.00    +0.000 C 
ATOM      8  O   UNL     1       8.415   6.682  19.008  0.00  0.00    +0.000 OA
ATOM      9  N   UNL     1       8.003   8.611  17.828  0.00  0.00    +0.000 N 
ATOM     10  H   UNL     1       7.323   9.088  17.257  0.00  0.00    +0.000 HD
BRANCH   9  11
ATOM     11  C   UNL     1       8.898   9.405  18.656  0.00  0.00    +0.000 C 
BRANCH  11  12
ATOM     12  C   UNL     1       9.248  10.752  18.019  0.00  0.00    +0.000 C 
BRANCH  12  13
ATOM     13  C   UNL     1       9.506  11.811  19.062  0.00  0.00    +0.000 A 
ATOM     14  C   UNL     1       9.157  13.146  18.814  0.00  0.00    +0.000 A 
ATOM     15  C   UNL     1       9.440  14.139  19.753  0.00  0.00    +0.000 A 
ATOM     16  C   UNL     1      10.076  13.809  20.949  0.00  0.00    +0.000 A 
ATOM     17  C   UNL     1      10.423  12.484  21.208  0.00  0.00    +0.000 A 
ATOM     18  C   UNL     1      10.139  11.489  20.269  0.00  0.00    +0.000 A 
ENDBRANCH  12  13
ENDBRANCH  11  12
ENDBRANCH   9  11
ENDBRANCH   5   7
BRANCH   1  20
ATOM     19  C   UNL     1       5.685   3.964  13.383  0.00  0.00    +0.000 C 
ATOM     20  C   UNL     1       6.501   4.133  14.435  0.00  0.00    +0.000 C 
BRANCH  19  22
ATOM     21  O   UNL     1       5.169   2.384  11.711  0.00  0.00    +0.000 OA
ATOM     22  C   UNL     1       5.992   3.143  12.197  0.00  0.00    +0.000 C 
BRANCH  22  23
ATOM     23  O   UNL     1       7.242   3.273  11.717  0.00  0.00    +0.000 OA
ATOM     24  H   UNL     1       7.858   2.564  11.967  0.00  0.00    +0.000 HD
ENDBRANCH  22  23
ENDBRANCH  19  22
ENDBRANCH   1  20
BRANCH   3  25
ATOM     25  O   UNL     1       3.159   6.356  17.255  0.00  0.00    +0.000 OA
BRANCH  25  26
ATOM     26  C   UNL     1       2.901   6.299  18.662  0.00  0.00    +0.000 C 
BRANCH  26  27
ATOM     27  C   UNL     1       2.230   5.001  19.033  0.00  0.00    +0.000 A 
ATOM     28  C   UNL     1       1.747   4.818  20.336  0.00  0.00    +0.000 A 
ATOM     29  C   UNL     1       1.091   3.637  20.688  0.00  0.00    +0.000 A 
ATOM     30  C   UNL     1       0.903   2.636  19.738  0.00  0.00    +0.000 A 
ATOM     31  C   UNL     1       1.356   2.818  18.433  0.00  0.00    +0.000 A 
ATOM     32  C   UNL     1       2.005   3.998  18.078  0.00  0.00    +0.000 A 
ENDBRANCH  26  27
ENDBRANCH  25  26
ENDBRANCH   3  25
TORSDOF 10
ENDMDL
MODEL 8
REMARK VINA RESULT:      -8.6      2.080      2.878
REMARK  Name = 
REMARK  10 active torsions:
REMARK  status: ('A' for Active; 'I' for Inactive)
REMARK    1  A    between atoms: C_2  and  O_3
REMARK    2  A    between atoms: C_2  and  C_4
REMARK    3  A    between atoms: C_5  and  C_6
REMARK    4  A    between atoms: C_8  and  O_9
REMARK    5  A    between atoms: O_9  and  C_10
REMARK    6  A    between atoms: C_10  and  C_11
REMARK    7  A    between atoms: C_18  and  C_19
REMARK    8  A    between atoms: N_21  and  C_22
REMARK    9  A    between atoms: C_22  and  C_23
REMARK   10  A    between atoms: C_23  and  C_24
REMARK                            x       y       z     vdW  Elec       q    Type
REMARK                         _______ _______ _______ _____ _____    ______ ____
ROOT
ATOM      1  C   UNL     1       6.092   5.024  15.451  0.00  0.00    +0.000 A 
ATOM      2  C   UNL     1       4.772   5.025  15.910  0.00  0.00    +0.000 A 
ATOM      3  C   UNL     1       4.438   5.683  17.093  0.00  0.00    +0.000 A 
ATOM      4  C   UNL     1       5.419   6.379  17.798  0.00  0.00    +0.000 A 
ATOM      5  C   UNL     1       6.745   6.386  17.345  0.00  0.00    +0.000 A 
ATOM      6  C   UNL     1       7.085   5.688  16.179  0.00  0.00    +0.000 A 
ENDROOT
BRANCH   5   7
ATOM      7  C   UNL     1       7.764   7.120  18.144  0.00  0.00    +0.000 C 
ATOM      8  O   UNL     1       8.310   6.567  19.095  0.00  0.00    +0.000 OA
ATOM      9  N   UNL     1       8.014   8.430  17.782  0.00  0.00    +0.000 N 
ATOM     10  H   UNL     1       7.374   8.894  17.156  0.00  0.00    +0.000 HD
BRANCH   9  11
ATOM     11  C   UNL     1       8.907   9.244  18.593  0.00  0.00    +0.000 C 
BRANCH  11  12
ATOM     12  C   UNL     1       8.659  10.743  18.417  0.00  0.00    +0.000 C 
BRANCH  12  13
ATOM     13  C   UNL     1       9.901  11.551  18.701  0.00  0.00    +0.000 A 
ATOM     14  C   UNL     1      10.043  12.222  19.924  0.00  0.00    +0.000 A 
ATOM     15  C   UNL     1      11.167  13.013  20.172  0.00  0.00    +0.000 A 
ATOM     16  C   UNL     1      12.157  13.143  19.200  0.00  0.00    +0.000 A 
ATOM     17  C   UNL     1      12.028  12.477  17.983  0.00  0.00    +0.000 A 
ATOM     18  C   UNL     1      10.905  11.684  17.734  0.00  0.00    +0.000 A 
ENDBRANCH  12  13
ENDBRANCH  11  12
ENDBRANCH   9  11
ENDBRANCH   5   7
BRANCH   1  20
ATOM     19  C   UNL     1       5.460   3.768  13.442  0.00  0.00    +0.000 C 
ATOM     20  C   UNL     1       6.405   4.358  14.188  0.00  0.00    +0.000 C 
BRANCH  19  22
ATOM     21  O   UNL     1       6.805   2.780  11.776  0.00  0.00    +0.000 OA
ATOM     22  C   UNL     1       5.691   3.129  12.132  0.00  0.00    +0.000 C 
BRANCH  22  23
ATOM     23  O   UNL     1       4.598   2.991  11.360  0.00  0.00    +0.000 OA
ATOM     24  H   UNL     1       4.054   2.207  11.547  0.00  0.00    +0.000 HD
ENDBRANCH  22  23
ENDBRANCH  19  22
ENDBRANCH   1  20
BRANCH   3  25
ATOM     25  O   UNL     1       3.178   5.724  17.622  0.00  0.00    +0.000 OA
BRANCH  25  26
ATOM     26  C   UNL     1       3.102   6.156  18.985  0.00  0.00    +0.000 C 
BRANCH  26  27
ATOM     27  C   UNL     1       2.313   7.436  19.099  0.00  0.00    +0.000 A 
ATOM     28  C   UNL     1       2.081   8.212  17.956  0.00  0.00    +0.000 A 
ATOM     29  C   UNL     1       1.322   9.381  18.036  0.00  0.00    +0.000 A 
ATOM     30  C   UNL     1       0.781   9.776  19.257  0.00  0.00    +0.000 A 
ATOM     31  C   UNL     1       0.983   8.998  20.394  0.00  0.00    +0.000 A 
ATOM     32  C   UNL     1       1.734   7.829  20.316  0.00  0.00    +0.000 A 
ENDBRANCH  26  27
ENDBRANCH  25  26
ENDBRANCH   3  25
TORSDOF 10
ENDMDL
MODEL 9
REMARK VINA RESULT:      -8.5      2.149      2.871
REMARK  Name = 
REMARK  10 active torsions:
REMARK  status: ('A' for Active; 'I' for Inactive)
REMARK    1  A    between atoms: C_2  and  O_3
REMARK    2  A    between atoms: C_2  and  C_4
REMARK    3  A    between atoms: C_5  and  C_6
REMARK    4  A    between atoms: C_8  and  O_9
REMARK    5  A    between atoms: O_9  and  C_10
REMARK    6  A    between atoms: C_10  and  C_11
REMARK    7  A    between atoms: C_18  and  C_19
REMARK    8  A    between atoms: N_21  and  C_22
REMARK    9  A    between atoms: C_22  and  C_23
REMARK   10  A    between atoms: C_23  and  C_24
REMARK                            x       y       z     vdW  Elec       q    Type
REMARK                         _______ _______ _______ _____ _____    ______ ____
ROOT
ATOM      1  C   UNL     1       5.490   4.716  15.776  0.00  0.00    +0.000 A 
ATOM      2  C   UNL     1       4.245   4.731  16.411  0.00  0.00    +0.000 A 
ATOM      3  C   UNL     1       4.083   5.391  17.629  0.00  0.00    +0.000 A 
ATOM      4  C   UNL     1       5.159   6.075  18.193  0.00  0.00    +0.000 A 
ATOM      5  C   UNL     1       6.411   6.068  17.563  0.00  0.00    +0.000 A 
ATOM      6  C   UNL     1       6.580   5.368  16.362  0.00  0.00    +0.000 A 
ENDROOT
BRANCH   5   7
ATOM      7  C   UNL     1       7.538   6.789  18.214  0.00  0.00    +0.000 C 
ATOM      8  O   UNL     1       8.182   6.241  19.105  0.00  0.00    +0.000 OA
ATOM      9  N   UNL     1       7.774   8.085  17.794  0.00  0.00    +0.000 N 
ATOM     10  H   UNL     1       7.073   8.554  17.240  0.00  0.00    +0.000 HD
BRANCH   9  11
ATOM     11  C   UNL     1       8.779   8.890  18.472  0.00  0.00    +0.000 C 
BRANCH  11  12
ATOM     12  C   UNL     1       8.620  10.386  18.194  0.00  0.00    +0.000 C 
BRANCH  12  13
ATOM     13  C   UNL     1       9.872  11.154  18.540  0.00  0.00    +0.000 A 
ATOM     14  C   UNL     1      10.585  11.830  17.540  0.00  0.00    +0.000 A 
ATOM     15  C   UNL     1      11.772  12.499  17.845  0.00  0.00    +0.000 A 
ATOM     16  C   UNL     1      12.259  12.496  19.151  0.00  0.00    +0.000 A 
ATOM     17  C   UNL     1      11.556  11.832  20.153  0.00  0.00    +0.000 A 
ATOM     18  C   UNL     1      10.367  11.163  19.850  0.00  0.00    +0.000 A 
ENDBRANCH  12  13
ENDBRANCH  11  12
ENDBRANCH   9  11
ENDBRANCH   5   7
BRANCH   1  20
ATOM     19  C   UNL     1       6.521   4.435  13.569  0.00  0.00    +0.000 C 
ATOM     20  C   UNL     1       5.619   4.048  14.483  0.00  0.00    +0.000 C 
BRANCH  19  22
ATOM     21  O   UNL     1       6.268   2.682  12.013  0.00  0.00    +0.000 OA
ATOM     22  C   UNL     1       6.748   3.775  12.270  0.00  0.00    +0.000 C 
BRANCH  22  23
ATOM     23  O   UNL     1       7.538   4.448  11.414  0.00  0.00    +0.000 OA
ATOM     24  H   UNL     1       8.445   4.610  11.727  0.00  0.00    +0.000 HD
ENDBRANCH  22  23
ENDBRANCH  19  22
ENDBRANCH   1  20
BRANCH   3  25
ATOM     25  O   UNL     1       2.908   5.446  18.325  0.00  0.00    +0.000 OA
BRANCH  25  26
ATOM     26  C   UNL     1       2.956   6.193  19.545  0.00  0.00    +0.000 C 
BRANCH  26  27
ATOM     27  C   UNL     1       2.199   7.491  19.410  0.00  0.00    +0.000 A 
ATOM     28  C   UNL     1       2.134   8.128  18.164  0.00  0.00    +0.000 A 
ATOM     29  C   UNL     1       1.408   9.311  18.011  0.00  0.00    +0.000 A 
ATOM     30  C   UNL     1       0.734   9.858  19.100  0.00  0.00    +0.000 A 
ATOM     31  C   UNL     1       0.770   9.219  20.337  0.00  0.00    +0.000 A 
ATOM     32  C   UNL     1       1.489   8.036  20.490  0.00  0.00    +0.000 A 
ENDBRANCH  26  27
ENDBRANCH  25  26
ENDBRANCH   3  25
TORSDOF 10
ENDMDL
