MODEL 1
REMARK VINA RESULT:      -9.2      0.000      0.000
REMARK  Name = 
REMARK  6 active torsions:
REMARK  status: ('A' for Active; 'I' for Inactive)
REMARK    1  A    between atoms: C_1  and  C_2
REMARK    2  A    between atoms: C_2  and  C_3
REMARK    3  A    between atoms: C_7  and  C_8
REMARK    4  A    between atoms: C_8  and  S_9
REMARK    5  A    between atoms: S_9  and  N_12
REMARK    6  A    between atoms: C_26  and  N_27
REMARK                            x       y       z     vdW  Elec       q    Type
REMARK                         _______ _______ _______ _____ _____    ______ ____
ROOT
ATOM      1  C   UNL     1       1.091   3.449  18.649  0.00  0.00    +0.000 C 
ATOM      2  C   UNL     1       2.343   3.277  19.519  0.00  0.00    +0.000 C 
ATOM      3  C   UNL     1       1.827   3.223  20.981  0.00  0.00    +0.000 C 
ATOM      4  C   UNL     1       3.145   2.026  19.096  0.00  0.00    +0.000 C 
ATOM      5  C   UNL     1       4.344   2.023  20.049  0.00  0.00    +0.000 C 
ATOM      6  C   UNL     1       4.628   3.526  20.227  0.00  0.00    +0.000 C 
ATOM      7  C   UNL     1       3.583   4.232  19.273  0.00  0.00    +0.000 C 
ATOM      8  C   UNL     1       4.025   3.917  17.803  0.00  0.00    +0.000 C 
ATOM      9  C   UNL     1       3.691   2.396  17.697  0.00  0.00    +0.000 C 
ENDROOT
BRANCH   8  10
ATOM     10  N   UNL     1       5.401   4.239  17.363  0.00  0.00    +0.000 N 
ATOM     11  C   UNL     1       6.456   4.742  18.078  0.00  0.00    +0.000 C 
ATOM     12  O   UNL     1       6.561   4.906  19.294  0.00  0.00    +0.000 OA
ATOM     13  N   UNL     1       7.481   5.115  17.285  0.00  0.00    +0.000 N 
ATOM     14  C   UNL     1       7.117   4.998  15.979  0.00  0.00    +0.000 C 
ATOM     15  O   UNL     1       7.725   5.293  14.976  0.00  0.00    +0.000 OA
ATOM     16  C   UNL     1       5.682   4.415  16.036  0.00  0.00    +0.000 C 
ATOM     17  O   UNL     1       4.982   4.222  15.059  0.00  0.00    +0.000 OA
ATOM     18  H   UNL     1       8.337   5.545  17.574  0.00  0.00    +0.000 HD
ENDBRANCH   8  10
BRANCH   7  19
ATOM     19  C   UNL     1       3.361   5.718  19.611  0.00  0.00    +0.000 C 
BRANCH  19  20
ATOM     20  S   UNL     1       2.952   6.876  18.251  0.00  0.00    +0.000 S 
ATOM     21  O   UNL     1       4.181   7.349  17.651  0.00  0.00    +0.000 OA
ATOM     22  O   UNL     1       1.883   6.347  17.438  0.00  0.00    +0.000 OA
BRANCH  20  23
ATOM     23  N   UNL     1       2.230   8.196  19.036  0.00  0.00    +0.000 NA
ATOM     24  C   UNL     1       1.793   9.366  18.162  0.00  0.00    +0.000 C 
ATOM     25  C   UNL     1       0.393   9.980  18.461  0.00  0.00    +0.000 C 
ATOM     26  C   UNL     1       0.081   9.917  19.961  0.00  0.00    +0.000 C 
ATOM     27  C   UNL     1       1.218  10.508  20.855  0.00  0.00    +0.000 C 
ATOM     28  C   UNL     1       0.734  10.146  22.274  0.00  0.00    +0.000 C 
ATOM     29  C   UNL     1      -0.650  10.723  22.113  0.00  0.00    +0.000 A 
ATOM     30  C   UNL     1      -1.081  11.620  23.083  0.00  0.00    +0.000 A 
ATOM     31  C   UNL     1      -1.609  12.805  22.620  0.00  0.00    +0.000 A 
ATOM     32  C   UNL     1      -1.851  12.971  21.245  0.00  0.00    +0.000 A 
ATOM     33  C   UNL     1      -1.601  11.941  20.296  0.00  0.00    +0.000 A 
ATOM     34  C   UNL     1      -0.973  10.771  20.721  0.00  0.00    +0.000 A 
ATOM     35  C   UNL     1       0.003   8.379  20.173  0.00  0.00    +0.000 C 
ATOM     36  C   UNL     1       1.422   7.842  20.225  0.00  0.00    +0.000 C 
ENDBRANCH  20  23
ENDBRANCH  19  20
ENDBRANCH   7  19
TORSDOF 4
ENDMDL
MODEL 2
REMARK VINA RESULT:      -9.1      0.641      1.512
REMARK  Name = 
REMARK  6 active torsions:
REMARK  status: ('A' for Active; 'I' for Inactive)
REMARK    1  A    between atoms: C_1  and  C_2
REMARK    2  A    between atoms: C_2  and  C_3
REMARK    3  A    between atoms: C_7  and  C_8
REMARK    4  A    between atoms: C_8  and  S_9
REMARK    5  A    between atoms: S_9  and  N_12
REMARK    6  A    between atoms: C_26  and  N_27
REMARK                            x       y       z     vdW  Elec       q    Type
REMARK                         _______ _______ _______ _____ _____    ______ ____
ROOT
ATOM      1  C   UNL     1       1.093   3.314  18.658  0.00  0.00    +0.000 C 
ATOM      2  C   UNL     1       2.346   3.170  19.533  0.00  0.00    +0.000 C 
ATOM      3  C   UNL     1       1.822   3.072  20.990  0.00  0.00    +0.000 C 
ATOM      4  C   UNL     1       3.193   1.955  19.094  0.00  0.00    +0.000 C 
ATOM      5  C   UNL     1       4.385   1.976  20.055  0.00  0.00    +0.000 C 
ATOM      6  C   UNL     1       4.616   3.485  20.262  0.00  0.00    +0.000 C 
ATOM      7  C   UNL     1       3.553   4.171  19.312  0.00  0.00    +0.000 C 
ATOM      8  C   UNL     1       4.015   3.898  17.841  0.00  0.00    +0.000 C 
ATOM      9  C   UNL     1       3.735   2.368  17.705  0.00  0.00    +0.000 C 
ENDROOT
BRANCH   8  10
ATOM     10  N   UNL     1       5.382   4.275  17.416  0.00  0.00    +0.000 N 
ATOM     11  C   UNL     1       6.403   4.833  18.139  0.00  0.00    +0.000 C 
ATOM     12  O   UNL     1       6.483   5.016  19.354  0.00  0.00    +0.000 OA
ATOM     13  N   UNL     1       7.422   5.241  17.356  0.00  0.00    +0.000 N 
ATOM     14  C   UNL     1       7.083   5.092  16.046  0.00  0.00    +0.000 C 
ATOM     15  O   UNL     1       7.692   5.401  15.048  0.00  0.00    +0.000 OA
ATOM     16  C   UNL     1       5.674   4.447  16.090  0.00  0.00    +0.000 C 
ATOM     17  O   UNL     1       4.998   4.210  15.106  0.00  0.00    +0.000 OA
ATOM     18  H   UNL     1       8.254   5.713  17.651  0.00  0.00    +0.000 HD
ENDBRANCH   8  10
BRANCH   7  19
ATOM     19  C   UNL     1       3.277   5.643  19.674  0.00  0.00    +0.000 C 
BRANCH  19  20
ATOM     20  S   UNL     1       2.818   6.805  18.335  0.00  0.00    +0.000 S 
ATOM     21  O   UNL     1       3.963   7.630  18.016  0.00  0.00    +0.000 OA
ATOM     22  O   UNL     1       2.082   6.121  17.299  0.00  0.00    +0.000 OA
BRANCH  20  23
ATOM     23  N   UNL     1       1.650   7.811  19.045  0.00  0.00    +0.000 NA
ATOM     24  C   UNL     1       1.539   7.777  20.565  0.00  0.00    +0.000 C 
ATOM     25  C   UNL     1       1.400   9.149  21.289  0.00  0.00    +0.000 C 
ATOM     26  C   UNL     1       0.600  10.137  20.433  0.00  0.00    +0.000 C 
ATOM     27  C   UNL     1      -0.764   9.561  19.934  0.00  0.00    +0.000 C 
ATOM     28  C   UNL     1      -1.245  10.663  18.968  0.00  0.00    +0.000 C 
ATOM     29  C   UNL     1      -1.074  11.803  19.941  0.00  0.00    +0.000 A 
ATOM     30  C   UNL     1      -2.164  12.640  20.137  0.00  0.00    +0.000 A 
ATOM     31  C   UNL     1      -2.514  12.882  21.448  0.00  0.00    +0.000 A 
ATOM     32  C   UNL     1      -1.676  12.440  22.486  0.00  0.00    +0.000 A 
ATOM     33  C   UNL     1      -0.445  11.771  22.242  0.00  0.00    +0.000 A 
ATOM     34  C   UNL     1      -0.115  11.423  20.933  0.00  0.00    +0.000 A 
ATOM     35  C   UNL     1       1.562  10.310  19.223  0.00  0.00    +0.000 C 
ATOM     36  C   UNL     1       1.418   9.088  18.333  0.00  0.00    +0.000 C 
ENDBRANCH  20  23
ENDBRANCH  19  20
ENDBRANCH   7  19
TORSDOF 4
ENDMDL
MODEL 3
REMARK VINA RESULT:      -8.7      1.263      1.957
REMARK  Name = 
REMARK  6 active torsions:
REMARK  status: ('A' for Active; 'I' for Inactive)
REMARK    1  A    between atoms: C_1  and  C_2
REMARK    2  A    between atoms: C_2  and  C_3
REMARK    3  A    between atoms: C_7  and  C_8
REMARK    4  A    between atoms: C_8  and  S_9
REMARK    5  A    between atoms: S_9  and  N_12
REMARK    6  A    between atoms: C_26  and  N_27
REMARK                            x       y       z     vdW  Elec       q    Type
REMARK                         _______ _______ _______ _____ _____    ______ ____
ROOT
ATOM      1  C   UNL     1       1.184   4.057  17.519  0.00  0.00    +0.000 C 
ATOM      2  C   UNL     1       2.171   3.787  18.662  0.00  0.00    +0.000 C 
ATOM      3  C   UNL     1       1.297   3.351  19.867  0.00  0.00    +0.000 C 
ATOM      4  C   UNL     1       3.227   2.738  18.247  0.00  0.00    +0.000 C 
ATOM      5  C   UNL     1       4.116   2.607  19.487  0.00  0.00    +0.000 C 
ATOM      6  C   UNL     1       4.125   4.044  20.040  0.00  0.00    +0.000 C 
ATOM      7  C   UNL     1       3.282   4.869  18.986  0.00  0.00    +0.000 C 
ATOM      8  C   UNL     1       4.139   4.944  17.677  0.00  0.00    +0.000 C 
ATOM      9  C   UNL     1       4.067   3.468  17.172  0.00  0.00    +0.000 C 
ENDROOT
BRANCH   8  10
ATOM     10  N   UNL     1       5.522   5.468  17.731  0.00  0.00    +0.000 N 
ATOM     11  C   UNL     1       6.404   5.511  18.779  0.00  0.00    +0.000 C 
ATOM     12  O   UNL     1       6.315   4.986  19.889  0.00  0.00    +0.000 OA
ATOM     13  N   UNL     1       7.486   6.267  18.507  0.00  0.00    +0.000 N 
ATOM     14  C   UNL     1       7.328   6.879  17.301  0.00  0.00    +0.000 C 
ATOM     15  O   UNL     1       8.040   7.679  16.740  0.00  0.00    +0.000 OA
ATOM     16  C   UNL     1       5.970   6.343  16.780  0.00  0.00    +0.000 C 
ATOM     17  O   UNL     1       5.443   6.707  15.745  0.00  0.00    +0.000 OA
ATOM     18  H   UNL     1       8.241   6.479  19.129  0.00  0.00    +0.000 HD
ENDBRANCH   8  10
BRANCH   7  19
ATOM     19  C   UNL     1       2.768   6.212  19.537  0.00  0.00    +0.000 C 
BRANCH  19  20
ATOM     20  S   UNL     1       2.463   7.584  18.363  0.00  0.00    +0.000 S 
ATOM     21  O   UNL     1       3.670   8.373  18.238  0.00  0.00    +0.000 OA
ATOM     22  O   UNL     1       1.762   7.107  17.195  0.00  0.00    +0.000 OA
BRANCH  20  23
ATOM     23  N   UNL     1       1.306   8.548  19.146  0.00  0.00    +0.000 NA
ATOM     24  C   UNL     1       1.230   8.441  20.665  0.00  0.00    +0.000 C 
ATOM     25  C   UNL     1       1.101   9.775  21.457  0.00  0.00    +0.000 C 
ATOM     26  C   UNL     1       0.277  10.799  20.667  0.00  0.00    +0.000 C 
ATOM     27  C   UNL     1      -1.095  10.239  20.172  0.00  0.00    +0.000 C 
ATOM     28  C   UNL     1      -1.604  11.383  19.272  0.00  0.00    +0.000 C 
ATOM     29  C   UNL     1      -1.416  12.476  20.294  0.00  0.00    +0.000 A 
ATOM     30  C   UNL     1      -2.505  13.297  20.555  0.00  0.00    +0.000 A 
ATOM     31  C   UNL     1      -2.827  13.473  21.883  0.00  0.00    +0.000 A 
ATOM     32  C   UNL     1      -1.963  12.987  22.880  0.00  0.00    +0.000 A 
ATOM     33  C   UNL     1      -0.735  12.338  22.576  0.00  0.00    +0.000 A 
ATOM     34  C   UNL     1      -0.433  12.056  21.245  0.00  0.00    +0.000 A 
ATOM     35  C   UNL     1       1.210  11.035  19.446  0.00  0.00    +0.000 C 
ATOM     36  C   UNL     1       1.052   9.857  18.502  0.00  0.00    +0.000 C 
ENDBRANCH  20  23
ENDBRANCH  19  20
ENDBRANCH   7  19
TORSDOF 4
ENDMDL
MODEL 4
REMARK VINA RESULT:      -8.4      1.197      1.224
REMARK  Name = 
REMARK  6 active torsions:
REMARK  status: ('A' for Active; 'I' for Inactive)
REMARK    1  A    between atoms: C_1  and  C_2
REMARK    2  A    between atoms: C_2  and  C_3
REMARK    3  A    between atoms: C_7  and  C_8
REMARK    4  A    between atoms: C_8  and  S_9
REMARK    5  A    between atoms: S_9  and  N_12
REMARK    6  A    between atoms: C_26  and  N_27
REMARK                            x       y       z     vdW  Elec       q    Type
REMARK                         _______ _______ _______ _____ _____    ______ ____
ROOT
ATOM      1  C   UNL     1       1.028   4.185  17.575  0.00  0.00    +0.000 C 
ATOM      2  C   UNL     1       2.001   3.920  18.732  0.00  0.00    +0.000 C 
ATOM      3  C   UNL     1       1.107   3.579  19.953  0.00  0.00    +0.000 C 
ATOM      4  C   UNL     1       3.006   2.804  18.367  0.00  0.00    +0.000 C 
ATOM      5  C   UNL     1       3.888   2.687  19.614  0.00  0.00    +0.000 C 
ATOM      6  C   UNL     1       3.964   4.145  20.102  0.00  0.00    +0.000 C 
ATOM      7  C   UNL     1       3.162   4.961  19.010  0.00  0.00    +0.000 C 
ATOM      8  C   UNL     1       4.022   4.937  17.702  0.00  0.00    +0.000 C 
ATOM      9  C   UNL     1       3.881   3.445  17.263  0.00  0.00    +0.000 C 
ENDROOT
BRANCH   8  10
ATOM     10  N   UNL     1       5.429   5.397  17.737  0.00  0.00    +0.000 N 
ATOM     11  C   UNL     1       6.303   5.468  18.789  0.00  0.00    +0.000 C 
ATOM     12  O   UNL     1       6.179   5.024  19.931  0.00  0.00    +0.000 OA
ATOM     13  N   UNL     1       7.423   6.152  18.480  0.00  0.00    +0.000 N 
ATOM     14  C   UNL     1       7.305   6.688  17.234  0.00  0.00    +0.000 C 
ATOM     15  O   UNL     1       8.058   7.414  16.628  0.00  0.00    +0.000 OA
ATOM     16  C   UNL     1       5.927   6.184  16.734  0.00  0.00    +0.000 C 
ATOM     17  O   UNL     1       5.426   6.501  15.671  0.00  0.00    +0.000 OA
ATOM     18  H   UNL     1       8.182   6.370  19.094  0.00  0.00    +0.000 HD
ENDBRANCH   8  10
BRANCH   7  19
ATOM     19  C   UNL     1       2.712   6.350  19.500  0.00  0.00    +0.000 C 
BRANCH  19  20
ATOM     20  S   UNL     1       2.471   7.681  18.265  0.00  0.00    +0.000 S 
ATOM     21  O   UNL     1       3.765   8.132  17.801  0.00  0.00    +0.000 OA
ATOM     22  O   UNL     1       1.429   7.325  17.331  0.00  0.00    +0.000 OA
BRANCH  20  23
ATOM     23  N   UNL     1       1.780   8.950  19.156  0.00  0.00    +0.000 NA
ATOM     24  C   UNL     1       1.546  10.264  18.420  0.00  0.00    +0.000 C 
ATOM     25  C   UNL     1       0.179  10.970  18.662  0.00  0.00    +0.000 C 
ATOM     26  C   UNL     1      -0.304  10.740  20.099  0.00  0.00    +0.000 C 
ATOM     27  C   UNL     1       0.772  11.089  21.177  0.00  0.00    +0.000 C 
ATOM     28  C   UNL     1       0.101  10.590  22.474  0.00  0.00    +0.000 C 
ATOM     29  C   UNL     1      -1.202  11.321  22.261  0.00  0.00    +0.000 A 
ATOM     30  C   UNL     1      -1.660  12.118  23.301  0.00  0.00    +0.000 A 
ATOM     31  C   UNL     1      -2.030  13.402  22.963  0.00  0.00    +0.000 A 
ATOM     32  C   UNL     1      -2.100  13.773  21.609  0.00  0.00    +0.000 A 
ATOM     33  C   UNL     1      -1.834  12.859  20.552  0.00  0.00    +0.000 A 
ATOM     34  C   UNL     1      -1.360  11.586  20.865  0.00  0.00    +0.000 A 
ATOM     35  C   UNL     1      -0.537   9.202  20.079  0.00  0.00    +0.000 C 
ATOM     36  C   UNL     1       0.816   8.523  20.195  0.00  0.00    +0.000 C 
ENDBRANCH  20  23
ENDBRANCH  19  20
ENDBRANCH   7  19
TORSDOF 4
ENDMDL
MODEL 5
REMARK VINA RESULT:      -7.8      3.802      9.421
REMARK  Name = 
REMARK  6 active torsions:
REMARK  status: ('A' for Active; 'I' for Inactive)
REMARK    1  A    between atoms: C_1  and  C_2
REMARK    2  A    between atoms: C_2  and  C_3
REMARK    3  A    between atoms: C_7  and  C_8
REMARK    4  A    between atoms: C_8  and  S_9
REMARK    5  A    between atoms: S_9  and  N_12
REMARK    6  A    between atoms: C_26  and  N_27
REMARK                            x       y       z     vdW  Elec       q    Type
REMARK                         _______ _______ _______ _____ _____    ______ ____
ROOT
ATOM      1  C   UNL     1       2.492  14.123  18.591  0.00  0.00    +0.000 C 
ATOM      2  C   UNL     1       1.618  13.751  19.796  0.00  0.00    +0.000 C 
ATOM      3  C   UNL     1       2.570  13.775  21.021  0.00  0.00    +0.000 C 
ATOM      4  C   UNL     1       0.413  14.710  19.925  0.00  0.00    +0.000 C 
ATOM      5  C   UNL     1      -0.339  14.186  21.153  0.00  0.00    +0.000 C 
ATOM      6  C   UNL     1      -0.127  12.665  21.045  0.00  0.00    +0.000 C 
ATOM      7  C   UNL     1       0.676  12.481  19.694  0.00  0.00    +0.000 C 
ATOM      8  C   UNL     1      -0.311  12.827  18.528  0.00  0.00    +0.000 C 
ATOM      9  C   UNL     1      -0.458  14.372  18.692  0.00  0.00    +0.000 C 
ENDROOT
BRANCH   8  10
ATOM     10  N   UNL     1      -1.613  12.129  18.435  0.00  0.00    +0.000 N 
ATOM     11  C   UNL     1      -2.767  12.325  19.147  0.00  0.00    +0.000 C 
ATOM     12  O   UNL     1      -3.048  13.230  19.933  0.00  0.00    +0.000 OA
ATOM     13  N   UNL     1      -3.671  11.347  18.938  0.00  0.00    +0.000 N 
ATOM     14  C   UNL     1      -3.120  10.370  18.166  0.00  0.00    +0.000 C 
ATOM     15  O   UNL     1      -3.581   9.309  17.814  0.00  0.00    +0.000 OA
ATOM     16  C   UNL     1      -1.701  10.901  17.838  0.00  0.00    +0.000 C 
ATOM     17  O   UNL     1      -0.865  10.277  17.211  0.00  0.00    +0.000 OA
ATOM     18  H   UNL     1      -4.565  11.253  19.377  0.00  0.00    +0.000 HD
ENDBRANCH   8  10
BRANCH   7  19
ATOM     19  C   UNL     1       1.393  11.122  19.595  0.00  0.00    +0.000 C 
BRANCH  19  20
ATOM     20  S   UNL     1       0.902   9.784  20.746  0.00  0.00    +0.000 S 
ATOM     21  O   UNL     1       1.372  10.111  22.075  0.00  0.00    +0.000 OA
ATOM     22  O   UNL     1      -0.470   9.395  20.517  0.00  0.00    +0.000 OA
BRANCH  20  23
ATOM     23  N   UNL     1       1.785   8.436  20.213  0.00  0.00    +0.000 NA
ATOM     24  C   UNL     1       1.537   7.117  20.936  0.00  0.00    +0.000 C 
ATOM     25  C   UNL     1       1.389   5.847  20.046  0.00  0.00    +0.000 C 
ATOM     26  C   UNL     1       2.286   5.945  18.806  0.00  0.00    +0.000 C 
ATOM     27  C   UNL     1       3.771   6.295  19.142  0.00  0.00    +0.000 C 
ATOM     28  C   UNL     1       4.376   6.514  17.740  0.00  0.00    +0.000 C 
ATOM     29  C   UNL     1       3.888   5.210  17.159  0.00  0.00    +0.000 A 
ATOM     30  C   UNL     1       4.829   4.399  16.540  0.00  0.00    +0.000 A 
ATOM     31  C   UNL     1       4.840   3.077  16.931  0.00  0.00    +0.000 A 
ATOM     32  C   UNL     1       3.820   2.588  17.765  0.00  0.00    +0.000 A 
ATOM     33  C   UNL     1       2.739   3.401  18.206  0.00  0.00    +0.000 A 
ATOM     34  C   UNL     1       2.756   4.763  17.912  0.00  0.00    +0.000 A 
ATOM     35  C   UNL     1       1.626   7.145  18.070  0.00  0.00    +0.000 C 
ATOM     36  C   UNL     1       2.073   8.421  18.761  0.00  0.00    +0.000 C 
ENDBRANCH  20  23
ENDBRANCH  19  20
ENDBRANCH   7  19
TORSDOF 4
ENDMDL
MODEL 6
REMARK VINA RESULT:      -7.8      3.887      9.646
REMARK  Name = 
REMARK  6 active torsions:
REMARK  status: ('A' for Active; 'I' for Inactive)
REMARK    1  A    between atoms: C_1  and  C_2
REMARK    2  A    between atoms: C_2  and  C_3
REMARK    3  A    between atoms: C_7  and  C_8
REMARK    4  A    between atoms: C_8  and  S_9
REMARK    5  A    between atoms: S_9  and  N_12
REMARK    6  A    between atoms: C_26  and  N_27
REMARK                            x       y       z     vdW  Elec       q    Type
REMARK                         _______ _______ _______ _____ _____    ______ ____
ROOT
ATOM      1  C   UNL     1       2.659  14.324  18.465  0.00  0.00    +0.000 C 
ATOM      2  C   UNL     1       1.933  13.923  19.756  0.00  0.00    +0.000 C 
ATOM      3  C   UNL     1       3.055  13.649  20.792  0.00  0.00    +0.000 C 
ATOM      4  C   UNL     1       0.935  15.018  20.195  0.00  0.00    +0.000 C 
ATOM      5  C   UNL     1       0.308  14.448  21.471  0.00  0.00    +0.000 C 
ATOM      6  C   UNL     1       0.250  12.940  21.165  0.00  0.00    +0.000 C 
ATOM      7  C   UNL     1       0.793  12.825  19.684  0.00  0.00    +0.000 C 
ATOM      8  C   UNL     1      -0.293  13.460  18.751  0.00  0.00    +0.000 C 
ATOM      9  C   UNL     1      -0.160  14.975  19.104  0.00  0.00    +0.000 C 
ENDROOT
BRANCH   8  10
ATOM     10  N   UNL     1      -1.690  12.974  18.811  0.00  0.00    +0.000 N 
ATOM     11  C   UNL     1      -2.655  13.191  19.759  0.00  0.00    +0.000 C 
ATOM     12  O   UNL     1      -2.643  13.968  20.714  0.00  0.00    +0.000 OA
ATOM     13  N   UNL     1      -3.732  12.399  19.585  0.00  0.00    +0.000 N 
ATOM     14  C   UNL     1      -3.493  11.513  18.579  0.00  0.00    +0.000 C 
ATOM     15  O   UNL     1      -4.178  10.606  18.167  0.00  0.00    +0.000 OA
ATOM     16  C   UNL     1      -2.083  11.898  18.063  0.00  0.00    +0.000 C 
ATOM     17  O   UNL     1      -1.483  11.292  17.194  0.00  0.00    +0.000 OA
ATOM     18  H   UNL     1      -4.541  12.348  20.172  0.00  0.00    +0.000 HD
ENDBRANCH   8  10
BRANCH   7  19
ATOM     19  C   UNL     1       1.256  11.403  19.316  0.00  0.00    +0.000 C 
BRANCH  19  20
ATOM     20  S   UNL     1       0.639   9.994  20.311  0.00  0.00    +0.000 S 
ATOM     21  O   UNL     1       1.310   9.994  21.593  0.00  0.00    +0.000 OA
ATOM     22  O   UNL     1      -0.800   9.903  20.225  0.00  0.00    +0.000 OA
BRANCH  20  23
ATOM     23  N   UNL     1       1.169   8.625  19.460  0.00  0.00    +0.000 NA
ATOM     24  C   UNL     1       1.831   8.864  18.107  0.00  0.00    +0.000 C 
ATOM     25  C   UNL     1       3.124   8.051  17.806  0.00  0.00    +0.000 C 
ATOM     26  C   UNL     1       3.054   6.661  18.448  0.00  0.00    +0.000 C 
ATOM     27  C   UNL     1       1.742   5.885  18.103  0.00  0.00    +0.000 C 
ATOM     28  C   UNL     1       1.854   4.644  19.012  0.00  0.00    +0.000 C 
ATOM     29  C   UNL     1       3.245   4.260  18.574  0.00  0.00    +0.000 A 
ATOM     30  C   UNL     1       3.439   2.952  18.149  0.00  0.00    +0.000 A 
ATOM     31  C   UNL     1       4.088   2.796  16.943  0.00  0.00    +0.000 A 
ATOM     32  C   UNL     1       4.665   3.913  16.313  0.00  0.00    +0.000 A 
ATOM     33  C   UNL     1       4.638   5.213  16.889  0.00  0.00    +0.000 A 
ATOM     34  C   UNL     1       3.903   5.419  18.055  0.00  0.00    +0.000 A 
ATOM     35  C   UNL     1       3.048   7.042  19.955  0.00  0.00    +0.000 C 
ATOM     36  C   UNL     1       1.651   7.515  20.313  0.00  0.00    +0.000 C 
ENDBRANCH  20  23
ENDBRANCH  19  20
ENDBRANCH   7  19
TORSDOF 4
ENDMDL
MODEL 7
REMARK VINA RESULT:      -7.7      3.689      9.523
REMARK  Name = 
REMARK  6 active torsions:
REMARK  status: ('A' for Active; 'I' for Inactive)
REMARK    1  A    between atoms: C_1  and  C_2
REMARK    2  A    between atoms: C_2  and  C_3
REMARK    3  A    between atoms: C_7  and  C_8
REMARK    4  A    between atoms: C_8  and  S_9
REMARK    5  A    between atoms: S_9  and  N_12
REMARK    6  A    between atoms: C_26  and  N_27
REMARK                            x       y       z     vdW  Elec       q    Type
REMARK                         _______ _______ _______ _____ _____    ______ ____
ROOT
ATOM      1  C   UNL     1       2.073  13.326  18.655  0.00  0.00    +0.000 C 
ATOM      2  C   UNL     1       1.233  12.937  19.880  0.00  0.00    +0.000 C 
ATOM      3  C   UNL     1       2.225  12.921  21.073  0.00  0.00    +0.000 C 
ATOM      4  C   UNL     1       0.047  13.908  20.070  0.00  0.00    +0.000 C 
ATOM      5  C   UNL     1      -0.672  13.367  21.310  0.00  0.00    +0.000 C 
ATOM      6  C   UNL     1      -0.485  11.846  21.161  0.00  0.00    +0.000 C 
ATOM      7  C   UNL     1       0.270  11.683  19.781  0.00  0.00    +0.000 C 
ATOM      8  C   UNL     1      -0.749  12.068  18.656  0.00  0.00    +0.000 C 
ATOM      9  C   UNL     1      -0.870  13.611  18.860  0.00  0.00    +0.000 C 
ENDROOT
BRANCH   8  10
ATOM     10  N   UNL     1      -2.063  11.390  18.590  0.00  0.00    +0.000 N 
ATOM     11  C   UNL     1      -2.470  10.337  17.814  0.00  0.00    +0.000 C 
ATOM     12  O   UNL     1      -1.796   9.600  17.093  0.00  0.00    +0.000 OA
ATOM     13  N   UNL     1      -3.803  10.145  17.868  0.00  0.00    +0.000 N 
ATOM     14  C   UNL     1      -4.382  11.144  18.589  0.00  0.00    +0.000 C 
ATOM     15  O   UNL     1      -5.551  11.363  18.809  0.00  0.00    +0.000 OA
ATOM     16  C   UNL     1      -3.188  12.008  19.067  0.00  0.00    +0.000 C 
ATOM     17  O   UNL     1      -3.300  13.044  19.697  0.00  0.00    +0.000 OA
ATOM     18  H   UNL     1      -4.333   9.467  17.357  0.00  0.00    +0.000 HD
ENDBRANCH   8  10
BRANCH   7  19
ATOM     19  C   UNL     1       0.965  10.317  19.627  0.00  0.00    +0.000 C 
BRANCH  19  20
ATOM     20  S   UNL     1       0.937   9.153  21.042  0.00  0.00    +0.000 S 
ATOM     21  O   UNL     1       1.702   9.719  22.132  0.00  0.00    +0.000 OA
ATOM     22  O   UNL     1      -0.399   8.646  21.255  0.00  0.00    +0.000 OA
BRANCH  20  23
ATOM     23  N   UNL     1       1.784   7.796  20.477  0.00  0.00    +0.000 NA
ATOM     24  C   UNL     1       1.386   6.442  21.055  0.00  0.00    +0.000 C 
ATOM     25  C   UNL     1       1.251   5.262  20.047  0.00  0.00    +0.000 C 
ATOM     26  C   UNL     1       2.270   5.399  18.910  0.00  0.00    +0.000 C 
ATOM     27  C   UNL     1       3.733   5.617  19.413  0.00  0.00    +0.000 C 
ATOM     28  C   UNL     1       4.486   5.908  18.098  0.00  0.00    +0.000 C 
ATOM     29  C   UNL     1       3.980   4.693  17.362  0.00  0.00    +0.000 A 
ATOM     30  C   UNL     1       4.927   3.872  16.765  0.00  0.00    +0.000 A 
ATOM     31  C   UNL     1       4.819   2.525  17.037  0.00  0.00    +0.000 A 
ATOM     32  C   UNL     1       3.693   2.041  17.726  0.00  0.00    +0.000 A 
ATOM     33  C   UNL     1       2.626   2.887  18.134  0.00  0.00    +0.000 A 
ATOM     34  C   UNL     1       2.754   4.265  17.963  0.00  0.00    +0.000 A 
ATOM     35  C   UNL     1       1.760   6.698  18.224  0.00  0.00    +0.000 C 
ATOM     36  C   UNL     1       2.214   7.879  19.063  0.00  0.00    +0.000 C 
ENDBRANCH  20  23
ENDBRANCH  19  20
ENDBRANCH   7  19
TORSDOF 4
ENDMDL
MODEL 8
REMARK VINA RESULT:      -7.7      1.408      2.451
REMARK  Name = 
REMARK  6 active torsions:
REMARK  status: ('A' for Active; 'I' for Inactive)
REMARK    1  A    between atoms: C_1  and  C_2
REMARK    2  A    between atoms: C_2  and  C_3
REMARK    3  A    between atoms: C_7  and  C_8
REMARK    4  A    between atoms: C_8  and  S_9
REMARK    5  A    between atoms: S_9  and  N_12
REMARK    6  A    between atoms: C_26  and  N_27
REMARK                            x       y       z     vdW  Elec       q    Type
REMARK                         _______ _______ _______ _____ _____    ______ ____
ROOT
ATOM      1  C   UNL     1       1.758   2.876  17.494  0.00  0.00    +0.000 C 
ATOM      2  C   UNL     1       2.207   3.663  18.733  0.00  0.00    +0.000 C 
ATOM      3  C   UNL     1       0.989   3.650  19.694  0.00  0.00    +0.000 C 
ATOM      4  C   UNL     1       3.488   3.052  19.344  0.00  0.00    +0.000 C 
ATOM      5  C   UNL     1       3.788   3.958  20.542  0.00  0.00    +0.000 C 
ATOM      6  C   UNL     1       3.343   5.340  20.029  0.00  0.00    +0.000 C 
ATOM      7  C   UNL     1       2.900   5.073  18.534  0.00  0.00    +0.000 C 
ATOM      8  C   UNL     1       4.201   4.752  17.725  0.00  0.00    +0.000 C 
ATOM      9  C   UNL     1       4.575   3.342  18.283  0.00  0.00    +0.000 C 
ENDROOT
BRANCH   8  10
ATOM     10  N   UNL     1       5.337   5.701  17.748  0.00  0.00    +0.000 N 
ATOM     11  C   UNL     1       5.793   6.548  16.773  0.00  0.00    +0.000 C 
ATOM     12  O   UNL     1       5.276   6.836  15.693  0.00  0.00    +0.000 OA
ATOM     13  N   UNL     1       6.987   7.092  17.083  0.00  0.00    +0.000 N 
ATOM     14  C   UNL     1       7.458   6.538  18.234  0.00  0.00    +0.000 C 
ATOM     15  O   UNL     1       8.513   6.710  18.801  0.00  0.00    +0.000 OA
ATOM     16  C   UNL     1       6.333   5.570  18.678  0.00  0.00    +0.000 C 
ATOM     17  O   UNL     1       6.404   4.833  19.644  0.00  0.00    +0.000 OA
ATOM     18  H   UNL     1       7.534   7.705  16.511  0.00  0.00    +0.000 HD
ENDBRANCH   8  10
BRANCH   7  19
ATOM     19  C   UNL     1       2.002   6.185  17.960  0.00  0.00    +0.000 C 
BRANCH  19  20
ATOM     20  S   UNL     1       2.562   7.924  18.095  0.00  0.00    +0.000 S 
ATOM     21  O   UNL     1       3.746   7.973  18.925  0.00  0.00    +0.000 OA
ATOM     22  O   UNL     1       2.531   8.569  16.804  0.00  0.00    +0.000 OA
BRANCH  20  23
ATOM     23  N   UNL     1       1.313   8.695  18.947  0.00  0.00    +0.000 NA
ATOM     24  C   UNL     1       1.150   8.328  20.418  0.00  0.00    +0.000 C 
ATOM     25  C   UNL     1       0.906   9.503  21.411  0.00  0.00    +0.000 C 
ATOM     26  C   UNL     1       0.081  10.613  20.747  0.00  0.00    +0.000 C 
ATOM     27  C   UNL     1      -1.228  10.091  20.074  0.00  0.00    +0.000 C 
ATOM     28  C   UNL     1      -1.738  11.351  19.343  0.00  0.00    +0.000 C 
ATOM     29  C   UNL     1      -1.668  12.261  20.544  0.00  0.00    +0.000 A 
ATOM     30  C   UNL     1      -2.811  12.982  20.863  0.00  0.00    +0.000 A 
ATOM     31  C   UNL     1      -3.221  12.919  22.176  0.00  0.00    +0.000 A 
ATOM     32  C   UNL     1      -2.397  12.305  23.135  0.00  0.00    +0.000 A 
ATOM     33  C   UNL     1      -1.121  11.765  22.812  0.00  0.00    +0.000 A 
ATOM     34  C   UNL     1      -0.725  11.725  21.477  0.00  0.00    +0.000 A 
ATOM     35  C   UNL     1       1.074  11.089  19.649  0.00  0.00    +0.000 C 
ATOM     36  C   UNL     1       1.033  10.082  18.514  0.00  0.00    +0.000 C 
ENDBRANCH  20  23
ENDBRANCH  19  20
ENDBRANCH   7  19
TORSDOF 4
ENDMDL
MODEL 9
REMARK VINA RESULT:      -7.6      1.871      3.880
REMARK  Name = 
REMARK  6 active torsions:
REMARK  status: ('A' for Active; 'I' for Inactive)
REMARK    1  A    between atoms: C_1  and  C_2
REMARK    2  A    between atoms: C_2  and  C_3
REMARK    3  A    between atoms: C_7  and  C_8
REMARK    4  A    between atoms: C_8  and  S_9
REMARK    5  A    between atoms: S_9  and  N_12
REMARK    6  A    between atoms: C_26  and  N_27
REMARK                            x       y       z     vdW  Elec       q    Type
REMARK                         _______ _______ _______ _____ _____    ______ ____
ROOT
ATOM      1  C   UNL     1       7.819   6.244  18.938  0.00  0.00    +0.000 C 
ATOM      2  C   UNL     1       6.740   6.391  17.857  0.00  0.00    +0.000 C 
ATOM      3  C   UNL     1       6.813   7.871  17.399  0.00  0.00    +0.000 C 
ATOM      4  C   UNL     1       6.957   5.374  16.715  0.00  0.00    +0.000 C 
ATOM      5  C   UNL     1       5.800   5.657  15.751  0.00  0.00    +0.000 C 
ATOM      6  C   UNL     1       4.656   6.033  16.711  0.00  0.00    +0.000 C 
ATOM      7  C   UNL     1       5.282   5.844  18.152  0.00  0.00    +0.000 C 
ATOM      8  C   UNL     1       5.485   4.305  18.361  0.00  0.00    +0.000 C 
ATOM      9  C   UNL     1       6.660   4.008  17.377  0.00  0.00    +0.000 C 
ENDROOT
BRANCH   8  10
ATOM     10  N   UNL     1       4.341   3.382  18.188  0.00  0.00    +0.000 N 
ATOM     11  C   UNL     1       3.580   3.125  17.078  0.00  0.00    +0.000 C 
ATOM     12  O   UNL     1       3.759   3.487  15.915  0.00  0.00    +0.000 OA
ATOM     13  N   UNL     1       2.484   2.393  17.365  0.00  0.00    +0.000 N 
ATOM     14  C   UNL     1       2.385   2.225  18.712  0.00  0.00    +0.000 C 
ATOM     15  O   UNL     1       1.518   1.690  19.364  0.00  0.00    +0.000 OA
ATOM     16  C   UNL     1       3.650   2.921  19.276  0.00  0.00    +0.000 C 
ATOM     17  O   UNL     1       3.895   3.041  20.462  0.00  0.00    +0.000 OA
ATOM     18  H   UNL     1       1.763   2.119  16.729  0.00  0.00    +0.000 HD
ENDBRANCH   8  10
BRANCH   7  19
ATOM     19  C   UNL     1       4.501   6.581  19.255  0.00  0.00    +0.000 C 
BRANCH  19  20
ATOM     20  S   UNL     1       2.672   6.472  19.257  0.00  0.00    +0.000 S 
ATOM     21  O   UNL     1       2.229   5.963  17.977  0.00  0.00    +0.000 OA
ATOM     22  O   UNL     1       2.200   5.891  20.492  0.00  0.00    +0.000 OA
BRANCH  20  23
ATOM     23  N   UNL     1       2.163   8.087  19.366  0.00  0.00    +0.000 NA
ATOM     24  C   UNL     1       1.904   8.821  18.054  0.00  0.00    +0.000 C 
ATOM     25  C   UNL     1       0.615   9.692  17.980  0.00  0.00    +0.000 C 
ATOM     26  C   UNL     1       0.305  10.320  19.344  0.00  0.00    +0.000 C 
ATOM     27  C   UNL     1       1.524  11.071  19.971  0.00  0.00    +0.000 C 
ATOM     28  C   UNL     1       0.997  11.421  21.378  0.00  0.00    +0.000 C 
ATOM     29  C   UNL     1      -0.284  12.062  20.905  0.00  0.00    +0.000 A 
ATOM     30  C   UNL     1      -0.568  13.337  21.376  0.00  0.00    +0.000 A 
ATOM     31  C   UNL     1      -0.913  14.272  20.425  0.00  0.00    +0.000 A 
ATOM     32  C   UNL     1      -1.134  13.866  19.097  0.00  0.00    +0.000 A 
ATOM     33  C   UNL     1      -1.048  12.506  18.690  0.00  0.00    +0.000 A 
ATOM     34  C   UNL     1      -0.603  11.555  19.606  0.00  0.00    +0.000 A 
ATOM     35  C   UNL     1      -0.004   9.047  20.182  0.00  0.00    +0.000 C 
ATOM     36  C   UNL     1       1.317   8.392  20.542  0.00  0.00    +0.000 C 
ENDBRANCH  20  23
ENDBRANCH  19  20
ENDBRANCH   7  19
TORSDOF 4
ENDMDL
