MODEL 1
REMARK VINA RESULT:      -8.6      0.000      0.000
REMARK  Name = 
REMARK  9 active torsions:
REMARK  status: ('A' for Active; 'I' for Inactive)
REMARK    1  A    between atoms: C_1  and  C_2
REMARK    2  A    between atoms: C_11  and  C_12
REMARK    3  A    between atoms: N_23  and  C_24
REMARK    4  A    between atoms: C_24  and  C_25
REMARK    5  A    between atoms: C_25  and  C_26
REMARK    6  A    between atoms: C_26  and  N_27
REMARK    7  A    between atoms: N_27  and  C_28
REMARK    8  A    between atoms: N_27  and  C_29
REMARK    9  A    between atoms: C_33  and  C_34
REMARK                            x       y       z     vdW  Elec       q    Type
REMARK                         _______ _______ _______ _____ _____    ______ ____
ROOT
ATOM      1  C   UNL     1       2.088   7.183  20.036  0.00  0.00    +0.000 C 
ATOM      2  O   UNL     1       2.323   6.113  20.592  0.00  0.00    +0.000 OA
ATOM      3  N   UNL     1       2.547   7.550  18.781  0.00  0.00    +0.000 N 
ATOM      4  C   UNL     1       3.421   6.734  18.091  0.00  0.00    +0.000 A 
ATOM      5  N   UNL     1       4.582   7.156  17.638  0.00  0.00    +0.000 NA
ATOM      6  C   UNL     1       5.143   6.084  16.989  0.00  0.00    +0.000 A 
ATOM      7  C   UNL     1       6.408   5.969  16.390  0.00  0.00    +0.000 A 
ATOM      8  C   UNL     1       6.745   4.781  15.730  0.00  0.00    +0.000 A 
ATOM      9  C   UNL     1       5.833   3.727  15.658  0.00  0.00    +0.000 A 
ATOM     10  C   UNL     1       4.569   3.818  16.260  0.00  0.00    +0.000 A 
ATOM     11  C   UNL     1       4.262   5.008  16.939  0.00  0.00    +0.000 A 
ATOM     12  N   UNL     1       3.154   5.453  17.638  0.00  0.00    +0.000 N 
ATOM     13  H   UNL     1       2.720   8.543  18.688  0.00  0.00    +0.000 HD
ENDROOT
BRANCH   1  24
ATOM     14  C   UNL     1       2.646  14.983  20.202  0.00  0.00    +0.000 C 
ATOM     15  C   UNL     1       1.377  14.146  20.374  0.00  0.00    +0.000 C 
ATOM     16  N   UNL     1       0.733  14.505  21.630  0.00  0.00    +0.000 N 
ATOM     17  C   UNL     1      -0.289  13.748  22.138  0.00  0.00    +0.000 C 
ATOM     18  O   UNL     1      -1.158  14.263  22.833  0.00  0.00    +0.000 OA
ATOM     19  C   UNL     1      -0.197  12.349  21.834  0.00  0.00    +0.000 A 
ATOM     20  C   UNL     1      -0.948  11.309  22.343  0.00  0.00    +0.000 A 
ATOM     21  C   UNL     1      -0.352  10.098  21.920  0.00  0.00    +0.000 A 
ATOM     22  C   UNL     1      -0.590   8.737  22.192  0.00  0.00    +0.000 A 
ATOM     23  C   UNL     1       0.243   7.802  21.592  0.00  0.00    +0.000 A 
ATOM     24  C   UNL     1       1.264   8.236  20.745  0.00  0.00    +0.000 A 
ATOM     25  N   UNL     1       1.554   9.547  20.464  0.00  0.00    +0.000 NA
ATOM     26  C   UNL     1       0.713  10.420  21.077  0.00  0.00    +0.000 A 
ATOM     27  N   UNL     1       0.737  11.799  20.979  0.00  0.00    +0.000 N 
ATOM     28  C   UNL     1       1.659  12.619  20.192  0.00  0.00    +0.000 C 
ATOM     29  C   UNL     1       1.560  12.284  18.699  0.00  0.00    +0.000 C 
ATOM     30  H   UNL     1       0.597  15.488  21.835  0.00  0.00    +0.000 HD
ENDBRANCH   1  24
BRANCH  12  31
ATOM     31  C   UNL     1       1.871   4.772  17.669  0.00  0.00    +0.000 C 
BRANCH  31  32
ATOM     32  C   UNL     1       2.020   3.300  18.070  0.00  0.00    +0.000 C 
BRANCH  32  33
ATOM     33  C   UNL     1       1.197   2.940  19.313  0.00  0.00    +0.000 C 
BRANCH  33  34
ATOM     34  N   UNL     1       1.984   2.346  20.405  0.00  0.00    +0.000 NA
ATOM     35  C   UNL     1       3.413   2.652  20.299  0.00  0.00    +0.000 C 
ATOM     36  C   UNL     1       1.476   2.799  21.703  0.00  0.00    +0.000 C 
ENDBRANCH  33  34
ENDBRANCH  32  33
ENDBRANCH  31  32
ENDBRANCH  12  31
TORSDOF 5
ENDMDL
MODEL 2
REMARK VINA RESULT:      -8.6      2.787      9.176
REMARK  Name = 
REMARK  9 active torsions:
REMARK  status: ('A' for Active; 'I' for Inactive)
REMARK    1  A    between atoms: C_1  and  C_2
REMARK    2  A    between atoms: C_11  and  C_12
REMARK    3  A    between atoms: N_23  and  C_24
REMARK    4  A    between atoms: C_24  and  C_25
REMARK    5  A    between atoms: C_25  and  C_26
REMARK    6  A    between atoms: C_26  and  N_27
REMARK    7  A    between atoms: N_27  and  C_28
REMARK    8  A    between atoms: N_27  and  C_29
REMARK    9  A    between atoms: C_33  and  C_34
REMARK                            x       y       z     vdW  Elec       q    Type
REMARK                         _______ _______ _______ _____ _____    ______ ____
ROOT
ATOM      1  C   UNL     1       1.603   9.814  19.174  0.00  0.00    +0.000 C 
ATOM      2  O   UNL     1       1.966  10.280  18.096  0.00  0.00    +0.000 OA
ATOM      3  N   UNL     1       1.017  10.538  20.201  0.00  0.00    +0.000 N 
ATOM      4  C   UNL     1       0.892  11.910  20.105  0.00  0.00    +0.000 A 
ATOM      5  N   UNL     1       1.362  12.733  21.017  0.00  0.00    +0.000 NA
ATOM      6  C   UNL     1       1.022  13.994  20.595  0.00  0.00    +0.000 A 
ATOM      7  C   UNL     1       1.346  15.239  21.160  0.00  0.00    +0.000 A 
ATOM      8  C   UNL     1       0.834  16.405  20.577  0.00  0.00    +0.000 A 
ATOM      9  C   UNL     1       0.005  16.334  19.457  0.00  0.00    +0.000 A 
ATOM     10  C   UNL     1      -0.320  15.101  18.872  0.00  0.00    +0.000 A 
ATOM     11  C   UNL     1       0.225  13.946  19.455  0.00  0.00    +0.000 A 
ATOM     12  N   UNL     1       0.139  12.596  19.167  0.00  0.00    +0.000 N 
ATOM     13  H   UNL     1       1.244  10.190  21.123  0.00  0.00    +0.000 HD
ENDROOT
BRANCH   1  24
ATOM     14  C   UNL     1       5.385   4.205  15.248  0.00  0.00    +0.000 C 
ATOM     15  C   UNL     1       5.172   4.288  16.760  0.00  0.00    +0.000 C 
ATOM     16  N   UNL     1       4.534   3.063  17.222  0.00  0.00    +0.000 N 
ATOM     17  C   UNL     1       4.023   2.970  18.489  0.00  0.00    +0.000 C 
ATOM     18  O   UNL     1       3.982   1.889  19.066  0.00  0.00    +0.000 OA
ATOM     19  C   UNL     1       3.510   4.204  19.012  0.00  0.00    +0.000 A 
ATOM     20  C   UNL     1       2.772   4.409  20.161  0.00  0.00    +0.000 A 
ATOM     21  C   UNL     1       2.309   5.745  20.145  0.00  0.00    +0.000 A 
ATOM     22  C   UNL     1       1.448   6.498  20.966  0.00  0.00    +0.000 A 
ATOM     23  C   UNL     1       1.204   7.818  20.609  0.00  0.00    +0.000 A 
ATOM     24  C   UNL     1       1.819   8.347  19.474  0.00  0.00    +0.000 A 
ATOM     25  N   UNL     1       2.646   7.654  18.629  0.00  0.00    +0.000 NA
ATOM     26  C   UNL     1       2.850   6.369  19.019  0.00  0.00    +0.000 A 
ATOM     27  N   UNL     1       3.642   5.428  18.388  0.00  0.00    +0.000 N 
ATOM     28  C   UNL     1       4.439   5.606  17.173  0.00  0.00    +0.000 C 
ATOM     29  C   UNL     1       5.492   6.706  17.360  0.00  0.00    +0.000 C 
ATOM     30  H   UNL     1       4.921   2.177  16.919  0.00  0.00    +0.000 HD
ENDBRANCH   1  24
BRANCH  12  31
ATOM     31  C   UNL     1      -0.776  12.017  18.197  0.00  0.00    +0.000 C 
BRANCH  31  32
ATOM     32  C   UNL     1      -1.974  11.348  18.877  0.00  0.00    +0.000 C 
BRANCH  32  33
ATOM     33  C   UNL     1      -2.794  10.482  17.913  0.00  0.00    +0.000 C 
BRANCH  33  34
ATOM     34  N   UNL     1      -3.181  11.168  16.670  0.00  0.00    +0.000 NA
ATOM     35  C   UNL     1      -2.984  10.331  15.483  0.00  0.00    +0.000 C 
ATOM     36  C   UNL     1      -4.579  11.602  16.742  0.00  0.00    +0.000 C 
ENDBRANCH  33  34
ENDBRANCH  32  33
ENDBRANCH  31  32
ENDBRANCH  12  31
TORSDOF 5
ENDMDL
MODEL 3
REMARK VINA RESULT:      -8.6      1.710      4.316
REMARK  Name = 
REMARK  9 active torsions:
REMARK  status: ('A' for Active; 'I' for Inactive)
REMARK    1  A    between atoms: C_1  and  C_2
REMARK    2  A    between atoms: C_11  and  C_12
REMARK    3  A    between atoms: N_23  and  C_24
REMARK    4  A    between atoms: C_24  and  C_25
REMARK    5  A    between atoms: C_25  and  C_26
REMARK    6  A    between atoms: C_26  and  N_27
REMARK    7  A    between atoms: N_27  and  C_28
REMARK    8  A    between atoms: N_27  and  C_29
REMARK    9  A    between atoms: C_33  and  C_34
REMARK                            x       y       z     vdW  Elec       q    Type
REMARK                         _______ _______ _______ _____ _____    ______ ____
ROOT
ATOM      1  C   UNL     1       1.667   8.738  18.432  0.00  0.00    +0.000 C 
ATOM      2  O   UNL     1       1.364   8.404  17.289  0.00  0.00    +0.000 OA
ATOM      3  N   UNL     1       2.131   7.881  19.418  0.00  0.00    +0.000 N 
ATOM      4  C   UNL     1       2.186   6.521  19.192  0.00  0.00    +0.000 A 
ATOM      5  N   UNL     1       1.603   5.644  19.979  0.00  0.00    +0.000 NA
ATOM      6  C   UNL     1       1.903   4.411  19.457  0.00  0.00    +0.000 A 
ATOM      7  C   UNL     1       1.468   3.140  19.867  0.00  0.00    +0.000 A 
ATOM      8  C   UNL     1       1.957   2.006  19.206  0.00  0.00    +0.000 A 
ATOM      9  C   UNL     1       2.873   2.134  18.161  0.00  0.00    +0.000 A 
ATOM     10  C   UNL     1       3.311   3.394  17.729  0.00  0.00    +0.000 A 
ATOM     11  C   UNL     1       2.787   4.520  18.387  0.00  0.00    +0.000 A 
ATOM     12  N   UNL     1       2.971   5.883  18.245  0.00  0.00    +0.000 N 
ATOM     13  H   UNL     1       1.853   8.152  20.353  0.00  0.00    +0.000 HD
ENDROOT
BRANCH   1  24
ATOM     14  C   UNL     1      -3.211  12.151  23.504  0.00  0.00    +0.000 C 
ATOM     15  C   UNL     1      -1.804  12.615  23.125  0.00  0.00    +0.000 C 
ATOM     16  N   UNL     1      -1.863  13.994  22.662  0.00  0.00    +0.000 N 
ATOM     17  C   UNL     1      -0.788  14.576  22.045  0.00  0.00    +0.000 C 
ATOM     18  O   UNL     1      -0.602  15.785  22.130  0.00  0.00    +0.000 OA
ATOM     19  C   UNL     1       0.016  13.669  21.277  0.00  0.00    +0.000 A 
ATOM     20  C   UNL     1       1.041  13.962  20.399  0.00  0.00    +0.000 A 
ATOM     21  C   UNL     1       1.382  12.770  19.719  0.00  0.00    +0.000 A 
ATOM     22  C   UNL     1       2.256  12.457  18.662  0.00  0.00    +0.000 A 
ATOM     23  C   UNL     1       2.307  11.137  18.233  0.00  0.00    +0.000 A 
ATOM     24  C   UNL     1       1.511  10.180  18.863  0.00  0.00    +0.000 A 
ATOM     25  N   UNL     1       0.628  10.433  19.880  0.00  0.00    +0.000 NA
ATOM     26  C   UNL     1       0.613  11.737  20.260  0.00  0.00    +0.000 A 
ATOM     27  N   UNL     1      -0.155  12.300  21.262  0.00  0.00    +0.000 N 
ATOM     28  C   UNL     1      -1.110  11.619  22.139  0.00  0.00    +0.000 C 
ATOM     29  C   UNL     1      -0.420  10.525  22.963  0.00  0.00    +0.000 C 
ATOM     30  H   UNL     1      -2.371  14.667  23.224  0.00  0.00    +0.000 HD
ENDBRANCH   1  24
BRANCH  12  31
ATOM     31  C   UNL     1       3.988   6.496  17.407  0.00  0.00    +0.000 C 
BRANCH  31  32
ATOM     32  C   UNL     1       5.399   6.233  17.945  0.00  0.00    +0.000 C 
BRANCH  32  33
ATOM     33  C   UNL     1       6.494   6.621  16.945  0.00  0.00    +0.000 C 
BRANCH  33  34
ATOM     34  N   UNL     1       7.387   5.514  16.570  0.00  0.00    +0.000 NA
ATOM     35  C   UNL     1       7.663   4.611  17.690  0.00  0.00    +0.000 C 
ATOM     36  C   UNL     1       6.815   4.756  15.454  0.00  0.00    +0.000 C 
ENDBRANCH  33  34
ENDBRANCH  32  33
ENDBRANCH  31  32
ENDBRANCH  12  31
TORSDOF 5
ENDMDL
MODEL 4
REMARK VINA RESULT:      -8.5      2.867      9.077
REMARK  Name = 
REMARK  9 active torsions:
REMARK  status: ('A' for Active; 'I' for Inactive)
REMARK    1  A    between atoms: C_1  and  C_2
REMARK    2  A    between atoms: C_11  and  C_12
REMARK    3  A    between atoms: N_23  and  C_24
REMARK    4  A    between atoms: C_24  and  C_25
REMARK    5  A    between atoms: C_25  and  C_26
REMARK    6  A    between atoms: C_26  and  N_27
REMARK    7  A    between atoms: N_27  and  C_28
REMARK    8  A    between atoms: N_27  and  C_29
REMARK    9  A    between atoms: C_33  and  C_34
REMARK                            x       y       z     vdW  Elec       q    Type
REMARK                         _______ _______ _______ _____ _____    ______ ____
ROOT
ATOM      1  C   UNL     1       1.192   9.824  18.918  0.00  0.00    +0.000 C 
ATOM      2  O   UNL     1       0.706  10.016  17.806  0.00  0.00    +0.000 OA
ATOM      3  N   UNL     1       1.473  10.812  19.848  0.00  0.00    +0.000 N 
ATOM      4  C   UNL     1       1.309  12.144  19.524  0.00  0.00    +0.000 A 
ATOM      5  N   UNL     1       2.273  13.029  19.642  0.00  0.00    +0.000 NA
ATOM      6  C   UNL     1       1.729  14.231  19.262  0.00  0.00    +0.000 A 
ATOM      7  C   UNL     1       2.345  15.486  19.130  0.00  0.00    +0.000 A 
ATOM      8  C   UNL     1       1.566  16.594  18.776  0.00  0.00    +0.000 A 
ATOM      9  C   UNL     1       0.193  16.459  18.567  0.00  0.00    +0.000 A 
ATOM     10  C   UNL     1      -0.439  15.212  18.682  0.00  0.00    +0.000 A 
ATOM     11  C   UNL     1       0.365  14.108  19.011  0.00  0.00    +0.000 A 
ATOM     12  N   UNL     1       0.112  12.762  19.203  0.00  0.00    +0.000 N 
ATOM     13  H   UNL     1       2.277  10.606  20.427  0.00  0.00    +0.000 HD
ENDROOT
BRANCH   1  24
ATOM     14  C   UNL     1       5.316   4.214  15.354  0.00  0.00    +0.000 C 
ATOM     15  C   UNL     1       5.167   4.432  16.861  0.00  0.00    +0.000 C 
ATOM     16  N   UNL     1       4.675   3.208  17.475  0.00  0.00    +0.000 N 
ATOM     17  C   UNL     1       4.234   3.199  18.772  0.00  0.00    +0.000 C 
ATOM     18  O   UNL     1       4.326   2.183  19.453  0.00  0.00    +0.000 OA
ATOM     19  C   UNL     1       3.628   4.427  19.200  0.00  0.00    +0.000 A 
ATOM     20  C   UNL     1       2.928   4.680  20.362  0.00  0.00    +0.000 A 
ATOM     21  C   UNL     1       2.336   5.959  20.241  0.00  0.00    +0.000 A 
ATOM     22  C   UNL     1       1.445   6.709  21.032  0.00  0.00    +0.000 A 
ATOM     23  C   UNL     1       1.057   7.957  20.562  0.00  0.00    +0.000 A 
ATOM     24  C   UNL     1       1.564   8.421  19.347  0.00  0.00    +0.000 A 
ATOM     25  N   UNL     1       2.415   7.724  18.529  0.00  0.00    +0.000 NA
ATOM     26  C   UNL     1       2.761   6.511  19.031  0.00  0.00    +0.000 A 
ATOM     27  N   UNL     1       3.611   5.587  18.452  0.00  0.00    +0.000 N 
ATOM     28  C   UNL     1       4.329   5.713  17.183  0.00  0.00    +0.000 C 
ATOM     29  C   UNL     1       5.278   6.918  17.201  0.00  0.00    +0.000 C 
ATOM     30  H   UNL     1       5.132   2.335  17.239  0.00  0.00    +0.000 HD
ENDBRANCH   1  24
BRANCH  12  31
ATOM     31  C   UNL     1      -1.216  12.176  19.283  0.00  0.00    +0.000 C 
BRANCH  31  32
ATOM     32  C   UNL     1      -1.798  11.901  17.892  0.00  0.00    +0.000 C 
BRANCH  32  33
ATOM     33  C   UNL     1      -2.744  10.695  17.876  0.00  0.00    +0.000 C 
BRANCH  33  34
ATOM     34  N   UNL     1      -3.666  10.668  16.729  0.00  0.00    +0.000 NA
ATOM     35  C   UNL     1      -4.717  11.683  16.830  0.00  0.00    +0.000 C 
ATOM     36  C   UNL     1      -2.924  10.847  15.478  0.00  0.00    +0.000 C 
ENDBRANCH  33  34
ENDBRANCH  32  33
ENDBRANCH  31  32
ENDBRANCH  12  31
TORSDOF 5
ENDMDL
MODEL 5
REMARK VINA RESULT:      -8.5      2.180      8.969
REMARK  Name = 
REMARK  9 active torsions:
REMARK  status: ('A' for Active; 'I' for Inactive)
REMARK    1  A    between atoms: C_1  and  C_2
REMARK    2  A    between atoms: C_11  and  C_12
REMARK    3  A    between atoms: N_23  and  C_24
REMARK    4  A    between atoms: C_24  and  C_25
REMARK    5  A    between atoms: C_25  and  C_26
REMARK    6  A    between atoms: C_26  and  N_27
REMARK    7  A    between atoms: N_27  and  C_28
REMARK    8  A    between atoms: N_27  and  C_29
REMARK    9  A    between atoms: C_33  and  C_34
REMARK                            x       y       z     vdW  Elec       q    Type
REMARK                         _______ _______ _______ _____ _____    ______ ____
ROOT
ATOM      1  C   UNL     1       1.106   9.947  18.935  0.00  0.00    +0.000 C 
ATOM      2  O   UNL     1       0.394  10.114  17.947  0.00  0.00    +0.000 OA
ATOM      3  N   UNL     1       1.639  10.960  19.717  0.00  0.00    +0.000 N 
ATOM      4  C   UNL     1       1.474  12.281  19.354  0.00  0.00    +0.000 A 
ATOM      5  N   UNL     1       2.485  13.108  19.201  0.00  0.00    +0.000 NA
ATOM      6  C   UNL     1       1.932  14.322  18.876  0.00  0.00    +0.000 A 
ATOM      7  C   UNL     1       2.567  15.527  18.533  0.00  0.00    +0.000 A 
ATOM      8  C   UNL     1       1.786  16.664  18.291  0.00  0.00    +0.000 A 
ATOM      9  C   UNL     1       0.396  16.606  18.399  0.00  0.00    +0.000 A 
ATOM     10  C   UNL     1      -0.258  15.410  18.729  0.00  0.00    +0.000 A 
ATOM     11  C   UNL     1       0.542  14.275  18.940  0.00  0.00    +0.000 A 
ATOM     12  N   UNL     1       0.270  12.959  19.267  0.00  0.00    +0.000 N 
ATOM     13  H   UNL     1       2.540  10.731  20.115  0.00  0.00    +0.000 HD
ENDROOT
BRANCH   1  24
ATOM     14  C   UNL     1       5.261   4.383  15.335  0.00  0.00    +0.000 C 
ATOM     15  C   UNL     1       5.117   4.595  16.843  0.00  0.00    +0.000 C 
ATOM     16  N   UNL     1       4.638   3.365  17.456  0.00  0.00    +0.000 N 
ATOM     17  C   UNL     1       4.204   3.348  18.755  0.00  0.00    +0.000 C 
ATOM     18  O   UNL     1       4.308   2.332  19.433  0.00  0.00    +0.000 OA
ATOM     19  C   UNL     1       3.589   4.571  19.189  0.00  0.00    +0.000 A 
ATOM     20  C   UNL     1       2.893   4.814  20.356  0.00  0.00    +0.000 A 
ATOM     21  C   UNL     1       2.289   6.088  20.241  0.00  0.00    +0.000 A 
ATOM     22  C   UNL     1       1.396   6.828  21.038  0.00  0.00    +0.000 A 
ATOM     23  C   UNL     1       0.995   8.074  20.574  0.00  0.00    +0.000 A 
ATOM     24  C   UNL     1       1.492   8.546  19.358  0.00  0.00    +0.000 A 
ATOM     25  N   UNL     1       2.344   7.859  18.534  0.00  0.00    +0.000 NA
ATOM     26  C   UNL     1       2.704   6.648  19.030  0.00  0.00    +0.000 A 
ATOM     27  N   UNL     1       3.559   5.732  18.445  0.00  0.00    +0.000 N 
ATOM     28  C   UNL     1       4.270   5.868  17.172  0.00  0.00    +0.000 C 
ATOM     29  C   UNL     1       5.208   7.081  17.190  0.00  0.00    +0.000 C 
ATOM     30  H   UNL     1       5.101   2.496  17.215  0.00  0.00    +0.000 HD
ENDBRANCH   1  24
BRANCH  12  31
ATOM     31  C   UNL     1      -1.035  12.463  19.674  0.00  0.00    +0.000 C 
BRANCH  31  32
ATOM     32  C   UNL     1      -1.462  13.037  21.029  0.00  0.00    +0.000 C 
BRANCH  32  33
ATOM     33  C   UNL     1      -0.525  12.620  22.169  0.00  0.00    +0.000 C 
BRANCH  33  34
ATOM     34  N   UNL     1      -1.173  11.814  23.215  0.00  0.00    +0.000 NA
ATOM     35  C   UNL     1      -2.626  12.000  23.249  0.00  0.00    +0.000 C 
ATOM     36  C   UNL     1      -0.861  10.394  23.029  0.00  0.00    +0.000 C 
ENDBRANCH  33  34
ENDBRANCH  32  33
ENDBRANCH  31  32
ENDBRANCH  12  31
TORSDOF 5
ENDMDL
MODEL 6
REMARK VINA RESULT:      -8.3      2.081      4.596
REMARK  Name = 
REMARK  9 active torsions:
REMARK  status: ('A' for Active; 'I' for Inactive)
REMARK    1  A    between atoms: C_1  and  C_2
REMARK    2  A    between atoms: C_11  and  C_12
REMARK    3  A    between atoms: N_23  and  C_24
REMARK    4  A    between atoms: C_24  and  C_25
REMARK    5  A    between atoms: C_25  and  C_26
REMARK    6  A    between atoms: C_26  and  N_27
REMARK    7  A    between atoms: N_27  and  C_28
REMARK    8  A    between atoms: N_27  and  C_29
REMARK    9  A    between atoms: C_33  and  C_34
REMARK                            x       y       z     vdW  Elec       q    Type
REMARK                         _______ _______ _______ _____ _____    ______ ____
ROOT
ATOM      1  C   UNL     1       1.616   8.955  18.365  0.00  0.00    +0.000 C 
ATOM      2  O   UNL     1       1.205   8.378  17.361  0.00  0.00    +0.000 OA
ATOM      3  N   UNL     1       2.180   8.336  19.469  0.00  0.00    +0.000 N 
ATOM      4  C   UNL     1       2.222   6.958  19.551  0.00  0.00    +0.000 A 
ATOM      5  N   UNL     1       1.723   6.291  20.568  0.00  0.00    +0.000 NA
ATOM      6  C   UNL     1       1.980   4.967  20.311  0.00  0.00    +0.000 A 
ATOM      7  C   UNL     1       1.595   3.828  21.036  0.00  0.00    +0.000 A 
ATOM      8  C   UNL     1       2.025   2.567  20.604  0.00  0.00    +0.000 A 
ATOM      9  C   UNL     1       2.834   2.442  19.474  0.00  0.00    +0.000 A 
ATOM     10  C   UNL     1       3.219   3.566  18.729  0.00  0.00    +0.000 A 
ATOM     11  C   UNL     1       2.754   4.818  19.164  0.00  0.00    +0.000 A 
ATOM     12  N   UNL     1       2.914   6.112  18.701  0.00  0.00    +0.000 N 
ATOM     13  H   UNL     1       1.992   8.814  20.341  0.00  0.00    +0.000 HD
ENDROOT
BRANCH   1  24
ATOM     14  C   UNL     1      -4.085  13.521  21.165  0.00  0.00    +0.000 C 
ATOM     15  C   UNL     1      -2.589  13.836  21.124  0.00  0.00    +0.000 C 
ATOM     16  N   UNL     1      -2.384  15.098  20.428  0.00  0.00    +0.000 N 
ATOM     17  C   UNL     1      -1.130  15.497  20.048  0.00  0.00    +0.000 C 
ATOM     18  O   UNL     1      -0.855  16.689  19.968  0.00  0.00    +0.000 OA
ATOM     19  C   UNL     1      -0.243  14.421  19.711  0.00  0.00    +0.000 A 
ATOM     20  C   UNL     1       1.004  14.488  19.122  0.00  0.00    +0.000 A 
ATOM     21  C   UNL     1       1.395  13.171  18.787  0.00  0.00    +0.000 A 
ATOM     22  C   UNL     1       2.487  12.616  18.093  0.00  0.00    +0.000 A 
ATOM     23  C   UNL     1       2.520  11.237  17.936  0.00  0.00    +0.000 A 
ATOM     24  C   UNL     1       1.493  10.460  18.474  0.00  0.00    +0.000 A 
ATOM     25  N   UNL     1       0.398  10.949  19.137  0.00  0.00    +0.000 NA
ATOM     26  C   UNL     1       0.411  12.301  19.261  0.00  0.00    +0.000 A 
ATOM     27  N   UNL     1      -0.539  13.085  19.890  0.00  0.00    +0.000 N 
ATOM     28  C   UNL     1      -1.757  12.635  20.566  0.00  0.00    +0.000 C 
ATOM     29  C   UNL     1      -1.426  11.693  21.731  0.00  0.00    +0.000 C 
ATOM     30  H   UNL     1      -2.955  15.891  20.696  0.00  0.00    +0.000 HD
ENDBRANCH   1  24
BRANCH  12  31
ATOM     31  C   UNL     1       3.841   6.505  17.652  0.00  0.00    +0.000 C 
BRANCH  31  32
ATOM     32  C   UNL     1       5.295   6.225  18.047  0.00  0.00    +0.000 C 
BRANCH  32  33
ATOM     33  C   UNL     1       6.294   6.658  16.968  0.00  0.00    +0.000 C 
BRANCH  33  34
ATOM     34  N   UNL     1       7.289   5.631  16.622  0.00  0.00    +0.000 NA
ATOM     35  C   UNL     1       7.507   4.672  17.708  0.00  0.00    +0.000 C 
ATOM     36  C   UNL     1       6.882   4.917  15.408  0.00  0.00    +0.000 C 
ENDBRANCH  33  34
ENDBRANCH  32  33
ENDBRANCH  31  32
ENDBRANCH  12  31
TORSDOF 5
ENDMDL
MODEL 7
REMARK VINA RESULT:      -8.2      2.217      9.226
REMARK  Name = 
REMARK  9 active torsions:
REMARK  status: ('A' for Active; 'I' for Inactive)
REMARK    1  A    between atoms: C_1  and  C_2
REMARK    2  A    between atoms: C_11  and  C_12
REMARK    3  A    between atoms: N_23  and  C_24
REMARK    4  A    between atoms: C_24  and  C_25
REMARK    5  A    between atoms: C_25  and  C_26
REMARK    6  A    between atoms: C_26  and  N_27
REMARK    7  A    between atoms: N_27  and  C_28
REMARK    8  A    between atoms: N_27  and  C_29
REMARK    9  A    between atoms: C_33  and  C_34
REMARK                            x       y       z     vdW  Elec       q    Type
REMARK                         _______ _______ _______ _____ _____    ______ ____
ROOT
ATOM      1  C   UNL     1       1.522   9.946  18.949  0.00  0.00    +0.000 C 
ATOM      2  O   UNL     1       1.589  10.299  17.774  0.00  0.00    +0.000 OA
ATOM      3  N   UNL     1       1.259  10.784  20.021  0.00  0.00    +0.000 N 
ATOM      4  C   UNL     1       1.151  12.147  19.832  0.00  0.00    +0.000 A 
ATOM      5  N   UNL     1       1.875  13.018  20.501  0.00  0.00    +0.000 NA
ATOM      6  C   UNL     1       1.469  14.255  20.068  0.00  0.00    +0.000 A 
ATOM      7  C   UNL     1       1.969  15.524  20.403  0.00  0.00    +0.000 A 
ATOM      8  C   UNL     1       1.351  16.663  19.871  0.00  0.00    +0.000 A 
ATOM      9  C   UNL     1       0.247  16.542  19.028  0.00  0.00    +0.000 A 
ATOM     10  C   UNL     1      -0.261  15.284  18.672  0.00  0.00    +0.000 A 
ATOM     11  C   UNL     1       0.390  14.154  19.194  0.00  0.00    +0.000 A 
ATOM     12  N   UNL     1       0.190  12.791  19.071  0.00  0.00    +0.000 N 
ATOM     13  H   UNL     1       1.719  10.503  20.877  0.00  0.00    +0.000 HD
ENDROOT
BRANCH   1  24
ATOM     14  C   UNL     1       5.358   4.218  15.254  0.00  0.00    +0.000 C 
ATOM     15  C   UNL     1       5.163   4.372  16.763  0.00  0.00    +0.000 C 
ATOM     16  N   UNL     1       4.556   3.161  17.294  0.00  0.00    +0.000 N 
ATOM     17  C   UNL     1       4.063   3.122  18.571  0.00  0.00    +0.000 C 
ATOM     18  O   UNL     1       4.050   2.070  19.201  0.00  0.00    +0.000 OA
ATOM     19  C   UNL     1       3.533   4.371  19.039  0.00  0.00    +0.000 A 
ATOM     20  C   UNL     1       2.806   4.619  20.187  0.00  0.00    +0.000 A 
ATOM     21  C   UNL     1       2.318   5.944  20.110  0.00  0.00    +0.000 A 
ATOM     22  C   UNL     1       1.454   6.721  20.905  0.00  0.00    +0.000 A 
ATOM     23  C   UNL     1       1.179   8.016  20.487  0.00  0.00    +0.000 A 
ATOM     24  C   UNL     1       1.770   8.499  19.318  0.00  0.00    +0.000 A 
ATOM     25  N   UNL     1       2.599   7.780  18.497  0.00  0.00    +0.000 NA
ATOM     26  C   UNL     1       2.833   6.521  18.947  0.00  0.00    +0.000 A 
ATOM     27  N   UNL     1       3.634   5.564  18.353  0.00  0.00    +0.000 N 
ATOM     28  C   UNL     1       4.411   5.696  17.120  0.00  0.00    +0.000 C 
ATOM     29  C   UNL     1       5.446   6.823  17.237  0.00  0.00    +0.000 C 
ATOM     30  H   UNL     1       4.956   2.268  17.029  0.00  0.00    +0.000 HD
ENDBRANCH   1  24
BRANCH  12  31
ATOM     31  C   UNL     1      -0.970  12.181  18.442  0.00  0.00    +0.000 C 
BRANCH  31  32
ATOM     32  C   UNL     1      -1.954  11.632  19.481  0.00  0.00    +0.000 C 
BRANCH  32  33
ATOM     33  C   UNL     1      -2.858  12.721  20.072  0.00  0.00    +0.000 C 
BRANCH  33  34
ATOM     34  N   UNL     1      -2.673  12.940  21.514  0.00  0.00    +0.000 NA
ATOM     35  C   UNL     1      -1.725  11.994  22.109  0.00  0.00    +0.000 C 
ATOM     36  C   UNL     1      -2.225  14.312  21.767  0.00  0.00    +0.000 C 
ENDBRANCH  33  34
ENDBRANCH  32  33
ENDBRANCH  31  32
ENDBRANCH  12  31
TORSDOF 5
ENDMDL
MODEL 8
REMARK VINA RESULT:      -8.1      1.644      3.528
REMARK  Name = 
REMARK  9 active torsions:
REMARK  status: ('A' for Active; 'I' for Inactive)
REMARK    1  A    between atoms: C_1  and  C_2
REMARK    2  A    between atoms: C_11  and  C_12
REMARK    3  A    between atoms: N_23  and  C_24
REMARK    4  A    between atoms: C_24  and  C_25
REMARK    5  A    between atoms: C_25  and  C_26
REMARK    6  A    between atoms: C_26  and  N_27
REMARK    7  A    between atoms: N_27  and  C_28
REMARK    8  A    between atoms: N_27  and  C_29
REMARK    9  A    between atoms: C_33  and  C_34
REMARK                            x       y       z     vdW  Elec       q    Type
REMARK                         _______ _______ _______ _____ _____    ______ ____
ROOT
ATOM      1  C   UNL     1       1.265   8.119  20.076  0.00  0.00    +0.000 C 
ATOM      2  O   UNL     1       1.311   8.213  18.852  0.00  0.00    +0.000 OA
ATOM      3  N   UNL     1       1.630   6.998  20.806  0.00  0.00    +0.000 N 
ATOM      4  C   UNL     1       1.990   5.832  20.160  0.00  0.00    +0.000 A 
ATOM      5  N   UNL     1       1.408   4.677  20.400  0.00  0.00    +0.000 NA
ATOM      6  C   UNL     1       2.049   3.761  19.604  0.00  0.00    +0.000 A 
ATOM      7  C   UNL     1       1.773   2.397  19.416  0.00  0.00    +0.000 A 
ATOM      8  C   UNL     1       2.608   1.640  18.585  0.00  0.00    +0.000 A 
ATOM      9  C   UNL     1       3.707   2.229  17.958  0.00  0.00    +0.000 A 
ATOM     10  C   UNL     1       3.993   3.592  18.124  0.00  0.00    +0.000 A 
ATOM     11  C   UNL     1       3.127   4.339  18.940  0.00  0.00    +0.000 A 
ATOM     12  N   UNL     1       3.082   5.666  19.326  0.00  0.00    +0.000 N 
ATOM     13  H   UNL     1       1.091   6.873  21.653  0.00  0.00    +0.000 HD
ENDROOT
BRANCH   1  24
ATOM     14  C   UNL     1       1.217  15.834  18.788  0.00  0.00    +0.000 C 
ATOM     15  C   UNL     1       0.216  15.032  19.622  0.00  0.00    +0.000 C 
ATOM     16  N   UNL     1       0.147  15.599  20.962  0.00  0.00    +0.000 N 
ATOM     17  C   UNL     1      -0.494  14.936  21.974  0.00  0.00    +0.000 C 
ATOM     18  O   UNL     1      -1.018  15.559  22.891  0.00  0.00    +0.000 OA
ATOM     19  C   UNL     1      -0.430  13.505  21.878  0.00  0.00    +0.000 A 
ATOM     20  C   UNL     1      -0.805  12.565  22.817  0.00  0.00    +0.000 A 
ATOM     21  C   UNL     1      -0.354  11.302  22.367  0.00  0.00    +0.000 A 
ATOM     22  C   UNL     1      -0.343  10.007  22.919  0.00  0.00    +0.000 A 
ATOM     23  C   UNL     1       0.224   8.987  22.166  0.00  0.00    +0.000 A 
ATOM     24  C   UNL     1       0.744   9.274  20.903  0.00  0.00    +0.000 A 
ATOM     25  N   UNL     1       0.780  10.518  20.328  0.00  0.00    +0.000 NA
ATOM     26  C   UNL     1       0.217  11.479  21.104  0.00  0.00    +0.000 A 
ATOM     27  N   UNL     1       0.086  12.821  20.797  0.00  0.00    +0.000 N 
ATOM     28  C   UNL     1       0.514  13.498  19.571  0.00  0.00    +0.000 C 
ATOM     29  C   UNL     1      -0.190  12.910  18.342  0.00  0.00    +0.000 C 
ATOM     30  H   UNL     1       0.035  16.602  21.053  0.00  0.00    +0.000 HD
ENDBRANCH   1  24
BRANCH  12  31
ATOM     31  C   UNL     1       4.138   6.634  19.077  0.00  0.00    +0.000 C 
BRANCH  31  32
ATOM     32  C   UNL     1       4.183   7.059  17.606  0.00  0.00    +0.000 C 
BRANCH  32  33
ATOM     33  C   UNL     1       5.465   6.604  16.898  0.00  0.00    +0.000 C 
BRANCH  33  34
ATOM     34  N   UNL     1       6.631   6.481  17.785  0.00  0.00    +0.000 NA
ATOM     35  C   UNL     1       7.324   5.200  17.628  0.00  0.00    +0.000 C 
ATOM     36  C   UNL     1       7.569   7.582  17.548  0.00  0.00    +0.000 C 
ENDBRANCH  33  34
ENDBRANCH  32  33
ENDBRANCH  31  32
ENDBRANCH  12  31
TORSDOF 5
ENDMDL
MODEL 9
REMARK VINA RESULT:      -8.1      1.493      1.955
REMARK  Name = 
REMARK  9 active torsions:
REMARK  status: ('A' for Active; 'I' for Inactive)
REMARK    1  A    between atoms: C_1  and  C_2
REMARK    2  A    between atoms: C_11  and  C_12
REMARK    3  A    between atoms: N_23  and  C_24
REMARK    4  A    between atoms: C_24  and  C_25
REMARK    5  A    between atoms: C_25  and  C_26
REMARK    6  A    between atoms: C_26  and  N_27
REMARK    7  A    between atoms: N_27  and  C_28
REMARK    8  A    between atoms: N_27  and  C_29
REMARK    9  A    between atoms: C_33  and  C_34
REMARK                            x       y       z     vdW  Elec       q    Type
REMARK                         _______ _______ _______ _____ _____    ______ ____
ROOT
ATOM      1  C   UNL     1       1.489   8.595  20.851  0.00  0.00    +0.000 C 
ATOM      2  O   UNL     1       2.155   7.863  21.579  0.00  0.00    +0.000 OA
ATOM      3  N   UNL     1       1.479   8.552  19.466  0.00  0.00    +0.000 N 
ATOM      4  C   UNL     1       2.336   7.708  18.788  0.00  0.00    +0.000 A 
ATOM      5  N   UNL     1       3.168   8.133  17.862  0.00  0.00    +0.000 NA
ATOM      6  C   UNL     1       3.820   7.016  17.402  0.00  0.00    +0.000 A 
ATOM      7  C   UNL     1       4.863   6.916  16.467  0.00  0.00    +0.000 A 
ATOM      8  C   UNL     1       5.338   5.648  16.109  0.00  0.00    +0.000 A 
ATOM      9  C   UNL     1       4.777   4.497  16.665  0.00  0.00    +0.000 A 
ATOM     10  C   UNL     1       3.743   4.577  17.609  0.00  0.00    +0.000 A 
ATOM     11  C   UNL     1       3.300   5.858  17.975  0.00  0.00    +0.000 A 
ATOM     12  N   UNL     1       2.335   6.325  18.849  0.00  0.00    +0.000 N 
ATOM     13  H   UNL     1       1.332   9.455  19.034  0.00  0.00    +0.000 HD
ENDROOT
BRANCH   1  24
ATOM     14  C   UNL     1       0.209  16.034  18.801  0.00  0.00    +0.000 C 
ATOM     15  C   UNL     1      -0.756  15.102  19.535  0.00  0.00    +0.000 C 
ATOM     16  N   UNL     1      -1.175  15.729  20.780  0.00  0.00    +0.000 N 
ATOM     17  C   UNL     1      -1.852  15.016  21.734  0.00  0.00    +0.000 C 
ATOM     18  O   UNL     1      -2.644  15.577  22.484  0.00  0.00    +0.000 OA
ATOM     19  C   UNL     1      -1.501  13.626  21.795  0.00  0.00    +0.000 A 
ATOM     20  C   UNL     1      -1.854  12.693  22.749  0.00  0.00    +0.000 A 
ATOM     21  C   UNL     1      -1.096  11.522  22.509  0.00  0.00    +0.000 A 
ATOM     22  C   UNL     1      -0.941  10.297  23.183  0.00  0.00    +0.000 A 
ATOM     23  C   UNL     1      -0.062   9.367  22.642  0.00  0.00    +0.000 A 
ATOM     24  C   UNL     1       0.616   9.671  21.460  0.00  0.00    +0.000 A 
ATOM     25  N   UNL     1       0.518  10.855  20.776  0.00  0.00    +0.000 NA
ATOM     26  C   UNL     1      -0.349  11.730  21.347  0.00  0.00    +0.000 A 
ATOM     27  N   UNL     1      -0.675  12.993  20.889  0.00  0.00    +0.000 N 
ATOM     28  C   UNL     1      -0.168  13.661  19.689  0.00  0.00    +0.000 C 
ATOM     29  C   UNL     1      -0.510  12.861  18.425  0.00  0.00    +0.000 C 
ATOM     30  H   UNL     1      -1.491  16.691  20.750  0.00  0.00    +0.000 HD
ENDBRANCH   1  24
BRANCH  12  31
ATOM     31  C   UNL     1       1.353   5.487  19.517  0.00  0.00    +0.000 C 
BRANCH  31  32
ATOM     32  C   UNL     1       1.955   4.760  20.724  0.00  0.00    +0.000 C 
BRANCH  32  33
ATOM     33  C   UNL     1       1.296   3.401  20.985  0.00  0.00    +0.000 C 
BRANCH  33  34
ATOM     34  N   UNL     1       2.040   2.256  20.437  0.00  0.00    +0.000 NA
ATOM     35  C   UNL     1       1.659   1.946  19.057  0.00  0.00    +0.000 C 
ATOM     36  C   UNL     1       3.482   2.508  20.506  0.00  0.00    +0.000 C 
ENDBRANCH  33  34
ENDBRANCH  32  33
ENDBRANCH  31  32
ENDBRANCH  12  31
TORSDOF 5
ENDMDL
