MODEL 1
REMARK VINA RESULT:      -8.1      0.000      0.000
REMARK  Name = 
REMARK  11 active torsions:
REMARK  status: ('A' for Active; 'I' for Inactive)
REMARK    1  A    between atoms: C_2  and  O_3
REMARK    2  A    between atoms: C_2  and  C_4
REMARK    3  A    between atoms: C_4  and  C_5
REMARK    4  A    between atoms: C_5  and  C_6
REMARK    5  A    between atoms: C_6  and  C_7
REMARK    6  A    between atoms: C_7  and  C_8
REMARK    7  A    between atoms: C_8  and  C_9
REMARK    8  A    between atoms: C_9  and  C_10
REMARK    9  A    between atoms: C_15  and  C_16
REMARK   10  A    between atoms: C_19  and  C_20
REMARK   11  A    between atoms: C_20  and  O_21
REMARK                            x       y       z     vdW  Elec       q    Type
REMARK                         _______ _______ _______ _____ _____    ______ ____
ROOT
ATOM      1  C   UNL     1       2.978   4.850  18.169  0.00  0.00    +0.000 C 
ATOM      2  C   UNL     1       2.131   3.599  18.197  0.00  0.00    +0.000 C 
ATOM      3  O   UNL     1       2.035   2.812  17.263  0.00  0.00    +0.000 OA
ATOM      4  C   UNL     1       1.396   3.390  19.486  0.00  0.00    +0.000 C 
ATOM      5  C   UNL     1       1.550   4.706  20.216  0.00  0.00    +0.000 C 
ATOM      6  C   UNL     1       2.669   5.510  19.531  0.00  0.00    +0.000 C 
ENDROOT
BRANCH   6   7
ATOM      7  C   UNL     1       2.257   6.963  19.388  0.00  0.00    +0.000 A 
ATOM      8  C   UNL     1       1.733   7.666  20.473  0.00  0.00    +0.000 A 
ATOM      9  C   UNL     1       1.256   8.970  20.303  0.00  0.00    +0.000 A 
ATOM     10  C   UNL     1       1.272   9.619  19.050  0.00  0.00    +0.000 A 
ATOM     11  C   UNL     1       1.855   8.909  17.988  0.00  0.00    +0.000 A 
ATOM     12  C   UNL     1       2.340   7.612  18.151  0.00  0.00    +0.000 A 
BRANCH  10  13
ATOM     13  C   UNL     1       0.673  11.089  18.842  0.00  0.00    +0.000 C 
ATOM     14  C   UNL     1       1.726  12.224  18.592  0.00  0.00    +0.000 C 
ATOM     15  C   UNL     1       0.889  13.143  19.496  0.00  0.00    +0.000 C 
ATOM     16  C   UNL     1       0.302  11.881  20.147  0.00  0.00    +0.000 C 
BRANCH  13  17
ATOM     17  O   UNL     1      -0.404  11.067  17.871  0.00  0.00    +0.000 OA
ATOM     18  H   UNL     1      -0.826  10.200  17.994  0.00  0.00    +0.000 HD
ENDBRANCH  13  17
ENDBRANCH  10  13
ENDBRANCH   6   7
BRANCH   1  19
ATOM     19  C   UNL     1       4.482   4.566  18.018  0.00  0.00    +0.000 C 
BRANCH  19  20
ATOM     20  C   UNL     1       4.980   4.689  16.576  0.00  0.00    +0.000 C 
BRANCH  20  21
ATOM     21  C   UNL     1       5.101   6.147  16.137  0.00  0.00    +0.000 C 
BRANCH  21  22
ATOM     22  C   UNL     1       5.773   6.984  17.227  0.00  0.00    +0.000 C 
BRANCH  22  23
ATOM     23  C   UNL     1       7.293   6.888  17.134  0.00  0.00    +0.000 C 
BRANCH  23  24
ATOM     24  C   UNL     1       7.945   6.889  18.515  0.00  0.00    +0.000 C 
BRANCH  24  26
ATOM     25  O   UNL     1       7.975   4.459  18.483  0.00  0.00    +0.000 OA
ATOM     26  C   UNL     1       7.971   5.503  19.114  0.00  0.00    +0.000 C 
BRANCH  26  27
ATOM     27  O   UNL     1       7.986   5.529  20.467  0.00  0.00    +0.000 OA
ATOM     28  H   UNL     1       8.588   4.873  20.866  0.00  0.00    +0.000 HD
ENDBRANCH  26  27
ENDBRANCH  24  26
ENDBRANCH  23  24
ENDBRANCH  22  23
ENDBRANCH  21  22
ENDBRANCH  20  21
ENDBRANCH  19  20
ENDBRANCH   1  19
TORSDOF 11
ENDMDL
MODEL 2
REMARK VINA RESULT:      -8.0      1.792      4.458
REMARK  Name = 
REMARK  11 active torsions:
REMARK  status: ('A' for Active; 'I' for Inactive)
REMARK    1  A    between atoms: C_2  and  O_3
REMARK    2  A    between atoms: C_2  and  C_4
REMARK    3  A    between atoms: C_4  and  C_5
REMARK    4  A    between atoms: C_5  and  C_6
REMARK    5  A    between atoms: C_6  and  C_7
REMARK    6  A    between atoms: C_7  and  C_8
REMARK    7  A    between atoms: C_8  and  C_9
REMARK    8  A    between atoms: C_9  and  C_10
REMARK    9  A    between atoms: C_15  and  C_16
REMARK   10  A    between atoms: C_19  and  C_20
REMARK   11  A    between atoms: C_20  and  O_21
REMARK                            x       y       z     vdW  Elec       q    Type
REMARK                         _______ _______ _______ _____ _____    ______ ____
ROOT
ATOM      1  C   UNL     1       4.814   5.304  18.931  0.00  0.00    +0.000 C 
ATOM      2  C   UNL     1       6.297   5.548  18.769  0.00  0.00    +0.000 C 
ATOM      3  O   UNL     1       7.154   5.089  19.513  0.00  0.00    +0.000 OA
ATOM      4  C   UNL     1       6.647   6.416  17.599  0.00  0.00    +0.000 C 
ATOM      5  C   UNL     1       5.320   6.992  17.156  0.00  0.00    +0.000 C 
ATOM      6  C   UNL     1       4.195   6.170  17.811  0.00  0.00    +0.000 C 
ENDROOT
BRANCH   6   7
ATOM      7  C   UNL     1       3.108   7.093  18.328  0.00  0.00    +0.000 A 
ATOM      8  C   UNL     1       2.641   8.152  17.550  0.00  0.00    +0.000 A 
ATOM      9  C   UNL     1       1.717   9.060  18.079  0.00  0.00    +0.000 A 
ATOM     10  C   UNL     1       1.232   8.956  19.400  0.00  0.00    +0.000 A 
ATOM     11  C   UNL     1       1.677   7.850  20.141  0.00  0.00    +0.000 A 
ATOM     12  C   UNL     1       2.591   6.936  19.620  0.00  0.00    +0.000 A 
BRANCH  10  13
ATOM     13  C   UNL     1       0.220  10.028  20.025  0.00  0.00    +0.000 C 
ATOM     14  C   UNL     1       0.880  11.314  20.632  0.00  0.00    +0.000 C 
ATOM     15  C   UNL     1      -0.130  11.238  21.787  0.00  0.00    +0.000 C 
ATOM     16  C   UNL     1      -0.285   9.740  21.484  0.00  0.00    +0.000 C 
BRANCH  13  17
ATOM     17  O   UNL     1      -0.861  10.307  19.099  0.00  0.00    +0.000 OA
ATOM     18  H   UNL     1      -1.669  10.089  19.595  0.00  0.00    +0.000 HD
ENDBRANCH  13  17
ENDBRANCH  10  13
ENDBRANCH   6   7
BRANCH   1  19
ATOM     19  C   UNL     1       4.416   3.827  18.774  0.00  0.00    +0.000 C 
BRANCH  19  20
ATOM     20  C   UNL     1       3.915   3.481  17.371  0.00  0.00    +0.000 C 
BRANCH  20  21
ATOM     21  C   UNL     1       2.460   3.013  17.384  0.00  0.00    +0.000 C 
BRANCH  21  22
ATOM     22  C   UNL     1       2.168   2.198  18.644  0.00  0.00    +0.000 C 
BRANCH  22  23
ATOM     23  C   UNL     1       0.813   2.571  19.238  0.00  0.00    +0.000 C 
BRANCH  23  24
ATOM     24  C   UNL     1       0.916   3.781  20.165  0.00  0.00    +0.000 C 
BRANCH  24  26
ATOM     25  O   UNL     1       1.555   2.438  22.088  0.00  0.00    +0.000 OA
ATOM     26  C   UNL     1       1.690   3.450  21.419  0.00  0.00    +0.000 C 
BRANCH  26  27
ATOM     27  O   UNL     1       2.578   4.419  21.744  0.00  0.00    +0.000 OA
ATOM     28  H   UNL     1       2.651   5.125  21.075  0.00  0.00    +0.000 HD
ENDBRANCH  26  27
ENDBRANCH  24  26
ENDBRANCH  23  24
ENDBRANCH  22  23
ENDBRANCH  21  22
ENDBRANCH  20  21
ENDBRANCH  19  20
ENDBRANCH   1  19
TORSDOF 11
ENDMDL
MODEL 3
REMARK VINA RESULT:      -7.9      1.309      1.693
REMARK  Name = 
REMARK  11 active torsions:
REMARK  status: ('A' for Active; 'I' for Inactive)
REMARK    1  A    between atoms: C_2  and  O_3
REMARK    2  A    between atoms: C_2  and  C_4
REMARK    3  A    between atoms: C_4  and  C_5
REMARK    4  A    between atoms: C_5  and  C_6
REMARK    5  A    between atoms: C_6  and  C_7
REMARK    6  A    between atoms: C_7  and  C_8
REMARK    7  A    between atoms: C_8  and  C_9
REMARK    8  A    between atoms: C_9  and  C_10
REMARK    9  A    between atoms: C_15  and  C_16
REMARK   10  A    between atoms: C_19  and  C_20
REMARK   11  A    between atoms: C_20  and  O_21
REMARK                            x       y       z     vdW  Elec       q    Type
REMARK                         _______ _______ _______ _____ _____    ______ ____
ROOT
ATOM      1  C   UNL     1       1.663   4.254  18.556  0.00  0.00    +0.000 C 
ATOM      2  C   UNL     1       1.075   3.061  19.274  0.00  0.00    +0.000 C 
ATOM      3  O   UNL     1       0.297   2.265  18.762  0.00  0.00    +0.000 OA
ATOM      4  C   UNL     1       1.527   2.922  20.695  0.00  0.00    +0.000 C 
ATOM      5  C   UNL     1       2.209   4.239  20.996  0.00  0.00    +0.000 C 
ATOM      6  C   UNL     1       2.481   4.957  19.662  0.00  0.00    +0.000 C 
ENDROOT
BRANCH   6   7
ATOM      7  C   UNL     1       2.142   6.430  19.784  0.00  0.00    +0.000 A 
ATOM      8  C   UNL     1       1.562   6.935  20.948  0.00  0.00    +0.000 A 
ATOM      9  C   UNL     1       1.156   8.273  21.007  0.00  0.00    +0.000 A 
ATOM     10  C   UNL     1       1.299   9.153  19.914  0.00  0.00    +0.000 A 
ATOM     11  C   UNL     1       1.936   8.632  18.775  0.00  0.00    +0.000 A 
ATOM     12  C   UNL     1       2.352   7.303  18.710  0.00  0.00    +0.000 A 
BRANCH  10  13
ATOM     13  C   UNL     1       0.780  10.666  19.962  0.00  0.00    +0.000 C 
ATOM     14  C   UNL     1      -0.681  10.902  19.445  0.00  0.00    +0.000 C 
ATOM     15  C   UNL     1      -0.191  12.190  18.767  0.00  0.00    +0.000 C 
ATOM     16  C   UNL     1       1.225  11.593  18.773  0.00  0.00    +0.000 C 
BRANCH  13  17
ATOM     17  O   UNL     1       1.042  11.254  21.262  0.00  0.00    +0.000 OA
ATOM     18  H   UNL     1       1.937  11.626  21.186  0.00  0.00    +0.000 HD
ENDBRANCH  13  17
ENDBRANCH  10  13
ENDBRANCH   6   7
BRANCH   1  19
ATOM     19  C   UNL     1       2.555   3.871  17.364  0.00  0.00    +0.000 C 
BRANCH  19  20
ATOM     20  C   UNL     1       4.020   3.650  17.750  0.00  0.00    +0.000 C 
BRANCH  20  21
ATOM     21  C   UNL     1       4.978   4.225  16.708  0.00  0.00    +0.000 C 
BRANCH  21  22
ATOM     22  C   UNL     1       5.163   5.728  16.917  0.00  0.00    +0.000 C 
BRANCH  22  23
ATOM     23  C   UNL     1       6.642   6.102  16.940  0.00  0.00    +0.000 C 
BRANCH  23  24
ATOM     24  C   UNL     1       7.448   5.160  17.832  0.00  0.00    +0.000 C 
BRANCH  24  26
ATOM     25  O   UNL     1       7.634   5.351  20.249  0.00  0.00    +0.000 OA
ATOM     26  C   UNL     1       7.821   5.821  19.138  0.00  0.00    +0.000 C 
BRANCH  26  27
ATOM     27  O   UNL     1       8.401   7.030  18.954  0.00  0.00    +0.000 OA
ATOM     28  H   UNL     1       7.943   7.759  19.412  0.00  0.00    +0.000 HD
ENDBRANCH  26  27
ENDBRANCH  24  26
ENDBRANCH  23  24
ENDBRANCH  22  23
ENDBRANCH  21  22
ENDBRANCH  20  21
ENDBRANCH  19  20
ENDBRANCH   1  19
TORSDOF 11
ENDMDL
MODEL 4
REMARK VINA RESULT:      -7.8      1.845      4.550
REMARK  Name = 
REMARK  11 active torsions:
REMARK  status: ('A' for Active; 'I' for Inactive)
REMARK    1  A    between atoms: C_2  and  O_3
REMARK    2  A    between atoms: C_2  and  C_4
REMARK    3  A    between atoms: C_4  and  C_5
REMARK    4  A    between atoms: C_5  and  C_6
REMARK    5  A    between atoms: C_6  and  C_7
REMARK    6  A    between atoms: C_7  and  C_8
REMARK    7  A    between atoms: C_8  and  C_9
REMARK    8  A    between atoms: C_9  and  C_10
REMARK    9  A    between atoms: C_15  and  C_16
REMARK   10  A    between atoms: C_19  and  C_20
REMARK   11  A    between atoms: C_20  and  O_21
REMARK                            x       y       z     vdW  Elec       q    Type
REMARK                         _______ _______ _______ _____ _____    ______ ____
ROOT
ATOM      1  C   UNL     1       5.228   5.312  18.931  0.00  0.00    +0.000 C 
ATOM      2  C   UNL     1       6.694   5.625  18.742  0.00  0.00    +0.000 C 
ATOM      3  O   UNL     1       7.578   5.264  19.509  0.00  0.00    +0.000 OA
ATOM      4  C   UNL     1       6.992   6.431  17.515  0.00  0.00    +0.000 C 
ATOM      5  C   UNL     1       5.634   6.902  17.045  0.00  0.00    +0.000 C 
ATOM      6  C   UNL     1       4.558   6.066  17.761  0.00  0.00    +0.000 C 
ENDROOT
BRANCH   6   7
ATOM      7  C   UNL     1       3.424   6.961  18.224  0.00  0.00    +0.000 A 
ATOM      8  C   UNL     1       2.986   8.025  17.435  0.00  0.00    +0.000 A 
ATOM      9  C   UNL     1       2.014   8.906  17.920  0.00  0.00    +0.000 A 
ATOM     10  C   UNL     1       1.449   8.771  19.205  0.00  0.00    +0.000 A 
ATOM     11  C   UNL     1       1.868   7.660  19.956  0.00  0.00    +0.000 A 
ATOM     12  C   UNL     1       2.830   6.771  19.478  0.00  0.00    +0.000 A 
BRANCH  10  13
ATOM     13  C   UNL     1       0.381   9.814  19.783  0.00  0.00    +0.000 C 
ATOM     14  C   UNL     1      -0.680  10.341  18.756  0.00  0.00    +0.000 C 
ATOM     15  C   UNL     1      -0.536  11.735  19.385  0.00  0.00    +0.000 C 
ATOM     16  C   UNL     1       0.852  11.309  19.886  0.00  0.00    +0.000 C 
BRANCH  13  17
ATOM     17  O   UNL     1      -0.197   9.319  21.018  0.00  0.00    +0.000 OA
ATOM     18  H   UNL     1      -1.009   9.841  21.134  0.00  0.00    +0.000 HD
ENDBRANCH  13  17
ENDBRANCH  10  13
ENDBRANCH   6   7
BRANCH   1  19
ATOM     19  C   UNL     1       4.912   3.808  18.876  0.00  0.00    +0.000 C 
BRANCH  19  20
ATOM     20  C   UNL     1       3.851   3.451  17.832  0.00  0.00    +0.000 C 
BRANCH  20  21
ATOM     21  C   UNL     1       3.323   2.029  18.019  0.00  0.00    +0.000 C 
BRANCH  21  22
ATOM     22  C   UNL     1       1.951   2.049  18.694  0.00  0.00    +0.000 C 
BRANCH  22  23
ATOM     23  C   UNL     1       1.412   3.472  18.802  0.00  0.00    +0.000 C 
BRANCH  23  24
ATOM     24  C   UNL     1       0.755   3.726  20.158  0.00  0.00    +0.000 C 
BRANCH  24  26
ATOM     25  O   UNL     1       2.724   4.195  21.505  0.00  0.00    +0.000 OA
ATOM     26  C   UNL     1       1.731   3.518  21.292  0.00  0.00    +0.000 C 
BRANCH  26  27
ATOM     27  O   UNL     1       1.390   2.468  22.076  0.00  0.00    +0.000 OA
ATOM     28  H   UNL     1       0.530   2.070  21.845  0.00  0.00    +0.000 HD
ENDBRANCH  26  27
ENDBRANCH  24  26
ENDBRANCH  23  24
ENDBRANCH  22  23
ENDBRANCH  21  22
ENDBRANCH  20  21
ENDBRANCH  19  20
ENDBRANCH   1  19
TORSDOF 11
ENDMDL
MODEL 5
REMARK VINA RESULT:      -7.8      1.973      4.488
REMARK  Name = 
REMARK  11 active torsions:
REMARK  status: ('A' for Active; 'I' for Inactive)
REMARK    1  A    between atoms: C_2  and  O_3
REMARK    2  A    between atoms: C_2  and  C_4
REMARK    3  A    between atoms: C_4  and  C_5
REMARK    4  A    between atoms: C_5  and  C_6
REMARK    5  A    between atoms: C_6  and  C_7
REMARK    6  A    between atoms: C_7  and  C_8
REMARK    7  A    between atoms: C_8  and  C_9
REMARK    8  A    between atoms: C_9  and  C_10
REMARK    9  A    between atoms: C_15  and  C_16
REMARK   10  A    between atoms: C_19  and  C_20
REMARK   11  A    between atoms: C_20  and  O_21
REMARK                            x       y       z     vdW  Elec       q    Type
REMARK                         _______ _______ _______ _____ _____    ______ ____
ROOT
ATOM      1  C   UNL     1       4.954   5.097  18.445  0.00  0.00    +0.000 C 
ATOM      2  C   UNL     1       6.402   5.266  18.049  0.00  0.00    +0.000 C 
ATOM      3  O   UNL     1       7.339   4.721  18.620  0.00  0.00    +0.000 OA
ATOM      4  C   UNL     1       6.611   6.175  16.877  0.00  0.00    +0.000 C 
ATOM      5  C   UNL     1       5.269   6.846  16.686  0.00  0.00    +0.000 C 
ATOM      6  C   UNL     1       4.216   6.054  17.483  0.00  0.00    +0.000 C 
ENDROOT
BRANCH   6   7
ATOM      7  C   UNL     1       3.289   7.007  18.213  0.00  0.00    +0.000 A 
ATOM      8  C   UNL     1       2.860   6.730  19.511  0.00  0.00    +0.000 A 
ATOM      9  C   UNL     1       1.921   7.560  20.133  0.00  0.00    +0.000 A 
ATOM     10  C   UNL     1       1.367   8.686  19.489  0.00  0.00    +0.000 A 
ATOM     11  C   UNL     1       1.858   8.972  18.205  0.00  0.00    +0.000 A 
ATOM     12  C   UNL     1       2.800   8.155  17.580  0.00  0.00    +0.000 A 
BRANCH  10  13
ATOM     13  C   UNL     1       0.250   9.601  20.178  0.00  0.00    +0.000 C 
ATOM     14  C   UNL     1      -0.763  10.292  19.200  0.00  0.00    +0.000 C 
ATOM     15  C   UNL     1      -0.679  11.555  20.070  0.00  0.00    +0.000 C 
ATOM     16  C   UNL     1       0.687  11.059  20.568  0.00  0.00    +0.000 C 
BRANCH  13  17
ATOM     17  O   UNL     1      -0.386   8.892  21.272  0.00  0.00    +0.000 OA
ATOM     18  H   UNL     1      -1.332   8.899  21.051  0.00  0.00    +0.000 HD
ENDBRANCH  13  17
ENDBRANCH  10  13
ENDBRANCH   6   7
BRANCH   1  19
ATOM     19  C   UNL     1       4.443   3.654  18.292  0.00  0.00    +0.000 C 
BRANCH  19  20
ATOM     20  C   UNL     1       3.636   3.431  17.011  0.00  0.00    +0.000 C 
BRANCH  20  21
ATOM     21  C   UNL     1       2.170   3.116  17.308  0.00  0.00    +0.000 C 
BRANCH  21  22
ATOM     22  C   UNL     1       2.029   2.444  18.675  0.00  0.00    +0.000 C 
BRANCH  22  23
ATOM     23  C   UNL     1       0.861   3.034  19.459  0.00  0.00    +0.000 C 
BRANCH  23  24
ATOM     24  C   UNL     1       1.335   3.772  20.709  0.00  0.00    +0.000 C 
BRANCH  24  26
ATOM     25  O   UNL     1       2.994   2.472  21.921  0.00  0.00    +0.000 OA
ATOM     26  C   UNL     1       1.832   2.810  21.763  0.00  0.00    +0.000 C 
BRANCH  26  27
ATOM     27  O   UNL     1       0.831   2.339  22.542  0.00  0.00    +0.000 OA
ATOM     28  H   UNL     1       0.944   2.539  23.490  0.00  0.00    +0.000 HD
ENDBRANCH  26  27
ENDBRANCH  24  26
ENDBRANCH  23  24
ENDBRANCH  22  23
ENDBRANCH  21  22
ENDBRANCH  20  21
ENDBRANCH  19  20
ENDBRANCH   1  19
TORSDOF 11
ENDMDL
MODEL 6
REMARK VINA RESULT:      -7.8      1.997      4.643
REMARK  Name = 
REMARK  11 active torsions:
REMARK  status: ('A' for Active; 'I' for Inactive)
REMARK    1  A    between atoms: C_2  and  O_3
REMARK    2  A    between atoms: C_2  and  C_4
REMARK    3  A    between atoms: C_4  and  C_5
REMARK    4  A    between atoms: C_5  and  C_6
REMARK    5  A    between atoms: C_6  and  C_7
REMARK    6  A    between atoms: C_7  and  C_8
REMARK    7  A    between atoms: C_8  and  C_9
REMARK    8  A    between atoms: C_9  and  C_10
REMARK    9  A    between atoms: C_15  and  C_16
REMARK   10  A    between atoms: C_19  and  C_20
REMARK   11  A    between atoms: C_20  and  O_21
REMARK                            x       y       z     vdW  Elec       q    Type
REMARK                         _______ _______ _______ _____ _____    ______ ____
ROOT
ATOM      1  C   UNL     1       5.072   4.852  18.119  0.00  0.00    +0.000 C 
ATOM      2  C   UNL     1       6.493   5.063  17.650  0.00  0.00    +0.000 C 
ATOM      3  O   UNL     1       7.462   4.469  18.105  0.00  0.00    +0.000 OA
ATOM      4  C   UNL     1       6.630   6.080  16.559  0.00  0.00    +0.000 C 
ATOM      5  C   UNL     1       5.280   6.762  16.519  0.00  0.00    +0.000 C 
ATOM      6  C   UNL     1       4.278   5.895  17.302  0.00  0.00    +0.000 C 
ENDROOT
BRANCH   6   7
ATOM      7  C   UNL     1       3.402   6.770  18.177  0.00  0.00    +0.000 A 
ATOM      8  C   UNL     1       3.069   6.377  19.474  0.00  0.00    +0.000 A 
ATOM      9  C   UNL     1       2.174   7.139  20.232  0.00  0.00    +0.000 A 
ATOM     10  C   UNL     1       1.570   8.312  19.730  0.00  0.00    +0.000 A 
ATOM     11  C   UNL     1       1.966   8.714  18.444  0.00  0.00    +0.000 A 
ATOM     12  C   UNL     1       2.864   7.965  17.684  0.00  0.00    +0.000 A 
BRANCH  10  13
ATOM     13  C   UNL     1       0.502   9.152  20.575  0.00  0.00    +0.000 C 
ATOM     14  C   UNL     1       1.031   9.779  21.912  0.00  0.00    +0.000 C 
ATOM     15  C   UNL     1      -0.303   9.397  22.571  0.00  0.00    +0.000 C 
ATOM     16  C   UNL     1      -0.473   8.323  21.487  0.00  0.00    +0.000 C 
BRANCH  13  17
ATOM     17  O   UNL     1      -0.193  10.097  19.722  0.00  0.00    +0.000 OA
ATOM     18  H   UNL     1      -0.989   9.622  19.429  0.00  0.00    +0.000 HD
ENDBRANCH  13  17
ENDBRANCH  10  13
ENDBRANCH   6   7
BRANCH   1  19
ATOM     19  C   UNL     1       4.548   3.429  17.862  0.00  0.00    +0.000 C 
BRANCH  19  20
ATOM     20  C   UNL     1       3.208   3.402  17.124  0.00  0.00    +0.000 C 
BRANCH  20  21
ATOM     21  C   UNL     1       2.169   2.557  17.860  0.00  0.00    +0.000 C 
BRANCH  21  22
ATOM     22  C   UNL     1       0.982   3.419  18.292  0.00  0.00    +0.000 C 
BRANCH  22  23
ATOM     23  C   UNL     1       0.515   3.048  19.696  0.00  0.00    +0.000 C 
BRANCH  23  24
ATOM     24  C   UNL     1       1.353   3.739  20.770  0.00  0.00    +0.000 C 
BRANCH  24  26
ATOM     25  O   UNL     1       3.307   2.473  21.469  0.00  0.00    +0.000 OA
ATOM     26  C   UNL     1       2.123   2.738  21.599  0.00  0.00    +0.000 C 
BRANCH  26  27
ATOM     27  O   UNL     1       1.346   2.138  22.531  0.00  0.00    +0.000 OA
ATOM     28  H   UNL     1       1.641   2.296  23.448  0.00  0.00    +0.000 HD
ENDBRANCH  26  27
ENDBRANCH  24  26
ENDBRANCH  23  24
ENDBRANCH  22  23
ENDBRANCH  21  22
ENDBRANCH  20  21
ENDBRANCH  19  20
ENDBRANCH   1  19
TORSDOF 11
ENDMDL
MODEL 7
REMARK VINA RESULT:      -7.7      1.978      2.509
REMARK  Name = 
REMARK  11 active torsions:
REMARK  status: ('A' for Active; 'I' for Inactive)
REMARK    1  A    between atoms: C_2  and  O_3
REMARK    2  A    between atoms: C_2  and  C_4
REMARK    3  A    between atoms: C_4  and  C_5
REMARK    4  A    between atoms: C_5  and  C_6
REMARK    5  A    between atoms: C_6  and  C_7
REMARK    6  A    between atoms: C_7  and  C_8
REMARK    7  A    between atoms: C_8  and  C_9
REMARK    8  A    between atoms: C_9  and  C_10
REMARK    9  A    between atoms: C_15  and  C_16
REMARK   10  A    between atoms: C_19  and  C_20
REMARK   11  A    between atoms: C_20  and  O_21
REMARK                            x       y       z     vdW  Elec       q    Type
REMARK                         _______ _______ _______ _____ _____    ______ ____
ROOT
ATOM      1  C   UNL     1       1.610   4.071  18.485  0.00  0.00    +0.000 C 
ATOM      2  C   UNL     1       0.923   3.068  19.383  0.00  0.00    +0.000 C 
ATOM      3  O   UNL     1       0.093   2.255  18.996  0.00  0.00    +0.000 OA
ATOM      4  C   UNL     1       1.342   3.149  20.819  0.00  0.00    +0.000 C 
ATOM      5  C   UNL     1       2.119   4.444  20.904  0.00  0.00    +0.000 C 
ATOM      6  C   UNL     1       2.464   4.895  19.474  0.00  0.00    +0.000 C 
ENDROOT
BRANCH   6   7
ATOM      7  C   UNL     1       2.238   6.387  19.328  0.00  0.00    +0.000 A 
ATOM      8  C   UNL     1       1.755   7.144  20.396  0.00  0.00    +0.000 A 
ATOM      9  C   UNL     1       1.448   8.497  20.217  0.00  0.00    +0.000 A 
ATOM     10  C   UNL     1       1.599   9.146  18.974  0.00  0.00    +0.000 A 
ATOM     11  C   UNL     1       2.139   8.375  17.931  0.00  0.00    +0.000 A 
ATOM     12  C   UNL     1       2.456   7.027  18.102  0.00  0.00    +0.000 A 
BRANCH  10  13
ATOM     13  C   UNL     1       1.193  10.678  18.754  0.00  0.00    +0.000 C 
ATOM     14  C   UNL     1       1.052  11.539  20.057  0.00  0.00    +0.000 C 
ATOM     15  C   UNL     1      -0.183  12.207  19.434  0.00  0.00    +0.000 C 
ATOM     16  C   UNL     1      -0.335  10.969  18.537  0.00  0.00    +0.000 C 
BRANCH  13  17
ATOM     17  O   UNL     1       2.032  11.287  17.740  0.00  0.00    +0.000 OA
ATOM     18  H   UNL     1       1.642  12.165  17.595  0.00  0.00    +0.000 HD
ENDBRANCH  13  17
ENDBRANCH  10  13
ENDBRANCH   6   7
BRANCH   1  19
ATOM     19  C   UNL     1       2.488   3.420  17.402  0.00  0.00    +0.000 C 
BRANCH  19  20
ATOM     20  C   UNL     1       3.906   3.105  17.882  0.00  0.00    +0.000 C 
BRANCH  20  21
ATOM     21  C   UNL     1       4.961   3.534  16.863  0.00  0.00    +0.000 C 
BRANCH  21  22
ATOM     22  C   UNL     1       5.826   4.663  17.425  0.00  0.00    +0.000 C 
BRANCH  22  23
ATOM     23  C   UNL     1       5.772   5.895  16.527  0.00  0.00    +0.000 C 
BRANCH  23  24
ATOM     24  C   UNL     1       5.457   5.525  15.079  0.00  0.00    +0.000 C 
BRANCH  24  26
ATOM     25  O   UNL     1       6.595   3.881  13.697  0.00  0.00    +0.000 OA
ATOM     26  C   UNL     1       6.642   4.874  14.406  0.00  0.00    +0.000 C 
BRANCH  26  27
ATOM     27  O   UNL     1       7.802   5.516  14.675  0.00  0.00    +0.000 OA
ATOM     28  H   UNL     1       8.271   5.828  13.879  0.00  0.00    +0.000 HD
ENDBRANCH  26  27
ENDBRANCH  24  26
ENDBRANCH  23  24
ENDBRANCH  22  23
ENDBRANCH  21  22
ENDBRANCH  20  21
ENDBRANCH  19  20
ENDBRANCH   1  19
TORSDOF 11
ENDMDL
MODEL 8
REMARK VINA RESULT:      -7.6      1.627      2.105
REMARK  Name = 
REMARK  11 active torsions:
REMARK  status: ('A' for Active; 'I' for Inactive)
REMARK    1  A    between atoms: C_2  and  O_3
REMARK    2  A    between atoms: C_2  and  C_4
REMARK    3  A    between atoms: C_4  and  C_5
REMARK    4  A    between atoms: C_5  and  C_6
REMARK    5  A    between atoms: C_6  and  C_7
REMARK    6  A    between atoms: C_7  and  C_8
REMARK    7  A    between atoms: C_8  and  C_9
REMARK    8  A    between atoms: C_9  and  C_10
REMARK    9  A    between atoms: C_15  and  C_16
REMARK   10  A    between atoms: C_19  and  C_20
REMARK   11  A    between atoms: C_20  and  O_21
REMARK                            x       y       z     vdW  Elec       q    Type
REMARK                         _______ _______ _______ _____ _____    ______ ____
ROOT
ATOM      1  C   UNL     1       1.617   4.157  18.598  0.00  0.00    +0.000 C 
ATOM      2  C   UNL     1       1.006   2.979  19.321  0.00  0.00    +0.000 C 
ATOM      3  O   UNL     1       0.217   2.193  18.812  0.00  0.00    +0.000 OA
ATOM      4  C   UNL     1       1.449   2.843  20.746  0.00  0.00    +0.000 C 
ATOM      5  C   UNL     1       2.152   4.150  21.040  0.00  0.00    +0.000 C 
ATOM      6  C   UNL     1       2.442   4.854  19.702  0.00  0.00    +0.000 C 
ENDROOT
BRANCH   6   7
ATOM      7  C   UNL     1       2.126   6.333  19.812  0.00  0.00    +0.000 A 
ATOM      8  C   UNL     1       1.551   6.857  20.970  0.00  0.00    +0.000 A 
ATOM      9  C   UNL     1       1.166   8.201  21.019  0.00  0.00    +0.000 A 
ATOM     10  C   UNL     1       1.328   9.071  19.920  0.00  0.00    +0.000 A 
ATOM     11  C   UNL     1       1.960   8.531  18.787  0.00  0.00    +0.000 A 
ATOM     12  C   UNL     1       2.354   7.195  18.732  0.00  0.00    +0.000 A 
BRANCH  10  13
ATOM     13  C   UNL     1       0.834  10.592  19.955  0.00  0.00    +0.000 C 
ATOM     14  C   UNL     1      -0.637  10.842  19.473  0.00  0.00    +0.000 C 
ATOM     15  C   UNL     1      -0.145  12.110  18.759  0.00  0.00    +0.000 C 
ATOM     16  C   UNL     1       1.260  11.491  18.738  0.00  0.00    +0.000 C 
BRANCH  13  17
ATOM     17  O   UNL     1       1.140  11.198  21.237  0.00  0.00    +0.000 OA
ATOM     18  H   UNL     1       1.776  11.903  21.028  0.00  0.00    +0.000 HD
ENDBRANCH  13  17
ENDBRANCH  10  13
ENDBRANCH   6   7
BRANCH   1  19
ATOM     19  C   UNL     1       2.508   3.751  17.412  0.00  0.00    +0.000 C 
BRANCH  19  20
ATOM     20  C   UNL     1       3.838   3.128  17.841  0.00  0.00    +0.000 C 
BRANCH  20  21
ATOM     21  C   UNL     1       5.021   4.048  17.545  0.00  0.00    +0.000 C 
BRANCH  21  22
ATOM     22  C   UNL     1       4.815   4.782  16.219  0.00  0.00    +0.000 C 
BRANCH  22  23
ATOM     23  C   UNL     1       4.945   6.291  16.401  0.00  0.00    +0.000 C 
BRANCH  23  24
ATOM     24  C   UNL     1       5.868   6.642  17.566  0.00  0.00    +0.000 C 
BRANCH  24  26
ATOM     25  O   UNL     1       7.860   6.507  16.179  0.00  0.00    +0.000 OA
ATOM     26  C   UNL     1       7.240   7.047  17.081  0.00  0.00    +0.000 C 
BRANCH  26  27
ATOM     27  O   UNL     1       7.736   8.103  17.768  0.00  0.00    +0.000 OA
ATOM     28  H   UNL     1       7.089   8.521  18.365  0.00  0.00    +0.000 HD
ENDBRANCH  26  27
ENDBRANCH  24  26
ENDBRANCH  23  24
ENDBRANCH  22  23
ENDBRANCH  21  22
ENDBRANCH  20  21
ENDBRANCH  19  20
ENDBRANCH   1  19
TORSDOF 11
ENDMDL
MODEL 9
REMARK VINA RESULT:      -7.6      1.151      1.485
REMARK  Name = 
REMARK  11 active torsions:
REMARK  status: ('A' for Active; 'I' for Inactive)
REMARK    1  A    between atoms: C_2  and  O_3
REMARK    2  A    between atoms: C_2  and  C_4
REMARK    3  A    between atoms: C_4  and  C_5
REMARK    4  A    between atoms: C_5  and  C_6
REMARK    5  A    between atoms: C_6  and  C_7
REMARK    6  A    between atoms: C_7  and  C_8
REMARK    7  A    between atoms: C_8  and  C_9
REMARK    8  A    between atoms: C_9  and  C_10
REMARK    9  A    between atoms: C_15  and  C_16
REMARK   10  A    between atoms: C_19  and  C_20
REMARK   11  A    between atoms: C_20  and  O_21
REMARK                            x       y       z     vdW  Elec       q    Type
REMARK                         _______ _______ _______ _____ _____    ______ ____
ROOT
ATOM      1  C   UNL     1       1.874   3.826  18.527  0.00  0.00    +0.000 C 
ATOM      2  C   UNL     1       1.045   2.827  19.301  0.00  0.00    +0.000 C 
ATOM      3  O   UNL     1       0.323   1.984  18.783  0.00  0.00    +0.000 OA
ATOM      4  C   UNL     1       1.176   2.950  20.788  0.00  0.00    +0.000 C 
ATOM      5  C   UNL     1       1.895   4.266  20.988  0.00  0.00    +0.000 C 
ATOM      6  C   UNL     1       2.503   4.693  19.640  0.00  0.00    +0.000 C 
ENDROOT
BRANCH   6   7
ATOM      7  C   UNL     1       2.279   6.176  19.413  0.00  0.00    +0.000 A 
ATOM      8  C   UNL     1       1.870   7.005  20.458  0.00  0.00    +0.000 A 
ATOM      9  C   UNL     1       1.563   8.347  20.212  0.00  0.00    +0.000 A 
ATOM     10  C   UNL     1       1.640   8.913  18.922  0.00  0.00    +0.000 A 
ATOM     11  C   UNL     1       2.107   8.071  17.900  0.00  0.00    +0.000 A 
ATOM     12  C   UNL     1       2.423   6.734  18.137  0.00  0.00    +0.000 A 
BRANCH  10  13
ATOM     13  C   UNL     1       1.233  10.433  18.630  0.00  0.00    +0.000 C 
ATOM     14  C   UNL     1       1.169  11.374  19.883  0.00  0.00    +0.000 C 
ATOM     15  C   UNL     1      -0.094  12.014  19.287  0.00  0.00    +0.000 C 
ATOM     16  C   UNL     1      -0.304  10.725  18.478  0.00  0.00    +0.000 C 
BRANCH  13  17
ATOM     17  O   UNL     1       2.019  10.970  17.536  0.00  0.00    +0.000 OA
ATOM     18  H   UNL     1       2.473  11.740  17.916  0.00  0.00    +0.000 HD
ENDBRANCH  13  17
ENDBRANCH  10  13
ENDBRANCH   6   7
BRANCH   1  19
ATOM     19  C   UNL     1       2.958   3.173  17.653  0.00  0.00    +0.000 C 
BRANCH  19  20
ATOM     20  C   UNL     1       4.224   4.023  17.524  0.00  0.00    +0.000 C 
BRANCH  20  21
ATOM     21  C   UNL     1       4.429   4.527  16.096  0.00  0.00    +0.000 C 
BRANCH  21  22
ATOM     22  C   UNL     1       5.772   5.248  15.967  0.00  0.00    +0.000 C 
BRANCH  22  23
ATOM     23  C   UNL     1       5.855   6.430  16.929  0.00  0.00    +0.000 C 
BRANCH  23  24
ATOM     24  C   UNL     1       7.302   6.765  17.287  0.00  0.00    +0.000 C 
BRANCH  24  26
ATOM     25  O   UNL     1       7.501   4.849  18.771  0.00  0.00    +0.000 OA
ATOM     26  C   UNL     1       7.753   6.017  18.519  0.00  0.00    +0.000 C 
BRANCH  26  27
ATOM     27  O   UNL     1       8.489   6.792  19.350  0.00  0.00    +0.000 OA
ATOM     28  H   UNL     1       7.957   7.276  20.009  0.00  0.00    +0.000 HD
ENDBRANCH  26  27
ENDBRANCH  24  26
ENDBRANCH  23  24
ENDBRANCH  22  23
ENDBRANCH  21  22
ENDBRANCH  20  21
ENDBRANCH  19  20
ENDBRANCH   1  19
TORSDOF 11
ENDMDL
