MODEL 1
REMARK VINA RESULT:      -7.8      0.000      0.000
REMARK  Name = 
REMARK  6 active torsions:
REMARK  status: ('A' for Active; 'I' for Inactive)
REMARK    1  A    between atoms: C_1  and  C_2
REMARK    2  A    between atoms: C_6  and  C_7
REMARK    3  A    between atoms: C_8  and  N_9
REMARK    4  A    between atoms: C_10  and  N_12
REMARK    5  A    between atoms: N_13  and  C_14
REMARK    6  A    between atoms: C_15  and  O_16
REMARK                            x       y       z     vdW  Elec       q    Type
REMARK                         _______ _______ _______ _____ _____    ______ ____
ROOT
ATOM      1  N   UNL     1       2.476   7.693  18.874  0.00  0.00    +0.000 NA
ATOM      2  N   UNL     1       1.879   8.014  19.931  0.00  0.00    +0.000 NA
ENDROOT
BRANCH   2   3
ATOM      3  C   UNL     1       1.124   9.193  19.846  0.00  0.00    +0.000 A 
ATOM      4  C   UNL     1       0.977  10.048  18.775  0.00  0.00    +0.000 A 
ATOM      5  N   UNL     1       0.122  11.046  19.166  0.00  0.00    +0.000 N 
ATOM      6  C   UNL     1      -0.247  10.882  20.484  0.00  0.00    +0.000 A 
ATOM      7  C   UNL     1      -1.082  11.663  21.295  0.00  0.00    +0.000 A 
ATOM      8  C   UNL     1      -1.257  11.264  22.623  0.00  0.00    +0.000 A 
ATOM      9  C   UNL     1      -0.621  10.127  23.119  0.00  0.00    +0.000 A 
ATOM     10  C   UNL     1       0.198   9.348  22.292  0.00  0.00    +0.000 A 
ATOM     11  C   UNL     1       0.390   9.727  20.947  0.00  0.00    +0.000 A 
ATOM     12  H   UNL     1      -0.170  11.806  18.570  0.00  0.00    +0.000 HD
BRANCH   4  13
ATOM     13  O   UNL     1       1.486  10.062  17.550  0.00  0.00    +0.000 OA
ATOM     14  H   UNL     1       2.070  10.845  17.504  0.00  0.00    +0.000 HD
ENDBRANCH   4  13
ENDBRANCH   2   3
BRANCH   1  16
ATOM     15  N   UNL     1       2.329   5.476  18.202  0.00  0.00    +0.000 N 
ATOM     16  C   UNL     1       3.032   6.414  18.942  0.00  0.00    +0.000 C 
ATOM     17  O   UNL     1       4.035   6.172  19.597  0.00  0.00    +0.000 OA
ATOM     18  H   UNL     1       1.392   5.817  18.031  0.00  0.00    +0.000 HD
BRANCH  15  26
ATOM     19  C   UNL     1       0.760   3.814  20.138  0.00  0.00    +0.000 C 
ATOM     20  C   UNL     1       1.800   3.278  19.191  0.00  0.00    +0.000 A 
ATOM     21  C   UNL     1       2.145   1.920  19.312  0.00  0.00    +0.000 A 
ATOM     22  C   UNL     1       3.150   1.357  18.530  0.00  0.00    +0.000 A 
ATOM     23  C   UNL     1       3.824   2.143  17.605  0.00  0.00    +0.000 A 
ATOM     24  C   UNL     1       3.517   3.504  17.463  0.00  0.00    +0.000 A 
ATOM     25  C   UNL     1       4.265   4.288  16.416  0.00  0.00    +0.000 C 
ATOM     26  C   UNL     1       2.496   4.078  18.258  0.00  0.00    +0.000 A 
ENDBRANCH  15  26
ENDBRANCH   1  16
TORSDOF 4
ENDMDL
MODEL 2
REMARK VINA RESULT:      -7.7      6.762     10.318
REMARK  Name = 
REMARK  6 active torsions:
REMARK  status: ('A' for Active; 'I' for Inactive)
REMARK    1  A    between atoms: C_1  and  C_2
REMARK    2  A    between atoms: C_6  and  C_7
REMARK    3  A    between atoms: C_8  and  N_9
REMARK    4  A    between atoms: C_10  and  N_12
REMARK    5  A    between atoms: N_13  and  C_14
REMARK    6  A    between atoms: C_15  and  O_16
REMARK                            x       y       z     vdW  Elec       q    Type
REMARK                         _______ _______ _______ _____ _____    ______ ____
ROOT
ATOM      1  N   UNL     1       8.539   8.286  18.770  0.00  0.00    +0.000 NA
ATOM      2  N   UNL     1       7.880   7.846  17.796  0.00  0.00    +0.000 NA
ENDROOT
BRANCH   2   3
ATOM      3  C   UNL     1       7.420   6.529  17.942  0.00  0.00    +0.000 A 
ATOM      4  C   UNL     1       7.667   5.638  18.964  0.00  0.00    +0.000 A 
ATOM      5  N   UNL     1       6.980   4.488  18.674  0.00  0.00    +0.000 N 
ATOM      6  C   UNL     1       6.335   4.598  17.461  0.00  0.00    +0.000 A 
ATOM      7  C   UNL     1       5.540   3.673  16.770  0.00  0.00    +0.000 A 
ATOM      8  C   UNL     1       5.030   4.056  15.526  0.00  0.00    +0.000 A 
ATOM      9  C   UNL     1       5.304   5.315  14.996  0.00  0.00    +0.000 A 
ATOM     10  C   UNL     1       6.088   6.235  15.705  0.00  0.00    +0.000 A 
ATOM     11  C   UNL     1       6.613   5.875  16.964  0.00  0.00    +0.000 A 
ATOM     12  H   UNL     1       6.975   3.668  19.262  0.00  0.00    +0.000 HD
BRANCH   4  13
ATOM     13  O   UNL     1       8.396   5.706  20.070  0.00  0.00    +0.000 OA
ATOM     14  H   UNL     1       8.678   4.791  20.270  0.00  0.00    +0.000 HD
ENDBRANCH   4  13
ENDBRANCH   2   3
BRANCH   1  16
ATOM     15  N   UNL     1       9.679  10.116  19.628  0.00  0.00    +0.000 N 
ATOM     16  C   UNL     1       8.788   9.657  18.672  0.00  0.00    +0.000 C 
ATOM     17  O   UNL     1       8.257  10.357  17.823  0.00  0.00    +0.000 OA
ATOM     18  H   UNL     1       9.720   9.457  20.394  0.00  0.00    +0.000 HD
BRANCH  15  26
ATOM     19  C   UNL     1      11.510  11.753  17.915  0.00  0.00    +0.000 C 
ATOM     20  C   UNL     1      10.838  12.245  19.169  0.00  0.00    +0.000 A 
ATOM     21  C   UNL     1      11.194  13.525  19.633  0.00  0.00    +0.000 A 
ATOM     22  C   UNL     1      10.680  14.030  20.824  0.00  0.00    +0.000 A 
ATOM     23  C   UNL     1       9.793  13.266  21.571  0.00  0.00    +0.000 A 
ATOM     24  C   UNL     1       9.423  11.980  21.147  0.00  0.00    +0.000 A 
ATOM     25  C   UNL     1       8.430  11.222  21.988  0.00  0.00    +0.000 C 
ATOM     26  C   UNL     1       9.945  11.465  19.936  0.00  0.00    +0.000 A 
ENDBRANCH  15  26
ENDBRANCH   1  16
TORSDOF 4
ENDMDL
MODEL 3
REMARK VINA RESULT:      -7.7      0.214      1.830
REMARK  Name = 
REMARK  6 active torsions:
REMARK  status: ('A' for Active; 'I' for Inactive)
REMARK    1  A    between atoms: C_1  and  C_2
REMARK    2  A    between atoms: C_6  and  C_7
REMARK    3  A    between atoms: C_8  and  N_9
REMARK    4  A    between atoms: C_10  and  N_12
REMARK    5  A    between atoms: N_13  and  C_14
REMARK    6  A    between atoms: C_15  and  O_16
REMARK                            x       y       z     vdW  Elec       q    Type
REMARK                         _______ _______ _______ _____ _____    ______ ____
ROOT
ATOM      1  N   UNL     1       2.498   7.803  18.785  0.00  0.00    +0.000 NA
ATOM      2  N   UNL     1       1.921   8.099  19.860  0.00  0.00    +0.000 NA
ENDROOT
BRANCH   2   3
ATOM      3  C   UNL     1       1.110   9.243  19.798  0.00  0.00    +0.000 A 
ATOM      4  C   UNL     1       0.893  10.089  18.733  0.00  0.00    +0.000 A 
ATOM      5  N   UNL     1       0.006  11.047  19.150  0.00  0.00    +0.000 N 
ATOM      6  C   UNL     1      -0.316  10.868  20.478  0.00  0.00    +0.000 A 
ATOM      7  C   UNL     1      -1.161  11.611  21.314  0.00  0.00    +0.000 A 
ATOM      8  C   UNL     1      -1.278  11.205  22.646  0.00  0.00    +0.000 A 
ATOM      9  C   UNL     1      -0.577  10.099  23.122  0.00  0.00    +0.000 A 
ATOM     10  C   UNL     1       0.252   9.357  22.271  0.00  0.00    +0.000 A 
ATOM     11  C   UNL     1       0.386   9.743  20.921  0.00  0.00    +0.000 A 
ATOM     12  H   UNL     1      -0.339  11.793  18.564  0.00  0.00    +0.000 HD
BRANCH   4  13
ATOM     13  O   UNL     1       1.364  10.126  17.493  0.00  0.00    +0.000 OA
ATOM     14  H   UNL     1       2.337  10.064  17.567  0.00  0.00    +0.000 HD
ENDBRANCH   4  13
ENDBRANCH   2   3
BRANCH   1  16
ATOM     15  N   UNL     1       2.320   5.535  18.325  0.00  0.00    +0.000 N 
ATOM     16  C   UNL     1       3.113   6.550  18.836  0.00  0.00    +0.000 C 
ATOM     17  O   UNL     1       4.235   6.393  19.292  0.00  0.00    +0.000 OA
ATOM     18  H   UNL     1       1.354   5.833  18.320  0.00  0.00    +0.000 HD
BRANCH  15  26
ATOM     19  C   UNL     1       4.278   4.140  16.540  0.00  0.00    +0.000 C 
ATOM     20  C   UNL     1       3.444   3.464  17.594  0.00  0.00    +0.000 A 
ATOM     21  C   UNL     1       3.499   2.060  17.659  0.00  0.00    +0.000 A 
ATOM     22  C   UNL     1       2.704   1.346  18.552  0.00  0.00    +0.000 A 
ATOM     23  C   UNL     1       1.843   2.025  19.403  0.00  0.00    +0.000 A 
ATOM     24  C   UNL     1       1.750   3.425  19.359  0.00  0.00    +0.000 A 
ATOM     25  C   UNL     1       0.820   4.098  20.335  0.00  0.00    +0.000 C 
ATOM     26  C   UNL     1       2.558   4.152  18.452  0.00  0.00    +0.000 A 
ENDBRANCH  15  26
ENDBRANCH   1  16
TORSDOF 4
ENDMDL
MODEL 4
REMARK VINA RESULT:      -7.6      4.169      8.206
REMARK  Name = 
REMARK  6 active torsions:
REMARK  status: ('A' for Active; 'I' for Inactive)
REMARK    1  A    between atoms: C_1  and  C_2
REMARK    2  A    between atoms: C_6  and  C_7
REMARK    3  A    between atoms: C_8  and  N_9
REMARK    4  A    between atoms: C_10  and  N_12
REMARK    5  A    between atoms: N_13  and  C_14
REMARK    6  A    between atoms: C_15  and  O_16
REMARK                            x       y       z     vdW  Elec       q    Type
REMARK                         _______ _______ _______ _____ _____    ______ ____
ROOT
ATOM      1  N   UNL     1       5.987   4.802  17.487  0.00  0.00    +0.000 NA
ATOM      2  N   UNL     1       5.567   4.502  16.343  0.00  0.00    +0.000 NA
ENDROOT
BRANCH   2   3
ATOM      3  C   UNL     1       6.431   4.843  15.290  0.00  0.00    +0.000 A 
ATOM      4  C   UNL     1       7.461   5.759  15.282  0.00  0.00    +0.000 A 
ATOM      5  N   UNL     1       8.029   5.719  14.035  0.00  0.00    +0.000 N 
ATOM      6  C   UNL     1       7.356   4.834  13.221  0.00  0.00    +0.000 A 
ATOM      7  C   UNL     1       7.574   4.490  11.879  0.00  0.00    +0.000 A 
ATOM      8  C   UNL     1       6.703   3.567  11.295  0.00  0.00    +0.000 A 
ATOM      9  C   UNL     1       5.655   3.010  12.024  0.00  0.00    +0.000 A 
ATOM     10  C   UNL     1       5.458   3.351  13.369  0.00  0.00    +0.000 A 
ATOM     11  C   UNL     1       6.324   4.279  13.984  0.00  0.00    +0.000 A 
ATOM     12  H   UNL     1       8.816   6.285  13.754  0.00  0.00    +0.000 HD
BRANCH   4  13
ATOM     13  O   UNL     1       7.938   6.594  16.195  0.00  0.00    +0.000 OA
ATOM     14  H   UNL     1       7.707   7.494  15.891  0.00  0.00    +0.000 HD
ENDBRANCH   4  13
ENDBRANCH   2   3
BRANCH   1  16
ATOM     15  N   UNL     1       3.861   4.164  18.166  0.00  0.00    +0.000 N 
ATOM     16  C   UNL     1       5.202   4.256  18.505  0.00  0.00    +0.000 C 
ATOM     17  O   UNL     1       5.673   3.907  19.577  0.00  0.00    +0.000 OA
ATOM     18  H   UNL     1       3.664   4.794  17.400  0.00  0.00    +0.000 HD
BRANCH  15  26
ATOM     19  C   UNL     1       2.434   6.365  19.609  0.00  0.00    +0.000 C 
ATOM     20  C   UNL     1       2.138   4.898  19.771  0.00  0.00    +0.000 A 
ATOM     21  C   UNL     1       1.210   4.532  20.764  0.00  0.00    +0.000 A 
ATOM     22  C   UNL     1       0.933   3.195  21.035  0.00  0.00    +0.000 A 
ATOM     23  C   UNL     1       1.574   2.197  20.313  0.00  0.00    +0.000 A 
ATOM     24  C   UNL     1       2.515   2.523  19.324  0.00  0.00    +0.000 A 
ATOM     25  C   UNL     1       3.147   1.391  18.556  0.00  0.00    +0.000 C 
ATOM     26  C   UNL     1       2.799   3.882  19.047  0.00  0.00    +0.000 A 
ENDBRANCH  15  26
ENDBRANCH   1  16
TORSDOF 4
ENDMDL
MODEL 5
REMARK VINA RESULT:      -7.6      6.759     10.163
REMARK  Name = 
REMARK  6 active torsions:
REMARK  status: ('A' for Active; 'I' for Inactive)
REMARK    1  A    between atoms: C_1  and  C_2
REMARK    2  A    between atoms: C_6  and  C_7
REMARK    3  A    between atoms: C_8  and  N_9
REMARK    4  A    between atoms: C_10  and  N_12
REMARK    5  A    between atoms: N_13  and  C_14
REMARK    6  A    between atoms: C_15  and  O_16
REMARK                            x       y       z     vdW  Elec       q    Type
REMARK                         _______ _______ _______ _____ _____    ______ ____
ROOT
ATOM      1  N   UNL     1       8.610   8.301  18.832  0.00  0.00    +0.000 NA
ATOM      2  N   UNL     1       7.897   7.921  17.871  0.00  0.00    +0.000 NA
ENDROOT
BRANCH   2   3
ATOM      3  C   UNL     1       7.450   6.594  17.958  0.00  0.00    +0.000 A 
ATOM      4  C   UNL     1       7.706   5.660  18.938  0.00  0.00    +0.000 A 
ATOM      5  N   UNL     1       7.030   4.517  18.597  0.00  0.00    +0.000 N 
ATOM      6  C   UNL     1       6.383   4.676  17.390  0.00  0.00    +0.000 A 
ATOM      7  C   UNL     1       5.597   3.775  16.658  0.00  0.00    +0.000 A 
ATOM      8  C   UNL     1       5.083   4.209  15.433  0.00  0.00    +0.000 A 
ATOM      9  C   UNL     1       5.344   5.494  14.960  0.00  0.00    +0.000 A 
ATOM     10  C   UNL     1       6.120   6.388  15.710  0.00  0.00    +0.000 A 
ATOM     11  C   UNL     1       6.649   5.977  16.951  0.00  0.00    +0.000 A 
ATOM     12  H   UNL     1       7.034   3.672  19.148  0.00  0.00    +0.000 HD
BRANCH   4  13
ATOM     13  O   UNL     1       8.435   5.685  20.046  0.00  0.00    +0.000 OA
ATOM     14  H   UNL     1       9.341   5.426  19.785  0.00  0.00    +0.000 HD
ENDBRANCH   4  13
ENDBRANCH   2   3
BRANCH   1  16
ATOM     15  N   UNL     1       9.775  10.082  19.757  0.00  0.00    +0.000 N 
ATOM     16  C   UNL     1       8.849   9.677  18.809  0.00  0.00    +0.000 C 
ATOM     17  O   UNL     1       8.283  10.424  18.026  0.00  0.00    +0.000 OA
ATOM     18  H   UNL     1       9.849   9.378  20.479  0.00  0.00    +0.000 HD
BRANCH  15  26
ATOM     19  C   UNL     1       8.397  11.324  22.108  0.00  0.00    +0.000 C 
ATOM     20  C   UNL     1       9.380  12.033  21.215  0.00  0.00    +0.000 A 
ATOM     21  C   UNL     1       9.568  13.411  21.428  0.00  0.00    +0.000 A 
ATOM     22  C   UNL     1      10.400  14.162  20.602  0.00  0.00    +0.000 A 
ATOM     23  C   UNL     1      11.065  13.546  19.550  0.00  0.00    +0.000 A 
ATOM     24  C   UNL     1      10.893  12.177  19.299  0.00  0.00    +0.000 A 
ATOM     25  C   UNL     1      11.673  11.568  18.162  0.00  0.00    +0.000 C 
ATOM     26  C   UNL     1      10.047  11.411  20.137  0.00  0.00    +0.000 A 
ENDBRANCH  15  26
ENDBRANCH   1  16
TORSDOF 4
ENDMDL
MODEL 6
REMARK VINA RESULT:      -7.5      1.887      7.440
REMARK  Name = 
REMARK  6 active torsions:
REMARK  status: ('A' for Active; 'I' for Inactive)
REMARK    1  A    between atoms: C_1  and  C_2
REMARK    2  A    between atoms: C_6  and  C_7
REMARK    3  A    between atoms: C_8  and  N_9
REMARK    4  A    between atoms: C_10  and  N_12
REMARK    5  A    between atoms: N_13  and  C_14
REMARK    6  A    between atoms: C_15  and  O_16
REMARK                            x       y       z     vdW  Elec       q    Type
REMARK                         _______ _______ _______ _____ _____    ______ ____
ROOT
ATOM      1  N   UNL     1       2.199   8.301  17.873  0.00  0.00    +0.000 NA
ATOM      2  N   UNL     1       2.266   7.624  18.928  0.00  0.00    +0.000 NA
ENDROOT
BRANCH   2   3
ATOM      3  C   UNL     1       2.984   6.423  18.813  0.00  0.00    +0.000 A 
ATOM      4  C   UNL     1       3.985   6.099  17.924  0.00  0.00    +0.000 A 
ATOM      5  N   UNL     1       4.392   4.824  18.220  0.00  0.00    +0.000 N 
ATOM      6  C   UNL     1       3.640   4.298  19.248  0.00  0.00    +0.000 A 
ATOM      7  C   UNL     1       3.695   3.037  19.858  0.00  0.00    +0.000 A 
ATOM      8  C   UNL     1       2.775   2.767  20.875  0.00  0.00    +0.000 A 
ATOM      9  C   UNL     1       1.839   3.721  21.267  0.00  0.00    +0.000 A 
ATOM     10  C   UNL     1       1.806   4.983  20.658  0.00  0.00    +0.000 A 
ATOM     11  C   UNL     1       2.725   5.283  19.630  0.00  0.00    +0.000 A 
ATOM     12  H   UNL     1       5.127   4.336  17.728  0.00  0.00    +0.000 HD
BRANCH   4  13
ATOM     13  O   UNL     1       4.557   6.756  16.924  0.00  0.00    +0.000 OA
ATOM     14  H   UNL     1       5.495   6.875  17.174  0.00  0.00    +0.000 HD
ENDBRANCH   4  13
ENDBRANCH   2   3
BRANCH   1  16
ATOM     15  N   UNL     1       0.525   9.561  18.872  0.00  0.00    +0.000 N 
ATOM     16  C   UNL     1       1.668   9.574  18.087  0.00  0.00    +0.000 C 
ATOM     17  O   UNL     1       2.175  10.581  17.616  0.00  0.00    +0.000 OA
ATOM     18  H   UNL     1       0.122   8.633  18.862  0.00  0.00    +0.000 HD
BRANCH  15  26
ATOM     19  C   UNL     1       0.953  11.525  21.091  0.00  0.00    +0.000 C 
ATOM     20  C   UNL     1      -0.206  11.552  20.131  0.00  0.00    +0.000 A 
ATOM     21  C   UNL     1      -1.223  12.494  20.373  0.00  0.00    +0.000 A 
ATOM     22  C   UNL     1      -2.368  12.540  19.582  0.00  0.00    +0.000 A 
ATOM     23  C   UNL     1      -2.513  11.648  18.528  0.00  0.00    +0.000 A 
ATOM     24  C   UNL     1      -1.526  10.686  18.263  0.00  0.00    +0.000 A 
ATOM     25  C   UNL     1      -1.734   9.773  17.082  0.00  0.00    +0.000 C 
ATOM     26  C   UNL     1      -0.362  10.637  19.067  0.00  0.00    +0.000 A 
ENDBRANCH  15  26
ENDBRANCH   1  16
TORSDOF 4
ENDMDL
MODEL 7
REMARK VINA RESULT:      -7.5      1.648      7.669
REMARK  Name = 
REMARK  6 active torsions:
REMARK  status: ('A' for Active; 'I' for Inactive)
REMARK    1  A    between atoms: C_1  and  C_2
REMARK    2  A    between atoms: C_6  and  C_7
REMARK    3  A    between atoms: C_8  and  N_9
REMARK    4  A    between atoms: C_10  and  N_12
REMARK    5  A    between atoms: N_13  and  C_14
REMARK    6  A    between atoms: C_15  and  O_16
REMARK                            x       y       z     vdW  Elec       q    Type
REMARK                         _______ _______ _______ _____ _____    ______ ____
ROOT
ATOM      1  N   UNL     1       2.296   8.332  17.614  0.00  0.00    +0.000 NA
ATOM      2  N   UNL     1       2.410   7.420  18.470  0.00  0.00    +0.000 NA
ENDROOT
BRANCH   2   3
ATOM      3  C   UNL     1       3.195   6.329  18.068  0.00  0.00    +0.000 A 
ATOM      4  C   UNL     1       4.472   6.330  17.550  0.00  0.00    +0.000 A 
ATOM      5  N   UNL     1       4.824   5.022  17.336  0.00  0.00    +0.000 N 
ATOM      6  C   UNL     1       3.782   4.178  17.658  0.00  0.00    +0.000 A 
ATOM      7  C   UNL     1       3.691   2.782  17.581  0.00  0.00    +0.000 A 
ATOM      8  C   UNL     1       2.482   2.188  17.955  0.00  0.00    +0.000 A 
ATOM      9  C   UNL     1       1.408   2.962  18.388  0.00  0.00    +0.000 A 
ATOM     10  C   UNL     1       1.519   4.357  18.474  0.00  0.00    +0.000 A 
ATOM     11  C   UNL     1       2.729   4.981  18.105  0.00  0.00    +0.000 A 
ATOM     12  H   UNL     1       5.717   4.729  16.968  0.00  0.00    +0.000 HD
BRANCH   4  13
ATOM     13  O   UNL     1       5.327   7.298  17.248  0.00  0.00    +0.000 OA
ATOM     14  H   UNL     1       5.747   7.040  16.403  0.00  0.00    +0.000 HD
ENDBRANCH   4  13
ENDBRANCH   2   3
BRANCH   1  16
ATOM     15  N   UNL     1       0.543   9.208  18.857  0.00  0.00    +0.000 N 
ATOM     16  C   UNL     1       1.693   9.479  18.132  0.00  0.00    +0.000 C 
ATOM     17  O   UNL     1       2.150  10.597  17.945  0.00  0.00    +0.000 OA
ATOM     18  H   UNL     1       0.192   8.295  18.601  0.00  0.00    +0.000 HD
BRANCH  15  26
ATOM     19  C   UNL     1      -1.731  10.041  17.095  0.00  0.00    +0.000 C 
ATOM     20  C   UNL     1      -1.461  10.594  18.469  0.00  0.00    +0.000 A 
ATOM     21  C   UNL     1      -2.262  11.666  18.903  0.00  0.00    +0.000 A 
ATOM     22  C   UNL     1      -2.033  12.289  20.127  0.00  0.00    +0.000 A 
ATOM     23  C   UNL     1      -1.002  11.846  20.944  0.00  0.00    +0.000 A 
ATOM     24  C   UNL     1      -0.174  10.788  20.541  0.00  0.00    +0.000 A 
ATOM     25  C   UNL     1       0.903  10.337  21.493  0.00  0.00    +0.000 C 
ATOM     26  C   UNL     1      -0.404  10.153  19.296  0.00  0.00    +0.000 A 
ENDBRANCH  15  26
ENDBRANCH   1  16
TORSDOF 4
ENDMDL
MODEL 8
REMARK VINA RESULT:      -7.4      4.835      8.033
REMARK  Name = 
REMARK  6 active torsions:
REMARK  status: ('A' for Active; 'I' for Inactive)
REMARK    1  A    between atoms: C_1  and  C_2
REMARK    2  A    between atoms: C_6  and  C_7
REMARK    3  A    between atoms: C_8  and  N_9
REMARK    4  A    between atoms: C_10  and  N_12
REMARK    5  A    between atoms: N_13  and  C_14
REMARK    6  A    between atoms: C_15  and  O_16
REMARK                            x       y       z     vdW  Elec       q    Type
REMARK                         _______ _______ _______ _____ _____    ______ ____
ROOT
ATOM      1  N   UNL     1       5.417   5.563  17.381  0.00  0.00    +0.000 NA
ATOM      2  N   UNL     1       5.226   4.822  16.386  0.00  0.00    +0.000 NA
ENDROOT
BRANCH   2   3
ATOM      3  C   UNL     1       6.169   4.963  15.357  0.00  0.00    +0.000 A 
ATOM      4  C   UNL     1       7.329   5.706  15.345  0.00  0.00    +0.000 A 
ATOM      5  N   UNL     1       7.927   5.507  14.128  0.00  0.00    +0.000 N 
ATOM      6  C   UNL     1       7.152   4.690  13.333  0.00  0.00    +0.000 A 
ATOM      7  C   UNL     1       7.361   4.240  12.022  0.00  0.00    +0.000 A 
ATOM      8  C   UNL     1       6.376   3.431  11.448  0.00  0.00    +0.000 A 
ATOM      9  C   UNL     1       5.229   3.086  12.159  0.00  0.00    +0.000 A 
ATOM     10  C   UNL     1       5.041   3.531  13.474  0.00  0.00    +0.000 A 
ATOM     11  C   UNL     1       6.020   4.347  14.078  0.00  0.00    +0.000 A 
ATOM     12  H   UNL     1       8.803   5.926  13.853  0.00  0.00    +0.000 HD
BRANCH   4  13
ATOM     13  O   UNL     1       7.900   6.509  16.234  0.00  0.00    +0.000 OA
ATOM     14  H   UNL     1       8.641   6.948  15.771  0.00  0.00    +0.000 HD
ENDBRANCH   4  13
ENDBRANCH   2   3
BRANCH   1  16
ATOM     15  N   UNL     1       4.031   3.973  18.350  0.00  0.00    +0.000 N 
ATOM     16  C   UNL     1       4.590   5.237  18.458  0.00  0.00    +0.000 C 
ATOM     17  O   UNL     1       4.392   6.007  19.385  0.00  0.00    +0.000 OA
ATOM     18  H   UNL     1       4.065   3.672  17.385  0.00  0.00    +0.000 HD
BRANCH  15  26
ATOM     19  C   UNL     1       1.176   4.673  17.777  0.00  0.00    +0.000 C 
ATOM     20  C   UNL     1       1.636   3.805  18.917  0.00  0.00    +0.000 A 
ATOM     21  C   UNL     1       0.665   3.397  19.850  0.00  0.00    +0.000 A 
ATOM     22  C   UNL     1       1.012   2.656  20.977  0.00  0.00    +0.000 A 
ATOM     23  C   UNL     1       2.339   2.304  21.188  0.00  0.00    +0.000 A 
ATOM     24  C   UNL     1       3.337   2.703  20.286  0.00  0.00    +0.000 A 
ATOM     25  C   UNL     1       4.750   2.255  20.560  0.00  0.00    +0.000 C 
ATOM     26  C   UNL     1       2.986   3.456  19.141  0.00  0.00    +0.000 A 
ENDBRANCH  15  26
ENDBRANCH   1  16
TORSDOF 4
ENDMDL
MODEL 9
REMARK VINA RESULT:      -7.4      1.817      7.451
REMARK  Name = 
REMARK  6 active torsions:
REMARK  status: ('A' for Active; 'I' for Inactive)
REMARK    1  A    between atoms: C_1  and  C_2
REMARK    2  A    between atoms: C_6  and  C_7
REMARK    3  A    between atoms: C_8  and  N_9
REMARK    4  A    between atoms: C_10  and  N_12
REMARK    5  A    between atoms: N_13  and  C_14
REMARK    6  A    between atoms: C_15  and  O_16
REMARK                            x       y       z     vdW  Elec       q    Type
REMARK                         _______ _______ _______ _____ _____    ______ ____
ROOT
ATOM      1  N   UNL     1       2.335   8.271  17.964  0.00  0.00    +0.000 NA
ATOM      2  N   UNL     1       2.175   7.480  18.926  0.00  0.00    +0.000 NA
ENDROOT
BRANCH   2   3
ATOM      3  C   UNL     1       2.968   6.324  18.877  0.00  0.00    +0.000 A 
ATOM      4  C   UNL     1       4.056   6.058  18.075  0.00  0.00    +0.000 A 
ATOM      5  N   UNL     1       4.513   4.810  18.410  0.00  0.00    +0.000 N 
ATOM      6  C   UNL     1       3.711   4.242  19.377  0.00  0.00    +0.000 A 
ATOM      7  C   UNL     1       3.791   2.987  19.997  0.00  0.00    +0.000 A 
ATOM      8  C   UNL     1       2.809   2.665  20.938  0.00  0.00    +0.000 A 
ATOM      9  C   UNL     1       1.789   3.562  21.246  0.00  0.00    +0.000 A 
ATOM     10  C   UNL     1       1.731   4.819  20.629  0.00  0.00    +0.000 A 
ATOM     11  C   UNL     1       2.711   5.171  19.677  0.00  0.00    +0.000 A 
ATOM     12  H   UNL     1       5.312   4.366  17.982  0.00  0.00    +0.000 HD
BRANCH   4  13
ATOM     13  O   UNL     1       4.668   6.747  17.120  0.00  0.00    +0.000 OA
ATOM     14  H   UNL     1       4.253   6.476  16.277  0.00  0.00    +0.000 HD
ENDBRANCH   4  13
ENDBRANCH   2   3
BRANCH   1  16
ATOM     15  N   UNL     1       0.597   9.399  19.010  0.00  0.00    +0.000 N 
ATOM     16  C   UNL     1       1.691   9.494  18.164  0.00  0.00    +0.000 C 
ATOM     17  O   UNL     1       2.071  10.526  17.632  0.00  0.00    +0.000 OA
ATOM     18  H   UNL     1       0.288   8.438  19.054  0.00  0.00    +0.000 HD
BRANCH  15  26
ATOM     19  C   UNL     1      -1.651   9.771  17.067  0.00  0.00    +0.000 C 
ATOM     20  C   UNL     1      -1.427  10.614  18.293  0.00  0.00    +0.000 A 
ATOM     21  C   UNL     1      -2.262  11.733  18.470  0.00  0.00    +0.000 A 
ATOM     22  C   UNL     1      -2.078  12.612  19.534  0.00  0.00    +0.000 A 
ATOM     23  C   UNL     1      -1.057  12.383  20.447  0.00  0.00    +0.000 A 
ATOM     24  C   UNL     1      -0.196  11.286  20.298  0.00  0.00    +0.000 A 
ATOM     25  C   UNL     1       0.868  11.080  21.346  0.00  0.00    +0.000 C 
ATOM     26  C   UNL     1      -0.381  10.392  19.216  0.00  0.00    +0.000 A 
ENDBRANCH  15  26
ENDBRANCH   1  16
TORSDOF 4
ENDMDL
