MODEL 1
REMARK VINA RESULT:      -8.4      0.000      0.000
REMARK  Name = 
REMARK  5 active torsions:
REMARK  status: ('A' for Active; 'I' for Inactive)
REMARK    1  A    between atoms: C_1  and  C_2
REMARK    2  A    between atoms: C_7  and  C_8
REMARK    3  A    between atoms: C_9  and  C_10
REMARK    4  A    between atoms: N_12  and  N_13
REMARK    5  A    between atoms: C_14  and  C_15
REMARK                            x       y       z     vdW  Elec       q    Type
REMARK                         _______ _______ _______ _____ _____    ______ ____
ROOT
ATOM      1  C   UNL     1       0.945   2.934  20.652  0.00  0.00    +0.000 C 
ATOM      2  C   UNL     1       2.001   3.177  19.619  0.00  0.00    +0.000 A 
ATOM      3  C   UNL     1       1.936   2.565  18.366  0.00  0.00    +0.000 A 
ATOM      4  C   UNL     1       2.923   2.813  17.410  0.00  0.00    +0.000 A 
ATOM      5  C   UNL     1       3.996   3.649  17.673  0.00  0.00    +0.000 A 
ATOM      6  N   UNL     1       4.933   3.828  16.732  0.00  0.00    +0.000 NA
ATOM      7  C   UNL     1       6.028   4.594  17.008  0.00  0.00    +0.000 A 
ATOM      8  C   UNL     1       6.997   4.675  15.865  0.00  0.00    +0.000 C 
ATOM      9  C   UNL     1       6.200   5.237  18.240  0.00  0.00    +0.000 A 
ATOM     10  C   UNL     1       5.198   5.059  19.204  0.00  0.00    +0.000 A 
ATOM     11  C   UNL     1       4.078   4.259  18.934  0.00  0.00    +0.000 A 
ATOM     12  C   UNL     1       3.074   4.036  19.893  0.00  0.00    +0.000 A 
ENDROOT
BRANCH   9  13
ATOM     13  C   UNL     1       7.429   6.018  18.583  0.00  0.00    +0.000 C 
ATOM     14  O   UNL     1       8.296   5.510  19.286  0.00  0.00    +0.000 OA
ATOM     15  N   UNL     1       7.485   7.319  18.078  0.00  0.00    +0.000 N 
ATOM     16  H   UNL     1       6.772   7.674  17.452  0.00  0.00    +0.000 HD
BRANCH  15  17
ATOM     17  N   UNL     1       8.535   8.135  18.409  0.00  0.00    +0.000 NA
ATOM     18  C   UNL     1       8.333   9.412  18.291  0.00  0.00    +0.000 C 
BRANCH  18  19
ATOM     19  C   UNL     1       9.358  10.358  18.632  0.00  0.00    +0.000 A 
ATOM     20  C   UNL     1       9.813  10.836  19.845  0.00  0.00    +0.000 A 
ATOM     21  C   UNL     1      10.824  11.782  19.561  0.00  0.00    +0.000 A 
ATOM     22  C   UNL     1      10.933  11.823  18.189  0.00  0.00    +0.000 A 
ATOM     23  O   UNL     1      10.053  10.958  17.616  0.00  0.00    +0.000 OA
ENDBRANCH  18  19
ENDBRANCH  15  17
ENDBRANCH   9  13
TORSDOF 3
ENDMDL
MODEL 2
REMARK VINA RESULT:      -7.7      4.118      6.864
REMARK  Name = 
REMARK  5 active torsions:
REMARK  status: ('A' for Active; 'I' for Inactive)
REMARK    1  A    between atoms: C_1  and  C_2
REMARK    2  A    between atoms: C_7  and  C_8
REMARK    3  A    between atoms: C_9  and  C_10
REMARK    4  A    between atoms: N_12  and  N_13
REMARK    5  A    between atoms: C_14  and  C_15
REMARK                            x       y       z     vdW  Elec       q    Type
REMARK                         _______ _______ _______ _____ _____    ______ ____
ROOT
ATOM      1  C   UNL     1       5.300   2.545  11.450  0.00  0.00    +0.000 C 
ATOM      2  C   UNL     1       5.856   3.422  12.528  0.00  0.00    +0.000 A 
ATOM      3  C   UNL     1       7.166   3.901  12.462  0.00  0.00    +0.000 A 
ATOM      4  C   UNL     1       7.663   4.730  13.470  0.00  0.00    +0.000 A 
ATOM      5  C   UNL     1       6.893   5.085  14.565  0.00  0.00    +0.000 A 
ATOM      6  N   UNL     1       7.428   5.856  15.521  0.00  0.00    +0.000 NA
ATOM      7  C   UNL     1       6.700   6.153  16.636  0.00  0.00    +0.000 A 
ATOM      8  C   UNL     1       7.447   7.001  17.624  0.00  0.00    +0.000 C 
ATOM      9  C   UNL     1       5.384   5.706  16.811  0.00  0.00    +0.000 A 
ATOM     10  C   UNL     1       4.830   4.921  15.789  0.00  0.00    +0.000 A 
ATOM     11  C   UNL     1       5.579   4.597  14.648  0.00  0.00    +0.000 A 
ATOM     12  C   UNL     1       5.062   3.786  13.624  0.00  0.00    +0.000 A 
ENDROOT
BRANCH   9  13
ATOM     13  C   UNL     1       4.600   5.961  18.058  0.00  0.00    +0.000 C 
ATOM     14  O   UNL     1       4.801   5.274  19.053  0.00  0.00    +0.000 OA
ATOM     15  N   UNL     1       3.649   6.981  17.983  0.00  0.00    +0.000 N 
ATOM     16  H   UNL     1       3.561   7.562  17.158  0.00  0.00    +0.000 HD
BRANCH  15  17
ATOM     17  N   UNL     1       2.829   7.230  19.052  0.00  0.00    +0.000 NA
ATOM     18  C   UNL     1       2.124   8.319  18.998  0.00  0.00    +0.000 C 
BRANCH  18  19
ATOM     19  C   UNL     1       1.214   8.665  20.054  0.00  0.00    +0.000 A 
ATOM     20  C   UNL     1       0.839   8.008  21.208  0.00  0.00    +0.000 A 
ATOM     21  C   UNL     1      -0.121   8.822  21.851  0.00  0.00    +0.000 A 
ATOM     22  C   UNL     1      -0.272   9.935  21.055  0.00  0.00    +0.000 A 
ATOM     23  O   UNL     1       0.539   9.854  19.966  0.00  0.00    +0.000 OA
ENDBRANCH  18  19
ENDBRANCH  15  17
ENDBRANCH   9  13
TORSDOF 3
ENDMDL
MODEL 3
REMARK VINA RESULT:      -7.4      1.255      1.281
REMARK  Name = 
REMARK  5 active torsions:
REMARK  status: ('A' for Active; 'I' for Inactive)
REMARK    1  A    between atoms: C_1  and  C_2
REMARK    2  A    between atoms: C_7  and  C_8
REMARK    3  A    between atoms: C_9  and  C_10
REMARK    4  A    between atoms: N_12  and  N_13
REMARK    5  A    between atoms: C_14  and  C_15
REMARK                            x       y       z     vdW  Elec       q    Type
REMARK                         _______ _______ _______ _____ _____    ______ ____
ROOT
ATOM      1  C   UNL     1       0.879   4.284  20.448  0.00  0.00    +0.000 C 
ATOM      2  C   UNL     1       1.858   4.187  19.319  0.00  0.00    +0.000 A 
ATOM      3  C   UNL     1       1.761   3.167  18.370  0.00  0.00    +0.000 A 
ATOM      4  C   UNL     1       2.675   3.099  17.315  0.00  0.00    +0.000 A 
ATOM      5  C   UNL     1       3.705   4.016  17.186  0.00  0.00    +0.000 A 
ATOM      6  N   UNL     1       4.574   3.887  16.175  0.00  0.00    +0.000 NA
ATOM      7  C   UNL     1       5.632   4.743  16.081  0.00  0.00    +0.000 A 
ATOM      8  C   UNL     1       6.528   4.452  14.912  0.00  0.00    +0.000 C 
ATOM      9  C   UNL     1       5.833   5.788  16.992  0.00  0.00    +0.000 A 
ATOM     10  C   UNL     1       4.900   5.923  18.030  0.00  0.00    +0.000 A 
ATOM     11  C   UNL     1       3.819   5.036  18.144  0.00  0.00    +0.000 A 
ATOM     12  C   UNL     1       2.888   5.128  19.192  0.00  0.00    +0.000 A 
ENDROOT
BRANCH   9  13
ATOM     13  C   UNL     1       7.027   6.687  16.945  0.00  0.00    +0.000 C 
ATOM     14  O   UNL     1       7.889   6.508  16.092  0.00  0.00    +0.000 OA
ATOM     15  N   UNL     1       7.081   7.680  17.925  0.00  0.00    +0.000 N 
ATOM     16  H   UNL     1       6.315   7.827  18.571  0.00  0.00    +0.000 HD
BRANCH  15  17
ATOM     17  N   UNL     1       8.178   8.498  18.008  0.00  0.00    +0.000 NA
ATOM     18  C   UNL     1       7.944   9.774  18.055  0.00  0.00    +0.000 C 
BRANCH  18  19
ATOM     19  C   UNL     1       9.019  10.720  18.165  0.00  0.00    +0.000 A 
ATOM     20  C   UNL     1      10.220  10.685  18.846  0.00  0.00    +0.000 A 
ATOM     21  C   UNL     1      10.861  11.922  18.612  0.00  0.00    +0.000 A 
ATOM     22  C   UNL     1      10.018  12.641  17.795  0.00  0.00    +0.000 A 
ATOM     23  O   UNL     1       8.901  11.918  17.512  0.00  0.00    +0.000 OA
ENDBRANCH  18  19
ENDBRANCH  15  17
ENDBRANCH   9  13
TORSDOF 3
ENDMDL
MODEL 4
REMARK VINA RESULT:      -7.2      1.661      2.209
REMARK  Name = 
REMARK  5 active torsions:
REMARK  status: ('A' for Active; 'I' for Inactive)
REMARK    1  A    between atoms: C_1  and  C_2
REMARK    2  A    between atoms: C_7  and  C_8
REMARK    3  A    between atoms: C_9  and  C_10
REMARK    4  A    between atoms: N_12  and  N_13
REMARK    5  A    between atoms: C_14  and  C_15
REMARK                            x       y       z     vdW  Elec       q    Type
REMARK                         _______ _______ _______ _____ _____    ______ ____
ROOT
ATOM      1  C   UNL     1       0.906   3.839  17.703  0.00  0.00    +0.000 C 
ATOM      2  C   UNL     1       2.301   4.046  18.207  0.00  0.00    +0.000 A 
ATOM      3  C   UNL     1       2.784   3.325  19.301  0.00  0.00    +0.000 A 
ATOM      4  C   UNL     1       4.092   3.521  19.749  0.00  0.00    +0.000 A 
ATOM      5  C   UNL     1       4.939   4.437  19.145  0.00  0.00    +0.000 A 
ATOM      6  N   UNL     1       6.174   4.609  19.634  0.00  0.00    +0.000 NA
ATOM      7  C   UNL     1       6.989   5.558  19.088  0.00  0.00    +0.000 A 
ATOM      8  C   UNL     1       8.327   5.648  19.763  0.00  0.00    +0.000 C 
ATOM      9  C   UNL     1       6.594   6.348  18.001  0.00  0.00    +0.000 A 
ATOM     10  C   UNL     1       5.307   6.137  17.486  0.00  0.00    +0.000 A 
ATOM     11  C   UNL     1       4.457   5.175  18.052  0.00  0.00    +0.000 A 
ATOM     12  C   UNL     1       3.151   4.965  17.578  0.00  0.00    +0.000 A 
ENDROOT
BRANCH   9  13
ATOM     13  C   UNL     1       7.447   7.441  17.441  0.00  0.00    +0.000 C 
ATOM     14  O   UNL     1       8.177   7.212  16.484  0.00  0.00    +0.000 OA
ATOM     15  N   UNL     1       7.363   8.675  18.091  0.00  0.00    +0.000 N 
ATOM     16  H   UNL     1       6.700   8.832  18.841  0.00  0.00    +0.000 HD
BRANCH  15  17
ATOM     17  N   UNL     1       8.169   9.710  17.698  0.00  0.00    +0.000 NA
ATOM     18  C   UNL     1       9.009  10.156  18.582  0.00  0.00    +0.000 C 
BRANCH  18  19
ATOM     19  C   UNL     1       9.917  11.223  18.269  0.00  0.00    +0.000 A 
ATOM     20  C   UNL     1      11.228  11.462  18.631  0.00  0.00    +0.000 A 
ATOM     21  C   UNL     1      11.597  12.695  18.047  0.00  0.00    +0.000 A 
ATOM     22  C   UNL     1      10.492  13.136  17.355  0.00  0.00    +0.000 A 
ATOM     23  O   UNL     1       9.470  12.247  17.477  0.00  0.00    +0.000 OA
ENDBRANCH  18  19
ENDBRANCH  15  17
ENDBRANCH   9  13
TORSDOF 3
ENDMDL
MODEL 5
REMARK VINA RESULT:      -7.1      1.306      1.306
REMARK  Name = 
REMARK  5 active torsions:
REMARK  status: ('A' for Active; 'I' for Inactive)
REMARK    1  A    between atoms: C_1  and  C_2
REMARK    2  A    between atoms: C_7  and  C_8
REMARK    3  A    between atoms: C_9  and  C_10
REMARK    4  A    between atoms: N_12  and  N_13
REMARK    5  A    between atoms: C_14  and  C_15
REMARK                            x       y       z     vdW  Elec       q    Type
REMARK                         _______ _______ _______ _____ _____    ______ ____
ROOT
ATOM      1  C   UNL     1       0.683   3.116  20.450  0.00  0.00    +0.000 C 
ATOM      2  C   UNL     1       1.826   3.175  19.484  0.00  0.00    +0.000 A 
ATOM      3  C   UNL     1       2.274   2.027  18.829  0.00  0.00    +0.000 A 
ATOM      4  C   UNL     1       3.333   2.103  17.921  0.00  0.00    +0.000 A 
ATOM      5  C   UNL     1       3.979   3.299  17.656  0.00  0.00    +0.000 A 
ATOM      6  N   UNL     1       5.010   3.312  16.801  0.00  0.00    +0.000 NA
ATOM      7  C   UNL     1       5.696   4.473  16.588  0.00  0.00    +0.000 A 
ATOM      8  C   UNL     1       6.838   4.318  15.627  0.00  0.00    +0.000 C 
ATOM      9  C   UNL     1       5.341   5.676  17.211  0.00  0.00    +0.000 A 
ATOM     10  C   UNL     1       4.244   5.650  18.084  0.00  0.00    +0.000 A 
ATOM     11  C   UNL     1       3.545   4.457  18.321  0.00  0.00    +0.000 A 
ATOM     12  C   UNL     1       2.462   4.394  19.215  0.00  0.00    +0.000 A 
ENDROOT
BRANCH   9  13
ATOM     13  C   UNL     1       6.128   6.937  17.045  0.00  0.00    +0.000 C 
ATOM     14  O   UNL     1       5.795   7.753  16.192  0.00  0.00    +0.000 OA
ATOM     15  N   UNL     1       7.233   7.081  17.886  0.00  0.00    +0.000 N 
ATOM     16  H   UNL     1       7.434   6.408  18.616  0.00  0.00    +0.000 HD
BRANCH  15  17
ATOM     17  N   UNL     1       8.059   8.166  17.748  0.00  0.00    +0.000 NA
ATOM     18  C   UNL     1       8.315   8.837  18.830  0.00  0.00    +0.000 C 
BRANCH  18  19
ATOM     19  C   UNL     1       9.186   9.979  18.804  0.00  0.00    +0.000 A 
ATOM     20  C   UNL     1       9.786  10.711  19.810  0.00  0.00    +0.000 A 
ATOM     21  C   UNL     1      10.512  11.750  19.184  0.00  0.00    +0.000 A 
ATOM     22  C   UNL     1      10.319  11.589  17.831  0.00  0.00    +0.000 A 
ATOM     23  O   UNL     1       9.522  10.513  17.589  0.00  0.00    +0.000 OA
ENDBRANCH  18  19
ENDBRANCH  15  17
ENDBRANCH   9  13
TORSDOF 3
ENDMDL
MODEL 6
REMARK VINA RESULT:      -6.8      5.791      7.601
REMARK  Name = 
REMARK  5 active torsions:
REMARK  status: ('A' for Active; 'I' for Inactive)
REMARK    1  A    between atoms: C_1  and  C_2
REMARK    2  A    between atoms: C_7  and  C_8
REMARK    3  A    between atoms: C_9  and  C_10
REMARK    4  A    between atoms: N_12  and  N_13
REMARK    5  A    between atoms: C_14  and  C_15
REMARK                            x       y       z     vdW  Elec       q    Type
REMARK                         _______ _______ _______ _____ _____    ______ ____
ROOT
ATOM      1  C   UNL     1       6.897   4.962  14.339  0.00  0.00    +0.000 C 
ATOM      2  C   UNL     1       5.936   4.924  15.487  0.00  0.00    +0.000 A 
ATOM      3  C   UNL     1       5.673   3.732  16.165  0.00  0.00    +0.000 A 
ATOM      4  C   UNL     1       4.784   3.718  17.242  0.00  0.00    +0.000 A 
ATOM      5  C   UNL     1       4.127   4.865  17.658  0.00  0.00    +0.000 A 
ATOM      6  N   UNL     1       3.259   4.790  18.676  0.00  0.00    +0.000 NA
ATOM      7  C   UNL     1       2.556   5.900  19.046  0.00  0.00    +0.000 A 
ATOM      8  C   UNL     1       1.607   5.649  20.181  0.00  0.00    +0.000 C 
ATOM      9  C   UNL     1       2.730   7.139  18.417  0.00  0.00    +0.000 A 
ATOM     10  C   UNL     1       3.660   7.205  17.370  0.00  0.00    +0.000 A 
ATOM     11  C   UNL     1       4.374   6.065  16.973  0.00  0.00    +0.000 A 
ATOM     12  C   UNL     1       5.288   6.093  15.906  0.00  0.00    +0.000 A 
ENDROOT
BRANCH   9  13
ATOM     13  C   UNL     1       1.914   8.345  18.762  0.00  0.00    +0.000 C 
ATOM     14  O   UNL     1       1.428   9.026  17.866  0.00  0.00    +0.000 OA
ATOM     15  N   UNL     1       1.786   8.624  20.124  0.00  0.00    +0.000 N 
ATOM     16  H   UNL     1       2.155   7.999  20.830  0.00  0.00    +0.000 HD
BRANCH  15  17
ATOM     17  N   UNL     1       1.124   9.754  20.530  0.00  0.00    +0.000 NA
ATOM     18  C   UNL     1       0.296   9.615  21.519  0.00  0.00    +0.000 C 
BRANCH  18  19
ATOM     19  C   UNL     1      -0.433  10.737  22.039  0.00  0.00    +0.000 A 
ATOM     20  C   UNL     1      -0.417  12.081  21.722  0.00  0.00    +0.000 A 
ATOM     21  C   UNL     1      -1.328  12.720  22.594  0.00  0.00    +0.000 A 
ATOM     22  C   UNL     1      -1.855  11.727  23.389  0.00  0.00    +0.000 A 
ATOM     23  O   UNL     1      -1.324  10.520  23.056  0.00  0.00    +0.000 OA
ENDBRANCH  18  19
ENDBRANCH  15  17
ENDBRANCH   9  13
TORSDOF 3
ENDMDL
MODEL 7
REMARK VINA RESULT:      -6.8      7.636      9.080
REMARK  Name = 
REMARK  5 active torsions:
REMARK  status: ('A' for Active; 'I' for Inactive)
REMARK    1  A    between atoms: C_1  and  C_2
REMARK    2  A    between atoms: C_7  and  C_8
REMARK    3  A    between atoms: C_9  and  C_10
REMARK    4  A    between atoms: N_12  and  N_13
REMARK    5  A    between atoms: C_14  and  C_15
REMARK                            x       y       z     vdW  Elec       q    Type
REMARK                         _______ _______ _______ _____ _____    ______ ____
ROOT
ATOM      1  C   UNL     1       4.922   3.801  19.110  0.00  0.00    +0.000 C 
ATOM      2  C   UNL     1       4.181   5.082  18.884  0.00  0.00    +0.000 A 
ATOM      3  C   UNL     1       4.396   5.843  17.733  0.00  0.00    +0.000 A 
ATOM      4  C   UNL     1       3.687   7.030  17.532  0.00  0.00    +0.000 A 
ATOM      5  C   UNL     1       2.772   7.496  18.462  0.00  0.00    +0.000 A 
ATOM      6  N   UNL     1       2.141   8.656  18.236  0.00  0.00    +0.000 NA
ATOM      7  C   UNL     1       1.291   9.157  19.178  0.00  0.00    +0.000 A 
ATOM      8  C   UNL     1       0.686  10.475  18.790  0.00  0.00    +0.000 C 
ATOM      9  C   UNL     1       1.020   8.482  20.376  0.00  0.00    +0.000 A 
ATOM     10  C   UNL     1       1.669   7.257  20.585  0.00  0.00    +0.000 A 
ATOM     11  C   UNL     1       2.558   6.744  19.628  0.00  0.00    +0.000 A 
ATOM     12  C   UNL     1       3.248   5.536  19.825  0.00  0.00    +0.000 A 
ENDROOT
BRANCH   9  13
ATOM     13  C   UNL     1       0.149   9.053  21.449  0.00  0.00    +0.000 C 
ATOM     14  O   UNL     1      -0.780   8.389  21.895  0.00  0.00    +0.000 OA
ATOM     15  N   UNL     1       0.455  10.354  21.855  0.00  0.00    +0.000 N 
ATOM     16  H   UNL     1       1.269  10.841  21.500  0.00  0.00    +0.000 HD
BRANCH  15  17
ATOM     17  N   UNL     1      -0.339  10.987  22.775  0.00  0.00    +0.000 NA
ATOM     18  C   UNL     1      -1.329  11.681  22.302  0.00  0.00    +0.000 C 
BRANCH  18  19
ATOM     19  C   UNL     1      -2.238  12.366  23.177  0.00  0.00    +0.000 A 
ATOM     20  C   UNL     1      -2.230  13.640  23.711  0.00  0.00    +0.000 A 
ATOM     21  C   UNL     1      -3.373  13.747  24.535  0.00  0.00    +0.000 A 
ATOM     22  C   UNL     1      -4.019  12.534  24.451  0.00  0.00    +0.000 A 
ATOM     23  O   UNL     1      -3.343  11.692  23.624  0.00  0.00    +0.000 OA
ENDBRANCH  18  19
ENDBRANCH  15  17
ENDBRANCH   9  13
TORSDOF 3
ENDMDL
MODEL 8
REMARK VINA RESULT:      -6.8      5.518      7.462
REMARK  Name = 
REMARK  5 active torsions:
REMARK  status: ('A' for Active; 'I' for Inactive)
REMARK    1  A    between atoms: C_1  and  C_2
REMARK    2  A    between atoms: C_7  and  C_8
REMARK    3  A    between atoms: C_9  and  C_10
REMARK    4  A    between atoms: N_12  and  N_13
REMARK    5  A    between atoms: C_14  and  C_15
REMARK                            x       y       z     vdW  Elec       q    Type
REMARK                         _______ _______ _______ _____ _____    ______ ____
ROOT
ATOM      1  C   UNL     1       6.867   5.163  14.441  0.00  0.00    +0.000 C 
ATOM      2  C   UNL     1       5.879   4.926  15.541  0.00  0.00    +0.000 A 
ATOM      3  C   UNL     1       5.511   3.630  15.909  0.00  0.00    +0.000 A 
ATOM      4  C   UNL     1       4.597   3.426  16.946  0.00  0.00    +0.000 A 
ATOM      5  C   UNL     1       4.019   4.487  17.624  0.00  0.00    +0.000 A 
ATOM      6  N   UNL     1       3.124   4.238  18.589  0.00  0.00    +0.000 NA
ATOM      7  C   UNL     1       2.499   5.278  19.214  0.00  0.00    +0.000 A 
ATOM      8  C   UNL     1       1.506   4.835  20.250  0.00  0.00    +0.000 C 
ATOM      9  C   UNL     1       2.780   6.614  18.906  0.00  0.00    +0.000 A 
ATOM     10  C   UNL     1       3.738   6.857  17.911  0.00  0.00    +0.000 A 
ATOM     11  C   UNL     1       4.373   5.794  17.252  0.00  0.00    +0.000 A 
ATOM     12  C   UNL     1       5.312   6.007  16.228  0.00  0.00    +0.000 A 
ENDROOT
BRANCH   9  13
ATOM     13  C   UNL     1       2.050   7.761  19.529  0.00  0.00    +0.000 C 
ATOM     14  O   UNL     1       1.675   8.695  18.829  0.00  0.00    +0.000 OA
ATOM     15  N   UNL     1       1.867   7.689  20.912  0.00  0.00    +0.000 N 
ATOM     16  H   UNL     1       2.141   6.869  21.439  0.00  0.00    +0.000 HD
BRANCH  15  17
ATOM     17  N   UNL     1       1.281   8.733  21.578  0.00  0.00    +0.000 NA
ATOM     18  C   UNL     1       0.205   9.226  21.045  0.00  0.00    +0.000 C 
BRANCH  18  19
ATOM     19  C   UNL     1      -0.503  10.307  21.672  0.00  0.00    +0.000 A 
ATOM     20  C   UNL     1      -0.653  10.675  22.994  0.00  0.00    +0.000 A 
ATOM     21  C   UNL     1      -1.493  11.812  23.011  0.00  0.00    +0.000 A 
ATOM     22  C   UNL     1      -1.802  12.078  21.696  0.00  0.00    +0.000 A 
ATOM     23  O   UNL     1      -1.202  11.176  20.875  0.00  0.00    +0.000 OA
ENDBRANCH  18  19
ENDBRANCH  15  17
ENDBRANCH   9  13
TORSDOF 3
ENDMDL
MODEL 9
REMARK VINA RESULT:      -6.8      7.387      9.400
REMARK  Name = 
REMARK  5 active torsions:
REMARK  status: ('A' for Active; 'I' for Inactive)
REMARK    1  A    between atoms: C_1  and  C_2
REMARK    2  A    between atoms: C_7  and  C_8
REMARK    3  A    between atoms: C_9  and  C_10
REMARK    4  A    between atoms: N_12  and  N_13
REMARK    5  A    between atoms: C_14  and  C_15
REMARK                            x       y       z     vdW  Elec       q    Type
REMARK                         _______ _______ _______ _____ _____    ______ ____
ROOT
ATOM      1  C   UNL     1       5.750   5.391  15.661  0.00  0.00    +0.000 C 
ATOM      2  C   UNL     1       4.899   5.815  16.817  0.00  0.00    +0.000 A 
ATOM      3  C   UNL     1       4.892   5.088  18.010  0.00  0.00    +0.000 A 
ATOM      4  C   UNL     1       4.101   5.505  19.083  0.00  0.00    +0.000 A 
ATOM      5  C   UNL     1       3.294   6.627  18.998  0.00  0.00    +0.000 A 
ATOM      6  N   UNL     1       2.531   6.966  20.046  0.00  0.00    +0.000 NA
ATOM      7  C   UNL     1       1.681   8.029  19.946  0.00  0.00    +0.000 A 
ATOM      8  C   UNL     1       0.876   8.263  21.191  0.00  0.00    +0.000 C 
ATOM      9  C   UNL     1       1.596   8.813  18.788  0.00  0.00    +0.000 A 
ATOM     10  C   UNL     1       2.420   8.459  17.710  0.00  0.00    +0.000 A 
ATOM     11  C   UNL     1       3.284   7.357  17.799  0.00  0.00    +0.000 A 
ATOM     12  C   UNL     1       4.097   6.960  16.724  0.00  0.00    +0.000 A 
ENDROOT
BRANCH   9  13
ATOM     13  C   UNL     1       0.618   9.934  18.638  0.00  0.00    +0.000 C 
ATOM     14  O   UNL     1       0.877  11.034  19.112  0.00  0.00    +0.000 OA
ATOM     15  N   UNL     1      -0.568   9.623  17.968  0.00  0.00    +0.000 N 
ATOM     16  H   UNL     1      -0.711   8.715  17.541  0.00  0.00    +0.000 HD
BRANCH  15  17
ATOM     17  N   UNL     1      -1.556  10.566  17.855  0.00  0.00    +0.000 NA
ATOM     18  C   UNL     1      -2.774  10.121  17.797  0.00  0.00    +0.000 C 
BRANCH  18  19
ATOM     19  C   UNL     1      -3.888  11.022  17.701  0.00  0.00    +0.000 A 
ATOM     20  C   UNL     1      -4.628  11.472  16.625  0.00  0.00    +0.000 A 
ATOM     21  C   UNL     1      -5.585  12.378  17.135  0.00  0.00    +0.000 A 
ATOM     22  C   UNL     1      -5.379  12.426  18.496  0.00  0.00    +0.000 A 
ATOM     23  O   UNL     1      -4.357  11.602  18.850  0.00  0.00    +0.000 OA
ENDBRANCH  18  19
ENDBRANCH  15  17
ENDBRANCH   9  13
TORSDOF 3
ENDMDL
