MODEL 1
REMARK VINA RESULT:      -8.1      0.000      0.000
REMARK  Name = 
REMARK  5 active torsions:
REMARK  status: ('A' for Active; 'I' for Inactive)
REMARK    1  A    between atoms: N_1  and  S_2
REMARK    2  A    between atoms: S_2  and  C_5
REMARK    3  A    between atoms: C_8  and  O_9
REMARK    4  A    between atoms: C_10  and  N_11
REMARK    5  A    between atoms: N_14  and  C_15
REMARK                            x       y       z     vdW  Elec       q    Type
REMARK                         _______ _______ _______ _____ _____    ______ ____
ROOT
ATOM      1  C   UNL     1       5.748   5.032  18.283  0.00  0.00    +0.000 A 
ATOM      2  C   UNL     1       5.285   4.231  17.250  0.00  0.00    +0.000 A 
ATOM      3  C   UNL     1       3.913   4.046  17.101  0.00  0.00    +0.000 A 
ATOM      4  C   UNL     1       3.035   4.646  18.009  0.00  0.00    +0.000 A 
ATOM      5  C   UNL     1       3.502   5.365  19.124  0.00  0.00    +0.000 A 
ATOM      6  C   UNL     1       4.876   5.589  19.234  0.00  0.00    +0.000 A 
ENDROOT
BRANCH   5   7
ATOM      7  N   UNL     1       2.657   5.899  20.135  0.00  0.00    +0.000 N 
ATOM      8  C   UNL     1       2.041   7.140  20.041  0.00  0.00    +0.000 C 
ATOM      9  O   UNL     1       2.003   7.821  19.023  0.00  0.00    +0.000 OA
ATOM     10  N   UNL     1       1.462   7.510  21.259  0.00  0.00    +0.000 N 
ATOM     11  H   UNL     1       2.169   5.240  20.721  0.00  0.00    +0.000 HD
ATOM     12  H   UNL     1       1.945   7.141  22.066  0.00  0.00    +0.000 HD
BRANCH  10  13
ATOM     13  C   UNL     1       0.895   8.801  21.401  0.00  0.00    +0.000 A 
ATOM     14  C   UNL     1       0.393   9.240  22.634  0.00  0.00    +0.000 A 
ATOM     15  C   UNL     1      -0.354  10.413  22.715  0.00  0.00    +0.000 A 
ATOM     16  C   UNL     1      -0.583  11.152  21.561  0.00  0.00    +0.000 A 
ATOM     17  F   UNL     1      -1.368  12.236  21.618  0.00  0.00    +0.000 F 
ATOM     18  C   UNL     1      -0.023  10.771  20.346  0.00  0.00    +0.000 A 
ATOM     19  C   UNL     1       0.746   9.605  20.268  0.00  0.00    +0.000 A 
ENDBRANCH  10  13
ENDBRANCH   5   7
BRANCH   1  20
ATOM     20  S   UNL     1       7.471   5.435  18.350  0.00  0.00    +0.000 S 
ATOM     21  O   UNL     1       7.896   5.430  19.729  0.00  0.00    +0.000 OA
ATOM     22  O   UNL     1       7.737   6.529  17.454  0.00  0.00    +0.000 OA
BRANCH  20  23
ATOM     23  N   UNL     1       8.159   4.085  17.625  0.00  0.00    +0.000 NA
ATOM     24  H   UNL     1       9.166   4.072  17.789  0.00  0.00    +0.000 HD
ATOM     25  H   UNL     1       7.895   4.030  16.642  0.00  0.00    +0.000 HD
ENDBRANCH  20  23
ENDBRANCH   1  20
BRANCH   4  26
ATOM     26  O   UNL     1       1.707   4.615  17.689  0.00  0.00    +0.000 OA
ATOM     27  H   UNL     1       1.407   5.540  17.643  0.00  0.00    +0.000 HD
ENDBRANCH   4  26
TORSDOF 5
ENDMDL
MODEL 2
REMARK VINA RESULT:      -8.1      2.172      2.503
REMARK  Name = 
REMARK  5 active torsions:
REMARK  status: ('A' for Active; 'I' for Inactive)
REMARK    1  A    between atoms: N_1  and  S_2
REMARK    2  A    between atoms: S_2  and  C_5
REMARK    3  A    between atoms: C_8  and  O_9
REMARK    4  A    between atoms: C_10  and  N_11
REMARK    5  A    between atoms: N_14  and  C_15
REMARK                            x       y       z     vdW  Elec       q    Type
REMARK                         _______ _______ _______ _____ _____    ______ ____
ROOT
ATOM      1  C   UNL     1       5.731   5.500  18.515  0.00  0.00    +0.000 A 
ATOM      2  C   UNL     1       5.086   4.307  18.807  0.00  0.00    +0.000 A 
ATOM      3  C   UNL     1       3.716   4.207  18.585  0.00  0.00    +0.000 A 
ATOM      4  C   UNL     1       3.015   5.316  18.101  0.00  0.00    +0.000 A 
ATOM      5  C   UNL     1       3.641   6.561  17.911  0.00  0.00    +0.000 A 
ATOM      6  C   UNL     1       5.024   6.635  18.086  0.00  0.00    +0.000 A 
ENDROOT
BRANCH   5   7
ATOM      7  N   UNL     1       2.954   7.745  17.529  0.00  0.00    +0.000 N 
ATOM      8  C   UNL     1       2.053   8.408  18.352  0.00  0.00    +0.000 C 
ATOM      9  O   UNL     1       1.887   8.161  19.541  0.00  0.00    +0.000 OA
ATOM     10  N   UNL     1       1.359   9.398  17.649  0.00  0.00    +0.000 N 
ATOM     11  H   UNL     1       3.405   8.339  16.850  0.00  0.00    +0.000 HD
ATOM     12  H   UNL     1       1.231   9.186  16.670  0.00  0.00    +0.000 HD
BRANCH  10  13
ATOM     13  C   UNL     1       0.304  10.099  18.284  0.00  0.00    +0.000 A 
ATOM     14  C   UNL     1      -1.028   9.919  17.887  0.00  0.00    +0.000 A 
ATOM     15  C   UNL     1      -2.027  10.766  18.361  0.00  0.00    +0.000 A 
ATOM     16  C   UNL     1      -1.690  11.783  19.246  0.00  0.00    +0.000 A 
ATOM     17  F   UNL     1      -2.631  12.651  19.641  0.00  0.00    +0.000 F 
ATOM     18  C   UNL     1      -0.386  11.923  19.711  0.00  0.00    +0.000 A 
ATOM     19  C   UNL     1       0.614  11.059  19.252  0.00  0.00    +0.000 A 
ENDBRANCH  10  13
ENDBRANCH   5   7
BRANCH   1  20
ATOM     20  S   UNL     1       7.499   5.563  18.601  0.00  0.00    +0.000 S 
ATOM     21  O   UNL     1       7.937   6.873  18.187  0.00  0.00    +0.000 OA
ATOM     22  O   UNL     1       8.043   4.348  18.054  0.00  0.00    +0.000 OA
BRANCH  20  23
ATOM     23  N   UNL     1       7.758   5.463  20.257  0.00  0.00    +0.000 NA
ATOM     24  H   UNL     1       8.741   5.267  20.448  0.00  0.00    +0.000 HD
ATOM     25  H   UNL     1       7.110   4.804  20.685  0.00  0.00    +0.000 HD
ENDBRANCH  20  23
ENDBRANCH   1  20
BRANCH   4  26
ATOM     26  O   UNL     1       1.728   5.099  17.695  0.00  0.00    +0.000 OA
ATOM     27  H   UNL     1       1.581   5.660  16.914  0.00  0.00    +0.000 HD
ENDBRANCH   4  26
TORSDOF 5
ENDMDL
MODEL 3
REMARK VINA RESULT:      -8.1      0.510      1.120
REMARK  Name = 
REMARK  5 active torsions:
REMARK  status: ('A' for Active; 'I' for Inactive)
REMARK    1  A    between atoms: N_1  and  S_2
REMARK    2  A    between atoms: S_2  and  C_5
REMARK    3  A    between atoms: C_8  and  O_9
REMARK    4  A    between atoms: C_10  and  N_11
REMARK    5  A    between atoms: N_14  and  C_15
REMARK                            x       y       z     vdW  Elec       q    Type
REMARK                         _______ _______ _______ _____ _____    ______ ____
ROOT
ATOM      1  C   UNL     1       5.661   5.162  17.946  0.00  0.00    +0.000 A 
ATOM      2  C   UNL     1       5.096   4.272  17.045  0.00  0.00    +0.000 A 
ATOM      3  C   UNL     1       3.728   4.021  17.111  0.00  0.00    +0.000 A 
ATOM      4  C   UNL     1       2.960   4.647  18.096  0.00  0.00    +0.000 A 
ATOM      5  C   UNL     1       3.545   5.461  19.084  0.00  0.00    +0.000 A 
ATOM      6  C   UNL     1       4.907   5.748  18.977  0.00  0.00    +0.000 A 
ENDROOT
BRANCH   5   7
ATOM      7  N   UNL     1       2.828   6.030  20.171  0.00  0.00    +0.000 N 
ATOM      8  C   UNL     1       2.022   7.154  20.053  0.00  0.00    +0.000 C 
ATOM      9  O   UNL     1       1.695   7.666  18.988  0.00  0.00    +0.000 OA
ATOM     10  N   UNL     1       1.626   7.628  21.308  0.00  0.00    +0.000 N 
ATOM     11  H   UNL     1       2.562   5.410  20.921  0.00  0.00    +0.000 HD
ATOM     12  H   UNL     1       2.299   7.448  22.040  0.00  0.00    +0.000 HD
BRANCH  10  13
ATOM     13  C   UNL     1       0.904   8.843  21.403  0.00  0.00    +0.000 A 
ATOM     14  C   UNL     1       1.095   9.874  20.473  0.00  0.00    +0.000 A 
ATOM     15  C   UNL     1       0.549  11.136  20.697  0.00  0.00    +0.000 A 
ATOM     16  C   UNL     1      -0.200  11.357  21.846  0.00  0.00    +0.000 A 
ATOM     17  F   UNL     1      -0.658  12.588  22.107  0.00  0.00    +0.000 F 
ATOM     18  C   UNL     1      -0.465  10.321  22.736  0.00  0.00    +0.000 A 
ATOM     19  C   UNL     1       0.064   9.048  22.501  0.00  0.00    +0.000 A 
ENDBRANCH  10  13
ENDBRANCH   5   7
BRANCH   1  20
ATOM     20  S   UNL     1       7.354   5.638  17.735  0.00  0.00    +0.000 S 
ATOM     21  O   UNL     1       7.816   6.261  18.951  0.00  0.00    +0.000 OA
ATOM     22  O   UNL     1       7.519   6.238  16.437  0.00  0.00    +0.000 OA
BRANCH  20  23
ATOM     23  N   UNL     1       8.112   4.143  17.637  0.00  0.00    +0.000 NA
ATOM     24  H   UNL     1       7.934   3.718  16.725  0.00  0.00    +0.000 HD
ATOM     25  H   UNL     1       7.856   3.555  18.428  0.00  0.00    +0.000 HD
ENDBRANCH  20  23
ENDBRANCH   1  20
BRANCH   4  26
ATOM     26  O   UNL     1       1.603   4.540  17.977  0.00  0.00    +0.000 OA
ATOM     27  H   UNL     1       1.329   3.791  18.536  0.00  0.00    +0.000 HD
ENDBRANCH   4  26
TORSDOF 5
ENDMDL
MODEL 4
REMARK VINA RESULT:      -8.1      5.180      7.150
REMARK  Name = 
REMARK  5 active torsions:
REMARK  status: ('A' for Active; 'I' for Inactive)
REMARK    1  A    between atoms: N_1  and  S_2
REMARK    2  A    between atoms: S_2  and  C_5
REMARK    3  A    between atoms: C_8  and  O_9
REMARK    4  A    between atoms: C_10  and  N_11
REMARK    5  A    between atoms: N_14  and  C_15
REMARK                            x       y       z     vdW  Elec       q    Type
REMARK                         _______ _______ _______ _____ _____    ______ ____
ROOT
ATOM      1  C   UNL     1       4.417   5.010  17.848  0.00  0.00    +0.000 A 
ATOM      2  C   UNL     1       4.762   3.982  16.984  0.00  0.00    +0.000 A 
ATOM      3  C   UNL     1       5.833   4.163  16.112  0.00  0.00    +0.000 A 
ATOM      4  C   UNL     1       6.517   5.381  16.107  0.00  0.00    +0.000 A 
ATOM      5  C   UNL     1       6.101   6.467  16.899  0.00  0.00    +0.000 A 
ATOM      6  C   UNL     1       5.061   6.258  17.807  0.00  0.00    +0.000 A 
ENDROOT
BRANCH   5   7
ATOM      7  N   UNL     1       6.692   7.759  16.850  0.00  0.00    +0.000 N 
ATOM      8  C   UNL     1       7.749   8.150  17.661  0.00  0.00    +0.000 C 
ATOM      9  O   UNL     1       8.401   7.388  18.366  0.00  0.00    +0.000 OA
ATOM     10  N   UNL     1       7.977   9.526  17.567  0.00  0.00    +0.000 N 
ATOM     11  H   UNL     1       6.641   8.254  15.973  0.00  0.00    +0.000 HD
ATOM     12  H   UNL     1       7.145  10.062  17.369  0.00  0.00    +0.000 HD
BRANCH  10  13
ATOM     13  C   UNL     1       8.932  10.137  18.416  0.00  0.00    +0.000 A 
ATOM     14  C   UNL     1       8.792  10.100  19.810  0.00  0.00    +0.000 A 
ATOM     15  C   UNL     1       9.609  10.884  20.623  0.00  0.00    +0.000 A 
ATOM     16  C   UNL     1      10.575  11.691  20.036  0.00  0.00    +0.000 A 
ATOM     17  F   UNL     1      11.307  12.507  20.806  0.00  0.00    +0.000 F 
ATOM     18  C   UNL     1      10.779  11.677  18.660  0.00  0.00    +0.000 A 
ATOM     19  C   UNL     1       9.974  10.874  17.845  0.00  0.00    +0.000 A 
ENDBRANCH  10  13
ENDBRANCH   5   7
BRANCH   1  20
ATOM     20  S   UNL     1       3.194   4.708  19.094  0.00  0.00    +0.000 S 
ATOM     21  O   UNL     1       3.670   3.665  19.969  0.00  0.00    +0.000 OA
ATOM     22  O   UNL     1       1.891   4.682  18.483  0.00  0.00    +0.000 OA
BRANCH  20  23
ATOM     23  N   UNL     1       3.249   6.140  19.970  0.00  0.00    +0.000 NA
ATOM     24  H   UNL     1       2.575   6.809  19.594  0.00  0.00    +0.000 HD
ATOM     25  H   UNL     1       4.202   6.494  20.023  0.00  0.00    +0.000 HD
ENDBRANCH  20  23
ENDBRANCH   1  20
BRANCH   4  26
ATOM     26  O   UNL     1       7.685   5.426  15.399  0.00  0.00    +0.000 OA
ATOM     27  H   UNL     1       7.518   5.979  14.615  0.00  0.00    +0.000 HD
ENDBRANCH   4  26
TORSDOF 5
ENDMDL
MODEL 5
REMARK VINA RESULT:      -8.1      0.861      1.403
REMARK  Name = 
REMARK  5 active torsions:
REMARK  status: ('A' for Active; 'I' for Inactive)
REMARK    1  A    between atoms: N_1  and  S_2
REMARK    2  A    between atoms: S_2  and  C_5
REMARK    3  A    between atoms: C_8  and  O_9
REMARK    4  A    between atoms: C_10  and  N_11
REMARK    5  A    between atoms: N_14  and  C_15
REMARK                            x       y       z     vdW  Elec       q    Type
REMARK                         _______ _______ _______ _____ _____    ______ ____
ROOT
ATOM      1  C   UNL     1       5.743   4.954  18.003  0.00  0.00    +0.000 A 
ATOM      2  C   UNL     1       5.159   4.146  17.039  0.00  0.00    +0.000 A 
ATOM      3  C   UNL     1       3.775   3.997  17.030  0.00  0.00    +0.000 A 
ATOM      4  C   UNL     1       3.008   4.640  18.005  0.00  0.00    +0.000 A 
ATOM      5  C   UNL     1       3.601   5.368  19.052  0.00  0.00    +0.000 A 
ATOM      6  C   UNL     1       4.985   5.555  19.021  0.00  0.00    +0.000 A 
ENDROOT
BRANCH   5   7
ATOM      7  N   UNL     1       2.875   5.947  20.129  0.00  0.00    +0.000 N 
ATOM      8  C   UNL     1       2.080   7.077  19.996  0.00  0.00    +0.000 C 
ATOM      9  O   UNL     1       1.770   7.587  18.925  0.00  0.00    +0.000 OA
ATOM     10  N   UNL     1       1.672   7.558  21.244  0.00  0.00    +0.000 N 
ATOM     11  H   UNL     1       2.595   5.331  20.877  0.00  0.00    +0.000 HD
ATOM     12  H   UNL     1       2.334   7.376  21.985  0.00  0.00    +0.000 HD
BRANCH  10  13
ATOM     13  C   UNL     1       0.958   8.779  21.326  0.00  0.00    +0.000 A 
ATOM     14  C   UNL     1       1.140   9.790  20.373  0.00  0.00    +0.000 A 
ATOM     15  C   UNL     1       0.605  11.060  20.579  0.00  0.00    +0.000 A 
ATOM     16  C   UNL     1      -0.125  11.308  21.735  0.00  0.00    +0.000 A 
ATOM     17  F   UNL     1      -0.572  12.547  21.978  0.00  0.00    +0.000 F 
ATOM     18  C   UNL     1      -0.382  10.292  22.650  0.00  0.00    +0.000 A 
ATOM     19  C   UNL     1       0.136   9.011  22.432  0.00  0.00    +0.000 A 
ENDBRANCH  10  13
ENDBRANCH   5   7
BRANCH   1  20
ATOM     20  S   UNL     1       7.475   5.308  17.891  0.00  0.00    +0.000 S 
ATOM     21  O   UNL     1       8.134   4.202  17.239  0.00  0.00    +0.000 OA
ATOM     22  O   UNL     1       7.927   5.861  19.140  0.00  0.00    +0.000 OA
BRANCH  20  23
ATOM     23  N   UNL     1       7.486   6.589  16.804  0.00  0.00    +0.000 NA
ATOM     24  H   UNL     1       7.934   7.404  17.226  0.00  0.00    +0.000 HD
ATOM     25  H   UNL     1       6.549   6.766  16.446  0.00  0.00    +0.000 HD
ENDBRANCH  20  23
ENDBRANCH   1  20
BRANCH   4  26
ATOM     26  O   UNL     1       1.654   4.641  17.818  0.00  0.00    +0.000 OA
ATOM     27  H   UNL     1       1.391   3.717  17.659  0.00  0.00    +0.000 HD
ENDBRANCH   4  26
TORSDOF 5
ENDMDL
MODEL 6
REMARK VINA RESULT:      -8.0      2.041      2.323
REMARK  Name = 
REMARK  5 active torsions:
REMARK  status: ('A' for Active; 'I' for Inactive)
REMARK    1  A    between atoms: N_1  and  S_2
REMARK    2  A    between atoms: S_2  and  C_5
REMARK    3  A    between atoms: C_8  and  O_9
REMARK    4  A    between atoms: C_10  and  N_11
REMARK    5  A    between atoms: N_14  and  C_15
REMARK                            x       y       z     vdW  Elec       q    Type
REMARK                         _______ _______ _______ _____ _____    ______ ____
ROOT
ATOM      1  C   UNL     1       5.525   5.331  17.506  0.00  0.00    +0.000 A 
ATOM      2  C   UNL     1       5.001   4.130  17.052  0.00  0.00    +0.000 A 
ATOM      3  C   UNL     1       3.631   3.908  17.156  0.00  0.00    +0.000 A 
ATOM      4  C   UNL     1       2.818   4.884  17.740  0.00  0.00    +0.000 A 
ATOM      5  C   UNL     1       3.357   6.054  18.306  0.00  0.00    +0.000 A 
ATOM      6  C   UNL     1       4.724   6.291  18.148  0.00  0.00    +0.000 A 
ENDROOT
BRANCH   5   7
ATOM      7  N   UNL     1       2.590   7.023  19.008  0.00  0.00    +0.000 N 
ATOM      8  C   UNL     1       2.018   8.133  18.401  0.00  0.00    +0.000 C 
ATOM      9  O   UNL     1       1.951   8.305  17.190  0.00  0.00    +0.000 OA
ATOM     10  N   UNL     1       1.521   9.029  19.352  0.00  0.00    +0.000 N 
ATOM     11  H   UNL     1       2.110   6.714  19.839  0.00  0.00    +0.000 HD
ATOM     12  H   UNL     1       2.032   9.021  20.223  0.00  0.00    +0.000 HD
BRANCH  10  13
ATOM     13  C   UNL     1       1.013  10.284  18.934  0.00  0.00    +0.000 A 
ATOM     14  C   UNL     1       1.860  11.385  18.751  0.00  0.00    +0.000 A 
ATOM     15  C   UNL     1       1.331  12.659  18.554  0.00  0.00    +0.000 A 
ATOM     16  C   UNL     1      -0.048  12.823  18.527  0.00  0.00    +0.000 A 
ATOM     17  F   UNL     1      -0.563  14.055  18.421  0.00  0.00    +0.000 F 
ATOM     18  C   UNL     1      -0.901  11.728  18.628  0.00  0.00    +0.000 A 
ATOM     19  C   UNL     1      -0.370  10.446  18.802  0.00  0.00    +0.000 A 
ENDBRANCH  10  13
ENDBRANCH   5   7
BRANCH   1  20
ATOM     20  S   UNL     1       7.228   5.699  17.188  0.00  0.00    +0.000 S 
ATOM     21  O   UNL     1       7.714   6.580  18.223  0.00  0.00    +0.000 OA
ATOM     22  O   UNL     1       7.400   5.971  15.786  0.00  0.00    +0.000 OA
BRANCH  20  23
ATOM     23  N   UNL     1       7.948   4.204  17.446  0.00  0.00    +0.000 NA
ATOM     24  H   UNL     1       7.232   3.480  17.533  0.00  0.00    +0.000 HD
ATOM     25  H   UNL     1       8.597   4.245  18.230  0.00  0.00    +0.000 HD
ENDBRANCH  20  23
ENDBRANCH   1  20
BRANCH   4  26
ATOM     26  O   UNL     1       1.468   4.712  17.617  0.00  0.00    +0.000 OA
ATOM     27  H   UNL     1       1.246   3.886  18.082  0.00  0.00    +0.000 HD
ENDBRANCH   4  26
TORSDOF 5
ENDMDL
MODEL 7
REMARK VINA RESULT:      -7.9      1.702      2.003
REMARK  Name = 
REMARK  5 active torsions:
REMARK  status: ('A' for Active; 'I' for Inactive)
REMARK    1  A    between atoms: N_1  and  S_2
REMARK    2  A    between atoms: S_2  and  C_5
REMARK    3  A    between atoms: C_8  and  O_9
REMARK    4  A    between atoms: C_10  and  N_11
REMARK    5  A    between atoms: N_14  and  C_15
REMARK                            x       y       z     vdW  Elec       q    Type
REMARK                         _______ _______ _______ _____ _____    ______ ____
ROOT
ATOM      1  C   UNL     1       5.387   5.157  16.925  0.00  0.00    +0.000 A 
ATOM      2  C   UNL     1       4.863   3.891  17.141  0.00  0.00    +0.000 A 
ATOM      3  C   UNL     1       3.533   3.767  17.531  0.00  0.00    +0.000 A 
ATOM      4  C   UNL     1       2.763   4.918  17.725  0.00  0.00    +0.000 A 
ATOM      5  C   UNL     1       3.318   6.206  17.619  0.00  0.00    +0.000 A 
ATOM      6  C   UNL     1       4.637   6.319  17.176  0.00  0.00    +0.000 A 
ENDROOT
BRANCH   5   7
ATOM      7  N   UNL     1       2.610   7.403  17.914  0.00  0.00    +0.000 N 
ATOM      8  C   UNL     1       2.262   7.790  19.201  0.00  0.00    +0.000 C 
ATOM      9  O   UNL     1       2.675   7.253  20.223  0.00  0.00    +0.000 OA
ATOM     10  N   UNL     1       1.382   8.876  19.182  0.00  0.00    +0.000 N 
ATOM     11  H   UNL     1       2.716   8.170  17.267  0.00  0.00    +0.000 HD
ATOM     12  H   UNL     1       0.785   8.900  18.368  0.00  0.00    +0.000 HD
BRANCH  10  13
ATOM     13  C   UNL     1       0.811   9.337  20.394  0.00  0.00    +0.000 A 
ATOM     14  C   UNL     1       0.226   8.446  21.305  0.00  0.00    +0.000 A 
ATOM     15  C   UNL     1      -0.520   8.924  22.380  0.00  0.00    +0.000 A 
ATOM     16  C   UNL     1      -0.665  10.295  22.548  0.00  0.00    +0.000 A 
ATOM     17  F   UNL     1      -1.448  10.759  23.531  0.00  0.00    +0.000 F 
ATOM     18  C   UNL     1      -0.023  11.192  21.699  0.00  0.00    +0.000 A 
ATOM     19  C   UNL     1       0.745  10.713  20.633  0.00  0.00    +0.000 A 
ENDBRANCH  10  13
ENDBRANCH   5   7
BRANCH   1  20
ATOM     20  S   UNL     1       7.010   5.307  16.232  0.00  0.00    +0.000 S 
ATOM     21  O   UNL     1       6.893   5.441  14.801  0.00  0.00    +0.000 OA
ATOM     22  O   UNL     1       7.883   4.350  16.859  0.00  0.00    +0.000 OA
BRANCH  20  23
ATOM     23  N   UNL     1       7.489   6.804  16.824  0.00  0.00    +0.000 NA
ATOM     24  H   UNL     1       6.707   7.263  17.294  0.00  0.00    +0.000 HD
ATOM     25  H   UNL     1       7.919   7.362  16.088  0.00  0.00    +0.000 HD
ENDBRANCH  20  23
ENDBRANCH   1  20
BRANCH   4  26
ATOM     26  O   UNL     1       1.418   4.736  17.889  0.00  0.00    +0.000 OA
ATOM     27  H   UNL     1       0.975   5.321  17.250  0.00  0.00    +0.000 HD
ENDBRANCH   4  26
TORSDOF 5
ENDMDL
MODEL 8
REMARK VINA RESULT:      -7.9      1.766      2.020
REMARK  Name = 
REMARK  5 active torsions:
REMARK  status: ('A' for Active; 'I' for Inactive)
REMARK    1  A    between atoms: N_1  and  S_2
REMARK    2  A    between atoms: S_2  and  C_5
REMARK    3  A    between atoms: C_8  and  O_9
REMARK    4  A    between atoms: C_10  and  N_11
REMARK    5  A    between atoms: N_14  and  C_15
REMARK                            x       y       z     vdW  Elec       q    Type
REMARK                         _______ _______ _______ _____ _____    ______ ____
ROOT
ATOM      1  C   UNL     1       5.558   5.302  17.640  0.00  0.00    +0.000 A 
ATOM      2  C   UNL     1       5.040   4.159  17.050  0.00  0.00    +0.000 A 
ATOM      3  C   UNL     1       3.669   3.926  17.116  0.00  0.00    +0.000 A 
ATOM      4  C   UNL     1       2.850   4.831  17.797  0.00  0.00    +0.000 A 
ATOM      5  C   UNL     1       3.382   5.931  18.494  0.00  0.00    +0.000 A 
ATOM      6  C   UNL     1       4.750   6.184  18.377  0.00  0.00    +0.000 A 
ENDROOT
BRANCH   5   7
ATOM      7  N   UNL     1       2.608   6.816  19.293  0.00  0.00    +0.000 N 
ATOM      8  C   UNL     1       1.954   7.931  18.786  0.00  0.00    +0.000 C 
ATOM      9  O   UNL     1       1.818   8.173  17.592  0.00  0.00    +0.000 OA
ATOM     10  N   UNL     1       1.465   8.742  19.814  0.00  0.00    +0.000 N 
ATOM     11  H   UNL     1       2.185   6.433  20.125  0.00  0.00    +0.000 HD
ATOM     12  H   UNL     1       2.020   8.706  20.658  0.00  0.00    +0.000 HD
BRANCH  10  13
ATOM     13  C   UNL     1       0.878   9.993  19.502  0.00  0.00    +0.000 A 
ATOM     14  C   UNL     1      -0.507  10.121  19.326  0.00  0.00    +0.000 A 
ATOM     15  C   UNL     1      -1.048  11.296  18.809  0.00  0.00    +0.000 A 
ATOM     16  C   UNL     1      -0.200  12.346  18.483  0.00  0.00    +0.000 A 
ATOM     17  F   UNL     1      -0.704  13.447  17.910  0.00  0.00    +0.000 F 
ATOM     18  C   UNL     1       1.168  12.264  18.727  0.00  0.00    +0.000 A 
ATOM     19  C   UNL     1       1.709  11.093  19.267  0.00  0.00    +0.000 A 
ENDBRANCH  10  13
ENDBRANCH   5   7
BRANCH   1  20
ATOM     20  S   UNL     1       7.264   5.703  17.381  0.00  0.00    +0.000 S 
ATOM     21  O   UNL     1       7.717   6.530  18.473  0.00  0.00    +0.000 OA
ATOM     22  O   UNL     1       7.464   6.053  15.999  0.00  0.00    +0.000 OA
BRANCH  20  23
ATOM     23  N   UNL     1       7.994   4.202  17.573  0.00  0.00    +0.000 NA
ATOM     24  H   UNL     1       8.925   4.313  17.977  0.00  0.00    +0.000 HD
ATOM     25  H   UNL     1       7.977   3.679  16.700  0.00  0.00    +0.000 HD
ENDBRANCH  20  23
ENDBRANCH   1  20
BRANCH   4  26
ATOM     26  O   UNL     1       1.501   4.674  17.643  0.00  0.00    +0.000 OA
ATOM     27  H   UNL     1       1.147   5.538  17.366  0.00  0.00    +0.000 HD
ENDBRANCH   4  26
TORSDOF 5
ENDMDL
MODEL 9
REMARK VINA RESULT:      -7.9      2.133      2.365
REMARK  Name = 
REMARK  5 active torsions:
REMARK  status: ('A' for Active; 'I' for Inactive)
REMARK    1  A    between atoms: N_1  and  S_2
REMARK    2  A    between atoms: S_2  and  C_5
REMARK    3  A    between atoms: C_8  and  O_9
REMARK    4  A    between atoms: C_10  and  N_11
REMARK    5  A    between atoms: N_14  and  C_15
REMARK                            x       y       z     vdW  Elec       q    Type
REMARK                         _______ _______ _______ _____ _____    ______ ____
ROOT
ATOM      1  C   UNL     1       5.751   5.483  18.569  0.00  0.00    +0.000 A 
ATOM      2  C   UNL     1       5.094   4.314  18.923  0.00  0.00    +0.000 A 
ATOM      3  C   UNL     1       3.722   4.217  18.707  0.00  0.00    +0.000 A 
ATOM      4  C   UNL     1       3.033   5.306  18.167  0.00  0.00    +0.000 A 
ATOM      5  C   UNL     1       3.671   6.534  17.913  0.00  0.00    +0.000 A 
ATOM      6  C   UNL     1       5.055   6.603  18.082  0.00  0.00    +0.000 A 
ENDROOT
BRANCH   5   7
ATOM      7  N   UNL     1       2.996   7.703  17.470  0.00  0.00    +0.000 N 
ATOM      8  C   UNL     1       2.177   8.471  18.287  0.00  0.00    +0.000 C 
ATOM      9  O   UNL     1       2.089   8.340  19.502  0.00  0.00    +0.000 OA
ATOM     10  N   UNL     1       1.466   9.419  17.545  0.00  0.00    +0.000 N 
ATOM     11  H   UNL     1       3.415   8.216  16.709  0.00  0.00    +0.000 HD
ATOM     12  H   UNL     1       1.262   9.125  16.600  0.00  0.00    +0.000 HD
BRANCH  10  13
ATOM     13  C   UNL     1       0.482  10.214  18.182  0.00  0.00    +0.000 A 
ATOM     14  C   UNL     1       0.831  11.155  19.160  0.00  0.00    +0.000 A 
ATOM     15  C   UNL     1      -0.153  11.771  19.930  0.00  0.00    +0.000 A 
ATOM     16  C   UNL     1      -1.487  11.453  19.707  0.00  0.00    +0.000 A 
ATOM     17  F   UNL     1      -2.431  11.980  20.499  0.00  0.00    +0.000 F 
ATOM     18  C   UNL     1      -1.853  10.582  18.686  0.00  0.00    +0.000 A 
ATOM     19  C   UNL     1      -0.867   9.980  17.897  0.00  0.00    +0.000 A 
ENDBRANCH  10  13
ENDBRANCH   5   7
BRANCH   1  20
ATOM     20  S   UNL     1       7.520   5.532  18.650  0.00  0.00    +0.000 S 
ATOM     21  O   UNL     1       7.966   6.848  18.262  0.00  0.00    +0.000 OA
ATOM     22  O   UNL     1       8.054   4.325  18.077  0.00  0.00    +0.000 OA
BRANCH  20  23
ATOM     23  N   UNL     1       7.783   5.398  20.303  0.00  0.00    +0.000 NA
ATOM     24  H   UNL     1       8.784   5.345  20.497  0.00  0.00    +0.000 HD
ATOM     25  H   UNL     1       7.241   4.628  20.694  0.00  0.00    +0.000 HD
ENDBRANCH  20  23
ENDBRANCH   1  20
BRANCH   4  26
ATOM     26  O   UNL     1       1.743   5.082  17.774  0.00  0.00    +0.000 OA
ATOM     27  H   UNL     1       1.759   4.305  17.186  0.00  0.00    +0.000 HD
ENDBRANCH   4  26
TORSDOF 5
ENDMDL
