MODEL 1
REMARK VINA RESULT:      -6.8      0.000      0.000
REMARK  Name = 
REMARK  15 active torsions:
REMARK  status: ('A' for Active; 'I' for Inactive)
REMARK    1  A    between atoms: C_1  and  C_2
REMARK    2  A    between atoms: C_2  and  C_3
REMARK    3  A    between atoms: C_3  and  C_5
REMARK    4  A    between atoms: C_5  and  C_6
REMARK    5  A    between atoms: C_5  and  C_20
REMARK    6  A    between atoms: C_6  and  C_7
REMARK    7  A    between atoms: C_7  and  C_8
REMARK    8  A    between atoms: C_8  and  C_9
REMARK    9  A    between atoms: C_9  and  C_10
REMARK   10  A    between atoms: C_10  and  C_11
REMARK   11  A    between atoms: C_11  and  C_12
REMARK   12  A    between atoms: C_17  and  O_18
REMARK   13  A    between atoms: O_18  and  C_19
REMARK   14  A    between atoms: C_20  and  C_22
REMARK   15  A    between atoms: C_22  and  C_23
REMARK                            x       y       z     vdW  Elec       q    Type
REMARK                         _______ _______ _______ _____ _____    ______ ____
ROOT
ATOM      1  C   UNL     1       4.730   3.067  19.070  0.00  0.00    +0.000 C 
ENDROOT
BRANCH   1   2
ATOM      2  C   UNL     1       5.399   4.443  19.087  0.00  0.00    +0.000 C 
BRANCH   2   3
ATOM      3  C   UNL     1       6.531   4.569  18.065  0.00  0.00    +0.000 C 
BRANCH   3   4
ATOM      4  C   UNL     1       6.170   5.484  16.877  0.00  0.00    +0.000 C 
BRANCH   4   5
ATOM      5  C   UNL     1       6.706   4.948  15.552  0.00  0.00    +0.000 C 
ATOM      6  O   UNL     1       7.748   5.376  15.051  0.00  0.00    +0.000 OA
BRANCH   5   8
ATOM      7  C   UNL     1       6.066   3.810  13.409  0.00  0.00    +0.000 C 
ATOM      8  C   UNL     1       5.957   3.782  14.924  0.00  0.00    +0.000 C 
ENDBRANCH   5   8
ENDBRANCH   4   5
BRANCH   4   9
ATOM      9  C   UNL     1       6.563   6.931  17.144  0.00  0.00    +0.000 C 
ATOM     10  O   UNL     1       5.938   7.869  16.651  0.00  0.00    +0.000 OA
BRANCH   9  11
ATOM     11  C   UNL     1       7.762   7.152  18.053  0.00  0.00    +0.000 C 
ATOM     12  C   UNL     1       8.246   8.593  18.049  0.00  0.00    +0.000 C 
ENDBRANCH   9  11
ENDBRANCH   4   9
ENDBRANCH   3   4
ENDBRANCH   2   3
ENDBRANCH   1   2
BRANCH   1  13
ATOM     13  C   UNL     1       3.827   2.890  17.842  0.00  0.00    +0.000 C 
BRANCH  13  14
ATOM     14  C   UNL     1       2.557   2.073  18.093  0.00  0.00    +0.000 C 
BRANCH  14  15
ATOM     15  C   UNL     1       1.294   2.936  18.131  0.00  0.00    +0.000 C 
BRANCH  15  16
ATOM     16  C   UNL     1       1.580   4.283  18.743  0.00  0.00    +0.000 A 
ATOM     17  C   UNL     1       2.051   5.277  17.853  0.00  0.00    +0.000 A 
ATOM     18  C   UNL     1       2.466   6.526  18.303  0.00  0.00    +0.000 A 
ATOM     19  C   UNL     1       2.417   6.814  19.657  0.00  0.00    +0.000 A 
ATOM     20  C   UNL     1       1.955   5.845  20.551  0.00  0.00    +0.000 A 
ATOM     21  C   UNL     1       1.532   4.580  20.112  0.00  0.00    +0.000 A 
BRANCH  21  22
ATOM     22  O   UNL     1       1.222   3.746  21.152  0.00  0.00    +0.000 OA
ATOM     23  C   UNL     1       2.244   2.930  21.696  0.00  0.00    +0.000 C 
ENDBRANCH  21  22
ENDBRANCH  15  16
ENDBRANCH  14  15
ENDBRANCH  13  14
ENDBRANCH   1  13
TORSDOF 12
ENDMDL
MODEL 2
REMARK VINA RESULT:      -6.5      1.978      3.917
REMARK  Name = 
REMARK  15 active torsions:
REMARK  status: ('A' for Active; 'I' for Inactive)
REMARK    1  A    between atoms: C_1  and  C_2
REMARK    2  A    between atoms: C_2  and  C_3
REMARK    3  A    between atoms: C_3  and  C_5
REMARK    4  A    between atoms: C_5  and  C_6
REMARK    5  A    between atoms: C_5  and  C_20
REMARK    6  A    between atoms: C_6  and  C_7
REMARK    7  A    between atoms: C_7  and  C_8
REMARK    8  A    between atoms: C_8  and  C_9
REMARK    9  A    between atoms: C_9  and  C_10
REMARK   10  A    between atoms: C_10  and  C_11
REMARK   11  A    between atoms: C_11  and  C_12
REMARK   12  A    between atoms: C_17  and  O_18
REMARK   13  A    between atoms: O_18  and  C_19
REMARK   14  A    between atoms: C_20  and  C_22
REMARK   15  A    between atoms: C_22  and  C_23
REMARK                            x       y       z     vdW  Elec       q    Type
REMARK                         _______ _______ _______ _____ _____    ______ ____
ROOT
ATOM      1  C   UNL     1       4.667   3.583  18.070  0.00  0.00    +0.000 C 
ENDROOT
BRANCH   1   2
ATOM      2  C   UNL     1       3.975   4.146  16.828  0.00  0.00    +0.000 C 
BRANCH   2   3
ATOM      3  C   UNL     1       4.827   5.177  16.085  0.00  0.00    +0.000 C 
BRANCH   3   4
ATOM      4  C   UNL     1       6.323   4.803  16.043  0.00  0.00    +0.000 C 
BRANCH   4   5
ATOM      5  C   UNL     1       7.163   5.680  16.968  0.00  0.00    +0.000 C 
ATOM      6  O   UNL     1       7.179   6.908  16.863  0.00  0.00    +0.000 OA
BRANCH   5   8
ATOM      7  C   UNL     1       7.660   5.677  19.427  0.00  0.00    +0.000 C 
ATOM      8  C   UNL     1       7.903   4.982  18.098  0.00  0.00    +0.000 C 
ENDBRANCH   5   8
ENDBRANCH   4   5
BRANCH   4   9
ATOM      9  C   UNL     1       6.849   4.758  14.614  0.00  0.00    +0.000 C 
ATOM     10  O   UNL     1       7.829   5.415  14.268  0.00  0.00    +0.000 OA
BRANCH   9  11
ATOM     11  C   UNL     1       6.100   3.857  13.643  0.00  0.00    +0.000 C 
ATOM     12  C   UNL     1       6.803   3.725  12.302  0.00  0.00    +0.000 C 
ENDBRANCH   9  11
ENDBRANCH   4   9
ENDBRANCH   3   4
ENDBRANCH   2   3
ENDBRANCH   1   2
BRANCH   1  13
ATOM     13  C   UNL     1       3.885   3.904  19.351  0.00  0.00    +0.000 C 
BRANCH  13  14
ATOM     14  C   UNL     1       3.800   5.395  19.693  0.00  0.00    +0.000 C 
BRANCH  14  15
ATOM     15  C   UNL     1       2.409   5.814  20.173  0.00  0.00    +0.000 C 
BRANCH  15  16
ATOM     16  C   UNL     1       2.021   7.152  19.600  0.00  0.00    +0.000 A 
ATOM     17  C   UNL     1       2.409   7.385  18.259  0.00  0.00    +0.000 A 
ATOM     18  C   UNL     1       2.220   8.619  17.645  0.00  0.00    +0.000 A 
ATOM     19  C   UNL     1       1.635   9.653  18.359  0.00  0.00    +0.000 A 
ATOM     20  C   UNL     1       1.246   9.442  19.683  0.00  0.00    +0.000 A 
ATOM     21  C   UNL     1       1.429   8.202  20.316  0.00  0.00    +0.000 A 
BRANCH  21  22
ATOM     22  O   UNL     1       1.083   8.238  21.640  0.00  0.00    +0.000 OA
ATOM     23  C   UNL     1      -0.042   9.008  22.028  0.00  0.00    +0.000 C 
ENDBRANCH  21  22
ENDBRANCH  15  16
ENDBRANCH  14  15
ENDBRANCH  13  14
ENDBRANCH   1  13
TORSDOF 12
ENDMDL
MODEL 3
REMARK VINA RESULT:      -6.4      2.447      4.710
REMARK  Name = 
REMARK  15 active torsions:
REMARK  status: ('A' for Active; 'I' for Inactive)
REMARK    1  A    between atoms: C_1  and  C_2
REMARK    2  A    between atoms: C_2  and  C_3
REMARK    3  A    between atoms: C_3  and  C_5
REMARK    4  A    between atoms: C_5  and  C_6
REMARK    5  A    between atoms: C_5  and  C_20
REMARK    6  A    between atoms: C_6  and  C_7
REMARK    7  A    between atoms: C_7  and  C_8
REMARK    8  A    between atoms: C_8  and  C_9
REMARK    9  A    between atoms: C_9  and  C_10
REMARK   10  A    between atoms: C_10  and  C_11
REMARK   11  A    between atoms: C_11  and  C_12
REMARK   12  A    between atoms: C_17  and  O_18
REMARK   13  A    between atoms: O_18  and  C_19
REMARK   14  A    between atoms: C_20  and  C_22
REMARK   15  A    between atoms: C_22  and  C_23
REMARK                            x       y       z     vdW  Elec       q    Type
REMARK                         _______ _______ _______ _____ _____    ______ ____
ROOT
ATOM      1  C   UNL     1       3.041   3.786  18.384  0.00  0.00    +0.000 C 
ENDROOT
BRANCH   1   2
ATOM      2  C   UNL     1       4.084   3.237  17.410  0.00  0.00    +0.000 C 
BRANCH   2   3
ATOM      3  C   UNL     1       4.684   4.316  16.505  0.00  0.00    +0.000 C 
BRANCH   3   4
ATOM      4  C   UNL     1       6.161   4.049  16.149  0.00  0.00    +0.000 C 
BRANCH   4   5
ATOM      5  C   UNL     1       7.118   4.618  17.195  0.00  0.00    +0.000 C 
ATOM      6  O   UNL     1       8.275   4.209  17.308  0.00  0.00    +0.000 OA
BRANCH   5   8
ATOM      7  C   UNL     1       7.495   7.015  17.834  0.00  0.00    +0.000 C 
ATOM      8  C   UNL     1       6.618   5.789  18.025  0.00  0.00    +0.000 C 
ENDBRANCH   5   8
ENDBRANCH   4   5
BRANCH   4   9
ATOM      9  C   UNL     1       6.485   4.497  14.730  0.00  0.00    +0.000 C 
ATOM     10  O   UNL     1       7.311   5.380  14.507  0.00  0.00    +0.000 OA
BRANCH   9  11
ATOM     11  C   UNL     1       5.736   3.792  13.609  0.00  0.00    +0.000 C 
ATOM     12  C   UNL     1       6.557   3.678  12.335  0.00  0.00    +0.000 C 
ENDBRANCH   9  11
ENDBRANCH   4   9
ENDBRANCH   3   4
ENDBRANCH   2   3
ENDBRANCH   1   2
BRANCH   1  13
ATOM     13  C   UNL     1       2.543   5.175  17.958  0.00  0.00    +0.000 C 
BRANCH  13  14
ATOM     14  C   UNL     1       2.875   6.303  18.940  0.00  0.00    +0.000 C 
BRANCH  14  15
ATOM     15  C   UNL     1       2.593   7.691  18.363  0.00  0.00    +0.000 C 
BRANCH  15  16
ATOM     16  C   UNL     1       1.787   8.523  19.327  0.00  0.00    +0.000 A 
ATOM     17  C   UNL     1       1.356   7.861  20.501  0.00  0.00    +0.000 A 
ATOM     18  C   UNL     1       0.506   8.472  21.417  0.00  0.00    +0.000 A 
ATOM     19  C   UNL     1       0.067   9.765  21.182  0.00  0.00    +0.000 A 
ATOM     20  C   UNL     1       0.481  10.434  20.029  0.00  0.00    +0.000 A 
ATOM     21  C   UNL     1       1.339   9.830  19.095  0.00  0.00    +0.000 A 
BRANCH  21  22
ATOM     22  O   UNL     1       1.534  10.611  17.988  0.00  0.00    +0.000 OA
ATOM     23  C   UNL     1       2.307  11.792  18.116  0.00  0.00    +0.000 C 
ENDBRANCH  21  22
ENDBRANCH  15  16
ENDBRANCH  14  15
ENDBRANCH  13  14
ENDBRANCH   1  13
TORSDOF 12
ENDMDL
MODEL 4
REMARK VINA RESULT:      -6.2      1.589      4.203
REMARK  Name = 
REMARK  15 active torsions:
REMARK  status: ('A' for Active; 'I' for Inactive)
REMARK    1  A    between atoms: C_1  and  C_2
REMARK    2  A    between atoms: C_2  and  C_3
REMARK    3  A    between atoms: C_3  and  C_5
REMARK    4  A    between atoms: C_5  and  C_6
REMARK    5  A    between atoms: C_5  and  C_20
REMARK    6  A    between atoms: C_6  and  C_7
REMARK    7  A    between atoms: C_7  and  C_8
REMARK    8  A    between atoms: C_8  and  C_9
REMARK    9  A    between atoms: C_9  and  C_10
REMARK   10  A    between atoms: C_10  and  C_11
REMARK   11  A    between atoms: C_11  and  C_12
REMARK   12  A    between atoms: C_17  and  O_18
REMARK   13  A    between atoms: O_18  and  C_19
REMARK   14  A    between atoms: C_20  and  C_22
REMARK   15  A    between atoms: C_22  and  C_23
REMARK                            x       y       z     vdW  Elec       q    Type
REMARK                         _______ _______ _______ _____ _____    ______ ____
ROOT
ATOM      1  C   UNL     1       3.410   8.031  17.424  0.00  0.00    +0.000 C 
ENDROOT
BRANCH   1   2
ATOM      2  C   UNL     1       4.110   6.674  17.339  0.00  0.00    +0.000 C 
BRANCH   2   3
ATOM      3  C   UNL     1       4.962   6.519  16.077  0.00  0.00    +0.000 C 
BRANCH   3   4
ATOM      4  C   UNL     1       6.192   5.613  16.288  0.00  0.00    +0.000 C 
BRANCH   4   5
ATOM      5  C   UNL     1       7.267   6.289  17.136  0.00  0.00    +0.000 C 
ATOM      6  O   UNL     1       7.657   7.434  16.900  0.00  0.00    +0.000 OA
BRANCH   5   8
ATOM      7  C   UNL     1       6.682   5.419  19.416  0.00  0.00    +0.000 C 
ATOM      8  C   UNL     1       7.764   5.529  18.356  0.00  0.00    +0.000 C 
ENDBRANCH   5   8
ENDBRANCH   4   5
BRANCH   4   9
ATOM      9  C   UNL     1       6.721   5.069  14.967  0.00  0.00    +0.000 C 
ATOM     10  O   UNL     1       7.816   5.410  14.523  0.00  0.00    +0.000 OA
BRANCH   9  11
ATOM     11  C   UNL     1       5.826   4.083  14.233  0.00  0.00    +0.000 C 
ATOM     12  C   UNL     1       6.328   3.762  12.834  0.00  0.00    +0.000 C 
ENDBRANCH   9  11
ENDBRANCH   4   9
ENDBRANCH   3   4
ENDBRANCH   2   3
ENDBRANCH   1   2
BRANCH   1  13
ATOM     13  C   UNL     1       2.035   7.918  18.098  0.00  0.00    +0.000 C 
BRANCH  13  14
ATOM     14  C   UNL     1       2.065   7.366  19.526  0.00  0.00    +0.000 C 
BRANCH  14  15
ATOM     15  C   UNL     1       3.042   6.201  19.690  0.00  0.00    +0.000 C 
BRANCH  15  16
ATOM     16  C   UNL     1       2.309   4.920  19.993  0.00  0.00    +0.000 A 
ATOM     17  C   UNL     1       2.331   4.502  21.345  0.00  0.00    +0.000 A 
ATOM     18  C   UNL     1       1.798   3.281  21.743  0.00  0.00    +0.000 A 
ATOM     19  C   UNL     1       1.227   2.445  20.797  0.00  0.00    +0.000 A 
ATOM     20  C   UNL     1       1.197   2.840  19.458  0.00  0.00    +0.000 A 
ATOM     21  C   UNL     1       1.730   4.071  19.040  0.00  0.00    +0.000 A 
BRANCH  21  22
ATOM     22  O   UNL     1       1.699   4.216  17.680  0.00  0.00    +0.000 OA
ATOM     23  C   UNL     1       2.629   3.488  16.897  0.00  0.00    +0.000 C 
ENDBRANCH  21  22
ENDBRANCH  15  16
ENDBRANCH  14  15
ENDBRANCH  13  14
ENDBRANCH   1  13
TORSDOF 12
ENDMDL
MODEL 5
REMARK VINA RESULT:      -6.2      2.166      3.234
REMARK  Name = 
REMARK  15 active torsions:
REMARK  status: ('A' for Active; 'I' for Inactive)
REMARK    1  A    between atoms: C_1  and  C_2
REMARK    2  A    between atoms: C_2  and  C_3
REMARK    3  A    between atoms: C_3  and  C_5
REMARK    4  A    between atoms: C_5  and  C_6
REMARK    5  A    between atoms: C_5  and  C_20
REMARK    6  A    between atoms: C_6  and  C_7
REMARK    7  A    between atoms: C_7  and  C_8
REMARK    8  A    between atoms: C_8  and  C_9
REMARK    9  A    between atoms: C_9  and  C_10
REMARK   10  A    between atoms: C_10  and  C_11
REMARK   11  A    between atoms: C_11  and  C_12
REMARK   12  A    between atoms: C_17  and  O_18
REMARK   13  A    between atoms: O_18  and  C_19
REMARK   14  A    between atoms: C_20  and  C_22
REMARK   15  A    between atoms: C_22  and  C_23
REMARK                            x       y       z     vdW  Elec       q    Type
REMARK                         _______ _______ _______ _____ _____    ______ ____
ROOT
ATOM      1  C   UNL     1       2.779   2.961  19.047  0.00  0.00    +0.000 C 
ENDROOT
BRANCH   1   2
ATOM      2  C   UNL     1       3.599   3.719  18.002  0.00  0.00    +0.000 C 
BRANCH   2   3
ATOM      3  C   UNL     1       5.104   3.673  18.274  0.00  0.00    +0.000 C 
BRANCH   3   4
ATOM      4  C   UNL     1       5.897   4.706  17.448  0.00  0.00    +0.000 C 
BRANCH   4   5
ATOM      5  C   UNL     1       5.868   4.395  15.954  0.00  0.00    +0.000 C 
ATOM      6  O   UNL     1       5.982   3.244  15.527  0.00  0.00    +0.000 OA
BRANCH   5   8
ATOM      7  C   UNL     1       5.004   6.743  15.759  0.00  0.00    +0.000 C 
ATOM      8  C   UNL     1       5.585   5.554  15.012  0.00  0.00    +0.000 C 
ENDBRANCH   5   8
ENDBRANCH   4   5
BRANCH   4   9
ATOM      9  C   UNL     1       7.305   4.900  17.996  0.00  0.00    +0.000 C 
ATOM     10  O   UNL     1       8.228   4.152  17.677  0.00  0.00    +0.000 OA
BRANCH   9  11
ATOM     11  C   UNL     1       7.507   6.066  18.951  0.00  0.00    +0.000 C 
ATOM     12  C   UNL     1       8.125   7.280  18.276  0.00  0.00    +0.000 C 
ENDBRANCH   9  11
ENDBRANCH   4   9
ENDBRANCH   3   4
ENDBRANCH   2   3
ENDBRANCH   1   2
BRANCH   1  13
ATOM     13  C   UNL     1       2.595   3.783  20.330  0.00  0.00    +0.000 C 
BRANCH  13  14
ATOM     14  C   UNL     1       1.874   5.120  20.136  0.00  0.00    +0.000 C 
BRANCH  14  15
ATOM     15  C   UNL     1       2.835   6.310  20.095  0.00  0.00    +0.000 C 
BRANCH  15  16
ATOM     16  C   UNL     1       2.139   7.549  19.595  0.00  0.00    +0.000 A 
ATOM     17  C   UNL     1       2.414   7.912  18.255  0.00  0.00    +0.000 A 
ATOM     18  C   UNL     1       1.935   9.095  17.703  0.00  0.00    +0.000 A 
ATOM     19  C   UNL     1       1.164   9.946  18.479  0.00  0.00    +0.000 A 
ATOM     20  C   UNL     1       0.883   9.606  19.803  0.00  0.00    +0.000 A 
ATOM     21  C   UNL     1       1.358   8.414  20.374  0.00  0.00    +0.000 A 
BRANCH  21  22
ATOM     22  O   UNL     1       1.064   8.323  21.708  0.00  0.00    +0.000 OA
ATOM     23  C   UNL     1      -0.214   8.746  22.152  0.00  0.00    +0.000 C 
ENDBRANCH  21  22
ENDBRANCH  15  16
ENDBRANCH  14  15
ENDBRANCH  13  14
ENDBRANCH   1  13
TORSDOF 12
ENDMDL
MODEL 6
REMARK VINA RESULT:      -5.9      3.366      8.444
REMARK  Name = 
REMARK  15 active torsions:
REMARK  status: ('A' for Active; 'I' for Inactive)
REMARK    1  A    between atoms: C_1  and  C_2
REMARK    2  A    between atoms: C_2  and  C_3
REMARK    3  A    between atoms: C_3  and  C_5
REMARK    4  A    between atoms: C_5  and  C_6
REMARK    5  A    between atoms: C_5  and  C_20
REMARK    6  A    between atoms: C_6  and  C_7
REMARK    7  A    between atoms: C_7  and  C_8
REMARK    8  A    between atoms: C_8  and  C_9
REMARK    9  A    between atoms: C_9  and  C_10
REMARK   10  A    between atoms: C_10  and  C_11
REMARK   11  A    between atoms: C_11  and  C_12
REMARK   12  A    between atoms: C_17  and  O_18
REMARK   13  A    between atoms: O_18  and  C_19
REMARK   14  A    between atoms: C_20  and  C_22
REMARK   15  A    between atoms: C_22  and  C_23
REMARK                            x       y       z     vdW  Elec       q    Type
REMARK                         _______ _______ _______ _____ _____    ______ ____
ROOT
ATOM      1  C   UNL     1       7.929   6.904  18.472  0.00  0.00    +0.000 C 
ENDROOT
BRANCH   1   2
ATOM      2  C   UNL     1       7.494   5.746  17.573  0.00  0.00    +0.000 C 
BRANCH   2   3
ATOM      3  C   UNL     1       6.439   4.848  18.225  0.00  0.00    +0.000 C 
BRANCH   3   4
ATOM      4  C   UNL     1       5.114   4.806  17.437  0.00  0.00    +0.000 C 
BRANCH   4   5
ATOM      5  C   UNL     1       4.554   6.202  17.176  0.00  0.00    +0.000 C 
ATOM      6  O   UNL     1       4.689   6.764  16.087  0.00  0.00    +0.000 OA
BRANCH   5   8
ATOM      7  C   UNL     1       2.905   8.001  17.764  0.00  0.00    +0.000 C 
ATOM      8  C   UNL     1       3.726   6.833  18.284  0.00  0.00    +0.000 C 
ENDBRANCH   5   8
ENDBRANCH   4   5
BRANCH   4   9
ATOM      9  C   UNL     1       4.107   3.865  18.083  0.00  0.00    +0.000 C 
ATOM     10  O   UNL     1       4.262   3.445  19.229  0.00  0.00    +0.000 OA
BRANCH   9  11
ATOM     11  C   UNL     1       2.902   3.476  17.240  0.00  0.00    +0.000 C 
ATOM     12  C   UNL     1       1.581   3.847  17.895  0.00  0.00    +0.000 C 
ENDBRANCH   9  11
ENDBRANCH   4   9
ENDBRANCH   3   4
ENDBRANCH   2   3
ENDBRANCH   1   2
BRANCH   1  13
ATOM     13  C   UNL     1       8.004   8.226  17.696  0.00  0.00    +0.000 C 
BRANCH  13  14
ATOM     14  C   UNL     1       8.308   9.457  18.555  0.00  0.00    +0.000 C 
BRANCH  14  15
ATOM     15  C   UNL     1       9.315  10.404  17.899  0.00  0.00    +0.000 C 
BRANCH  15  16
ATOM     16  C   UNL     1       9.786  11.452  18.874  0.00  0.00    +0.000 A 
ATOM     17  C   UNL     1       9.651  11.124  20.244  0.00  0.00    +0.000 A 
ATOM     18  C   UNL     1       9.934  12.043  21.249  0.00  0.00    +0.000 A 
ATOM     19  C   UNL     1      10.363  13.316  20.907  0.00  0.00    +0.000 A 
ATOM     20  C   UNL     1      10.501  13.658  19.560  0.00  0.00    +0.000 A 
ATOM     21  C   UNL     1      10.220  12.740  18.534  0.00  0.00    +0.000 A 
BRANCH  21  22
ATOM     22  O   UNL     1      10.314  13.305  17.292  0.00  0.00    +0.000 OA
ATOM     23  C   UNL     1      11.572  13.307  16.639  0.00  0.00    +0.000 C 
ENDBRANCH  21  22
ENDBRANCH  15  16
ENDBRANCH  14  15
ENDBRANCH  13  14
ENDBRANCH   1  13
TORSDOF 12
ENDMDL
MODEL 7
REMARK VINA RESULT:      -5.9      3.760      6.875
REMARK  Name = 
REMARK  15 active torsions:
REMARK  status: ('A' for Active; 'I' for Inactive)
REMARK    1  A    between atoms: C_1  and  C_2
REMARK    2  A    between atoms: C_2  and  C_3
REMARK    3  A    between atoms: C_3  and  C_5
REMARK    4  A    between atoms: C_5  and  C_6
REMARK    5  A    between atoms: C_5  and  C_20
REMARK    6  A    between atoms: C_6  and  C_7
REMARK    7  A    between atoms: C_7  and  C_8
REMARK    8  A    between atoms: C_8  and  C_9
REMARK    9  A    between atoms: C_9  and  C_10
REMARK   10  A    between atoms: C_10  and  C_11
REMARK   11  A    between atoms: C_11  and  C_12
REMARK   12  A    between atoms: C_17  and  O_18
REMARK   13  A    between atoms: O_18  and  C_19
REMARK   14  A    between atoms: C_20  and  C_22
REMARK   15  A    between atoms: C_22  and  C_23
REMARK                            x       y       z     vdW  Elec       q    Type
REMARK                         _______ _______ _______ _____ _____    ______ ____
ROOT
ATOM      1  C   UNL     1       8.474   8.156  18.468  0.00  0.00    +0.000 C 
ENDROOT
BRANCH   1   2
ATOM      2  C   UNL     1       8.497   9.622  18.036  0.00  0.00    +0.000 C 
BRANCH   2   3
ATOM      3  C   UNL     1       8.966  10.565  19.147  0.00  0.00    +0.000 C 
BRANCH   3   4
ATOM      4  C   UNL     1      10.306  11.257  18.823  0.00  0.00    +0.000 C 
BRANCH   4   5
ATOM      5  C   UNL     1      11.036  11.719  20.082  0.00  0.00    +0.000 C 
ATOM      6  O   UNL     1      12.266  11.716  20.158  0.00  0.00    +0.000 OA
BRANCH   5   8
ATOM      7  C   UNL     1      10.260  13.804  21.243  0.00  0.00    +0.000 C 
ATOM      8  C   UNL     1      10.184  12.287  21.206  0.00  0.00    +0.000 C 
ENDBRANCH   5   8
ENDBRANCH   4   5
BRANCH   4   9
ATOM      9  C   UNL     1      10.131  12.361  17.789  0.00  0.00    +0.000 C 
ATOM     10  O   UNL     1      11.031  12.658  17.005  0.00  0.00    +0.000 OA
BRANCH   9  11
ATOM     11  C   UNL     1       8.785  13.072  17.777  0.00  0.00    +0.000 C 
ATOM     12  C   UNL     1       8.908  14.567  18.017  0.00  0.00    +0.000 C 
ENDBRANCH   9  11
ENDBRANCH   4   9
ENDBRANCH   3   4
ENDBRANCH   2   3
ENDBRANCH   1   2
BRANCH   1  13
ATOM     13  C   UNL     1       7.394   7.361  17.720  0.00  0.00    +0.000 C 
BRANCH  13  14
ATOM     14  C   UNL     1       7.484   5.841  17.891  0.00  0.00    +0.000 C 
BRANCH  14  15
ATOM     15  C   UNL     1       6.558   5.313  18.988  0.00  0.00    +0.000 C 
BRANCH  15  16
ATOM     16  C   UNL     1       5.154   5.135  18.470  0.00  0.00    +0.000 A 
ATOM     17  C   UNL     1       4.124   5.659  19.289  0.00  0.00    +0.000 A 
ATOM     18  C   UNL     1       2.780   5.460  18.992  0.00  0.00    +0.000 A 
ATOM     19  C   UNL     1       2.431   4.733  17.865  0.00  0.00    +0.000 A 
ATOM     20  C   UNL     1       3.433   4.208  17.047  0.00  0.00    +0.000 A 
ATOM     21  C   UNL     1       4.795   4.401  17.332  0.00  0.00    +0.000 A 
BRANCH  21  22
ATOM     22  O   UNL     1       5.608   3.716  16.471  0.00  0.00    +0.000 OA
ATOM     23  C   UNL     1       5.682   4.142  15.122  0.00  0.00    +0.000 C 
ENDBRANCH  21  22
ENDBRANCH  15  16
ENDBRANCH  14  15
ENDBRANCH  13  14
ENDBRANCH   1  13
TORSDOF 12
ENDMDL
MODEL 8
REMARK VINA RESULT:      -5.9      4.303      6.702
REMARK  Name = 
REMARK  15 active torsions:
REMARK  status: ('A' for Active; 'I' for Inactive)
REMARK    1  A    between atoms: C_1  and  C_2
REMARK    2  A    between atoms: C_2  and  C_3
REMARK    3  A    between atoms: C_3  and  C_5
REMARK    4  A    between atoms: C_5  and  C_6
REMARK    5  A    between atoms: C_5  and  C_20
REMARK    6  A    between atoms: C_6  and  C_7
REMARK    7  A    between atoms: C_7  and  C_8
REMARK    8  A    between atoms: C_8  and  C_9
REMARK    9  A    between atoms: C_9  and  C_10
REMARK   10  A    between atoms: C_10  and  C_11
REMARK   11  A    between atoms: C_11  and  C_12
REMARK   12  A    between atoms: C_17  and  O_18
REMARK   13  A    between atoms: O_18  and  C_19
REMARK   14  A    between atoms: C_20  and  C_22
REMARK   15  A    between atoms: C_22  and  C_23
REMARK                            x       y       z     vdW  Elec       q    Type
REMARK                         _______ _______ _______ _____ _____    ______ ____
ROOT
ATOM      1  C   UNL     1       2.965   8.106  17.697  0.00  0.00    +0.000 C 
ENDROOT
BRANCH   1   2
ATOM      2  C   UNL     1       3.183   6.898  18.609  0.00  0.00    +0.000 C 
BRANCH   2   3
ATOM      3  C   UNL     1       2.418   5.655  18.146  0.00  0.00    +0.000 C 
BRANCH   3   4
ATOM      4  C   UNL     1       2.814   4.382  18.922  0.00  0.00    +0.000 C 
BRANCH   4   5
ATOM      5  C   UNL     1       4.199   3.874  18.528  0.00  0.00    +0.000 C 
ATOM      6  O   UNL     1       5.046   3.575  19.372  0.00  0.00    +0.000 OA
BRANCH   5   8
ATOM      7  C   UNL     1       5.542   4.576  16.528  0.00  0.00    +0.000 C 
ATOM      8  C   UNL     1       4.457   3.648  17.046  0.00  0.00    +0.000 C 
ENDBRANCH   5   8
ENDBRANCH   4   5
BRANCH   4   9
ATOM      9  C   UNL     1       1.733   3.314  18.833  0.00  0.00    +0.000 C 
ATOM     10  O   UNL     1       0.939   3.278  17.894  0.00  0.00    +0.000 OA
BRANCH   9  11
ATOM     11  C   UNL     1       1.691   2.295  19.963  0.00  0.00    +0.000 C 
ATOM     12  C   UNL     1       1.519   2.939  21.329  0.00  0.00    +0.000 C 
ENDBRANCH   9  11
ENDBRANCH   4   9
ENDBRANCH   3   4
ENDBRANCH   2   3
ENDBRANCH   1   2
BRANCH   1  13
ATOM     13  C   UNL     1       1.548   8.678  17.841  0.00  0.00    +0.000 C 
BRANCH  13  14
ATOM     14  C   UNL     1       1.234   9.275  19.216  0.00  0.00    +0.000 C 
BRANCH  14  15
ATOM     15  C   UNL     1       0.100  10.300  19.172  0.00  0.00    +0.000 C 
BRANCH  15  16
ATOM     16  C   UNL     1      -0.362  10.655  20.562  0.00  0.00    +0.000 A 
ATOM     17  C   UNL     1      -0.036   9.724  21.577  0.00  0.00    +0.000 A 
ATOM     18  C   UNL     1      -0.501   9.866  22.879  0.00  0.00    +0.000 A 
ATOM     19  C   UNL     1      -1.304  10.949  23.201  0.00  0.00    +0.000 A 
ATOM     20  C   UNL     1      -1.637  11.877  22.214  0.00  0.00    +0.000 A 
ATOM     21  C   UNL     1      -1.174  11.748  20.894  0.00  0.00    +0.000 A 
BRANCH  21  22
ATOM     22  O   UNL     1      -1.701  12.698  20.062  0.00  0.00    +0.000 OA
ATOM     23  C   UNL     1      -0.941  13.863  19.793  0.00  0.00    +0.000 C 
ENDBRANCH  21  22
ENDBRANCH  15  16
ENDBRANCH  14  15
ENDBRANCH  13  14
ENDBRANCH   1  13
TORSDOF 12
ENDMDL
MODEL 9
REMARK VINA RESULT:      -5.9      4.073      6.511
REMARK  Name = 
REMARK  15 active torsions:
REMARK  status: ('A' for Active; 'I' for Inactive)
REMARK    1  A    between atoms: C_1  and  C_2
REMARK    2  A    between atoms: C_2  and  C_3
REMARK    3  A    between atoms: C_3  and  C_5
REMARK    4  A    between atoms: C_5  and  C_6
REMARK    5  A    between atoms: C_5  and  C_20
REMARK    6  A    between atoms: C_6  and  C_7
REMARK    7  A    between atoms: C_7  and  C_8
REMARK    8  A    between atoms: C_8  and  C_9
REMARK    9  A    between atoms: C_9  and  C_10
REMARK   10  A    between atoms: C_10  and  C_11
REMARK   11  A    between atoms: C_11  and  C_12
REMARK   12  A    between atoms: C_17  and  O_18
REMARK   13  A    between atoms: O_18  and  C_19
REMARK   14  A    between atoms: C_20  and  C_22
REMARK   15  A    between atoms: C_22  and  C_23
REMARK                            x       y       z     vdW  Elec       q    Type
REMARK                         _______ _______ _______ _____ _____    ______ ____
ROOT
ATOM      1  C   UNL     1       2.478   8.333  18.134  0.00  0.00    +0.000 C 
ENDROOT
BRANCH   1   2
ATOM      2  C   UNL     1       2.525   7.048  18.961  0.00  0.00    +0.000 C 
BRANCH   2   3
ATOM      3  C   UNL     1       2.348   5.785  18.114  0.00  0.00    +0.000 C 
BRANCH   3   4
ATOM      4  C   UNL     1       3.018   4.544  18.738  0.00  0.00    +0.000 C 
BRANCH   4   5
ATOM      5  C   UNL     1       4.515   4.486  18.442  0.00  0.00    +0.000 C 
ATOM      6  O   UNL     1       5.312   3.960  19.222  0.00  0.00    +0.000 OA
BRANCH   5   8
ATOM      7  C   UNL     1       5.809   6.270  17.243  0.00  0.00    +0.000 C 
ATOM      8  C   UNL     1       4.973   5.011  17.091  0.00  0.00    +0.000 C 
ENDBRANCH   5   8
ENDBRANCH   4   5
BRANCH   4   9
ATOM      9  C   UNL     1       2.281   3.264  18.367  0.00  0.00    +0.000 C 
ATOM     10  O   UNL     1       2.162   2.906  17.197  0.00  0.00    +0.000 OA
BRANCH   9  11
ATOM     11  C   UNL     1       1.705   2.454  19.519  0.00  0.00    +0.000 C 
ATOM     12  C   UNL     1       1.181   3.326  20.648  0.00  0.00    +0.000 C 
ENDBRANCH   9  11
ENDBRANCH   4   9
ENDBRANCH   3   4
ENDBRANCH   2   3
ENDBRANCH   1   2
BRANCH   1  13
ATOM     13  C   UNL     1       1.055   8.641  17.645  0.00  0.00    +0.000 C 
BRANCH  13  14
ATOM     14  C   UNL     1       0.425   9.896  18.259  0.00  0.00    +0.000 C 
BRANCH  14  15
ATOM     15  C   UNL     1       1.304  10.533  19.336  0.00  0.00    +0.000 C 
BRANCH  15  16
ATOM     16  C   UNL     1       0.619  10.503  20.679  0.00  0.00    +0.000 A 
ATOM     17  C   UNL     1       0.421   9.219  21.240  0.00  0.00    +0.000 A 
ATOM     18  C   UNL     1      -0.302   9.038  22.415  0.00  0.00    +0.000 A 
ATOM     19  C   UNL     1      -0.843  10.138  23.059  0.00  0.00    +0.000 A 
ATOM     20  C   UNL     1      -0.658  11.413  22.520  0.00  0.00    +0.000 A 
ATOM     21  C   UNL     1       0.070  11.613  21.335  0.00  0.00    +0.000 A 
BRANCH  21  22
ATOM     22  O   UNL     1       0.040  12.916  20.921  0.00  0.00    +0.000 OA
ATOM     23  C   UNL     1       0.229  13.940  21.883  0.00  0.00    +0.000 C 
ENDBRANCH  21  22
ENDBRANCH  15  16
ENDBRANCH  14  15
ENDBRANCH  13  14
ENDBRANCH   1  13
TORSDOF 12
ENDMDL
