MODEL 1
REMARK VINA RESULT:      -7.8      0.000      0.000
REMARK  Name = 
REMARK  11 active torsions:
REMARK  status: ('A' for Active; 'I' for Inactive)
REMARK    1  A    between atoms: C_1  and  O_2
REMARK    2  A    between atoms: O_2  and  C_3
REMARK    3  A    between atoms: C_3  and  C_4
REMARK    4  A    between atoms: C_4  and  N_5
REMARK    5  A    between atoms: C_6  and  C_8
REMARK    6  A    between atoms: C_8  and  N_9
REMARK    7  A    between atoms: N_9  and  C_10
REMARK    8  A    between atoms: C_11  and  C_13
REMARK    9  A    between atoms: C_18  and  O_19
REMARK   10  A    between atoms: O_19  and  C_20
REMARK   11  A    between atoms: C_23  and  C_24
REMARK                            x       y       z     vdW  Elec       q    Type
REMARK                         _______ _______ _______ _____ _____    ______ ____
ROOT
ATOM      1  C   UNL     1       3.637   5.677  18.238  0.00  0.00    +0.000 A 
ATOM      2  C   UNL     1       3.344   5.322  19.549  0.00  0.00    +0.000 A 
ATOM      3  C   UNL     1       2.561   6.193  20.310  0.00  0.00    +0.000 A 
ATOM      4  C   UNL     1       2.109   7.399  19.749  0.00  0.00    +0.000 A 
ATOM      5  C   UNL     1       1.356   8.356  20.465  0.00  0.00    +0.000 A 
ATOM      6  C   UNL     1       0.970   9.549  19.851  0.00  0.00    +0.000 A 
ATOM      7  C   UNL     1       1.380   9.813  18.544  0.00  0.00    +0.000 A 
ATOM      8  C   UNL     1       2.087   8.853  17.830  0.00  0.00    +0.000 A 
ATOM      9  C   UNL     1       2.452   7.651  18.405  0.00  0.00    +0.000 A 
ATOM     10  N   UNL     1       3.164   6.803  17.662  0.00  0.00    +0.000 NA
ENDROOT
BRANCH   1  13
ATOM     11  N   UNL     1       5.834   5.331  17.043  0.00  0.00    +0.000 N 
ATOM     12  C   UNL     1       6.342   6.649  17.411  0.00  0.00    +0.000 C 
ATOM     13  C   UNL     1       4.572   4.832  17.414  0.00  0.00    +0.000 C 
ATOM     14  O   UNL     1       4.209   3.694  17.114  0.00  0.00    +0.000 OA
BRANCH  11  15
ATOM     15  C   UNL     1       6.778   4.434  16.371  0.00  0.00    +0.000 C 
BRANCH  15  17
ATOM     16  N   UNL     1       6.330   3.600  14.077  0.00  0.00    +0.000 N 
ATOM     17  C   UNL     1       6.924   4.570  14.851  0.00  0.00    +0.000 C 
ATOM     18  O   UNL     1       7.666   5.426  14.365  0.00  0.00    +0.000 OA
ATOM     19  H   UNL     1       5.618   3.010  14.495  0.00  0.00    +0.000 HD
BRANCH  16  20
ATOM     20  C   UNL     1       6.465   3.646  12.630  0.00  0.00    +0.000 C 
BRANCH  20  21
ATOM     21  C   UNL     1       5.265   3.078  11.878  0.00  0.00    +0.000 C 
BRANCH  21  23
ATOM     22  C   UNL     1       6.950   1.633  11.083  0.00  0.00    +0.000 C 
ATOM     23  O   UNL     1       5.573   1.761  11.415  0.00  0.00    +0.000 OA
ENDBRANCH  21  23
ENDBRANCH  20  21
ENDBRANCH  16  20
ENDBRANCH  15  17
ENDBRANCH  11  15
ENDBRANCH   1  13
BRANCH   6  24
ATOM     24  O   UNL     1       0.249  10.448  20.606  0.00  0.00    +0.000 OA
BRANCH  24  25
ATOM     25  C   UNL     1       0.463  11.805  20.377  0.00  0.00    +0.000 A 
ATOM     26  C   UNL     1      -0.444  12.454  19.556  0.00  0.00    +0.000 A 
ATOM     27  C   UNL     1      -0.263  13.817  19.322  0.00  0.00    +0.000 A 
ATOM     28  C   UNL     1       0.809  14.489  19.918  0.00  0.00    +0.000 A 
ATOM     29  C   UNL     1       1.672  13.743  20.707  0.00  0.00    +0.000 A 
ATOM     30  N   UNL     1       1.534  12.419  20.931  0.00  0.00    +0.000 NA
BRANCH  28  31
ATOM     31  C   UNL     1       1.073  15.945  19.689  0.00  0.00    +0.000 C 
ATOM     32  F   UNL     1       1.001  16.685  20.830  0.00  0.00    +0.000 F 
ATOM     33  F   UNL     1       2.309  16.185  19.171  0.00  0.00    +0.000 F 
ENDBRANCH  28  31
ENDBRANCH  24  25
ENDBRANCH   6  24
TORSDOF 9
ENDMDL
MODEL 2
REMARK VINA RESULT:      -7.8      1.012      1.264
REMARK  Name = 
REMARK  11 active torsions:
REMARK  status: ('A' for Active; 'I' for Inactive)
REMARK    1  A    between atoms: C_1  and  O_2
REMARK    2  A    between atoms: O_2  and  C_3
REMARK    3  A    between atoms: C_3  and  C_4
REMARK    4  A    between atoms: C_4  and  N_5
REMARK    5  A    between atoms: C_6  and  C_8
REMARK    6  A    between atoms: C_8  and  N_9
REMARK    7  A    between atoms: N_9  and  C_10
REMARK    8  A    between atoms: C_11  and  C_13
REMARK    9  A    between atoms: C_18  and  O_19
REMARK   10  A    between atoms: O_19  and  C_20
REMARK   11  A    between atoms: C_23  and  C_24
REMARK                            x       y       z     vdW  Elec       q    Type
REMARK                         _______ _______ _______ _____ _____    ______ ____
ROOT
ATOM      1  C   UNL     1       3.875   5.369  18.207  0.00  0.00    +0.000 A 
ATOM      2  C   UNL     1       3.618   4.867  19.477  0.00  0.00    +0.000 A 
ATOM      3  C   UNL     1       2.793   5.609  20.326  0.00  0.00    +0.000 A 
ATOM      4  C   UNL     1       2.264   6.836  19.892  0.00  0.00    +0.000 A 
ATOM      5  C   UNL     1       1.464   7.669  20.704  0.00  0.00    +0.000 A 
ATOM      6  C   UNL     1       1.001   8.893  20.215  0.00  0.00    +0.000 A 
ATOM      7  C   UNL     1       1.380   9.311  18.940  0.00  0.00    +0.000 A 
ATOM      8  C   UNL     1       2.135   8.471  18.129  0.00  0.00    +0.000 A 
ATOM      9  C   UNL     1       2.576   7.242  18.578  0.00  0.00    +0.000 A 
ATOM     10  N   UNL     1       3.329   6.516  17.750  0.00  0.00    +0.000 NA
ENDROOT
BRANCH   1  13
ATOM     11  N   UNL     1       6.117   5.227  17.055  0.00  0.00    +0.000 N 
ATOM     12  C   UNL     1       6.595   6.476  17.641  0.00  0.00    +0.000 C 
ATOM     13  C   UNL     1       4.849   4.668  17.298  0.00  0.00    +0.000 C 
ATOM     14  O   UNL     1       4.511   3.587  16.813  0.00  0.00    +0.000 OA
BRANCH  11  15
ATOM     15  C   UNL     1       7.095   4.452  16.288  0.00  0.00    +0.000 C 
BRANCH  15  17
ATOM     16  N   UNL     1       6.390   3.619  14.059  0.00  0.00    +0.000 N 
ATOM     17  C   UNL     1       7.067   4.589  14.761  0.00  0.00    +0.000 C 
ATOM     18  O   UNL     1       7.748   5.447  14.195  0.00  0.00    +0.000 OA
ATOM     19  H   UNL     1       5.731   3.029  14.555  0.00  0.00    +0.000 HD
BRANCH  16  20
ATOM     20  C   UNL     1       6.360   3.667  12.606  0.00  0.00    +0.000 C 
BRANCH  20  21
ATOM     21  C   UNL     1       5.190   2.909  11.986  0.00  0.00    +0.000 C 
BRANCH  21  23
ATOM     22  C   UNL     1       3.315   3.150  10.577  0.00  0.00    +0.000 C 
ATOM     23  O   UNL     1       4.344   3.826  11.288  0.00  0.00    +0.000 OA
ENDBRANCH  21  23
ENDBRANCH  20  21
ENDBRANCH  16  20
ENDBRANCH  15  17
ENDBRANCH  11  15
ENDBRANCH   1  13
BRANCH   6  24
ATOM     24  O   UNL     1       0.237   9.667  21.061  0.00  0.00    +0.000 OA
BRANCH  24  25
ATOM     25  C   UNL     1       0.100  11.019  20.756  0.00  0.00    +0.000 A 
ATOM     26  C   UNL     1      -1.008  11.386  20.012  0.00  0.00    +0.000 A 
ATOM     27  C   UNL     1      -1.179  12.736  19.705  0.00  0.00    +0.000 A 
ATOM     28  C   UNL     1      -0.245  13.674  20.155  0.00  0.00    +0.000 A 
ATOM     29  C   UNL     1       0.841  13.201  20.875  0.00  0.00    +0.000 A 
ATOM     30  N   UNL     1       1.043  11.898  21.165  0.00  0.00    +0.000 NA
BRANCH  28  31
ATOM     31  C   UNL     1      -0.356  15.134  19.840  0.00  0.00    +0.000 C 
ATOM     32  F   UNL     1      -1.602  15.634  20.068  0.00  0.00    +0.000 F 
ATOM     33  F   UNL     1       0.490  15.904  20.579  0.00  0.00    +0.000 F 
ENDBRANCH  28  31
ENDBRANCH  24  25
ENDBRANCH   6  24
TORSDOF 9
ENDMDL
MODEL 3
REMARK VINA RESULT:      -7.7      3.952      5.444
REMARK  Name = 
REMARK  11 active torsions:
REMARK  status: ('A' for Active; 'I' for Inactive)
REMARK    1  A    between atoms: C_1  and  O_2
REMARK    2  A    between atoms: O_2  and  C_3
REMARK    3  A    between atoms: C_3  and  C_4
REMARK    4  A    between atoms: C_4  and  N_5
REMARK    5  A    between atoms: C_6  and  C_8
REMARK    6  A    between atoms: C_8  and  N_9
REMARK    7  A    between atoms: N_9  and  C_10
REMARK    8  A    between atoms: C_11  and  C_13
REMARK    9  A    between atoms: C_18  and  O_19
REMARK   10  A    between atoms: O_19  and  C_20
REMARK   11  A    between atoms: C_23  and  C_24
REMARK                            x       y       z     vdW  Elec       q    Type
REMARK                         _______ _______ _______ _____ _____    ______ ____
ROOT
ATOM      1  C   UNL     1       2.303   7.187  18.376  0.00  0.00    +0.000 A 
ATOM      2  C   UNL     1       2.241   8.281  17.522  0.00  0.00    +0.000 A 
ATOM      3  C   UNL     1       1.834   9.508  18.051  0.00  0.00    +0.000 A 
ATOM      4  C   UNL     1       1.486   9.606  19.408  0.00  0.00    +0.000 A 
ATOM      5  C   UNL     1       1.018  10.795  20.007  0.00  0.00    +0.000 A 
ATOM      6  C   UNL     1       0.657  10.808  21.357  0.00  0.00    +0.000 A 
ATOM      7  C   UNL     1       0.710   9.625  22.093  0.00  0.00    +0.000 A 
ATOM      8  C   UNL     1       1.207   8.465  21.510  0.00  0.00    +0.000 A 
ATOM      9  C   UNL     1       1.602   8.436  20.187  0.00  0.00    +0.000 A 
ATOM     10  N   UNL     1       2.030   7.272  19.696  0.00  0.00    +0.000 NA
ENDROOT
BRANCH   1  13
ATOM     11  N   UNL     1       3.954   5.465  17.548  0.00  0.00    +0.000 N 
ATOM     12  C   UNL     1       5.103   6.343  17.750  0.00  0.00    +0.000 C 
ATOM     13  C   UNL     1       2.623   5.819  17.834  0.00  0.00    +0.000 C 
ATOM     14  O   UNL     1       1.693   5.024  17.688  0.00  0.00    +0.000 OA
BRANCH  11  15
ATOM     15  C   UNL     1       4.250   4.083  17.164  0.00  0.00    +0.000 C 
BRANCH  15  17
ATOM     16  N   UNL     1       4.371   3.175  19.471  0.00  0.00    +0.000 N 
ATOM     17  C   UNL     1       3.931   2.981  18.182  0.00  0.00    +0.000 C 
ATOM     18  O   UNL     1       3.438   1.912  17.816  0.00  0.00    +0.000 OA
ATOM     19  H   UNL     1       4.633   4.111  19.761  0.00  0.00    +0.000 HD
BRANCH  16  20
ATOM     20  C   UNL     1       4.137   2.151  20.476  0.00  0.00    +0.000 C 
BRANCH  20  21
ATOM     21  C   UNL     1       2.982   2.464  21.422  0.00  0.00    +0.000 C 
BRANCH  21  23
ATOM     22  C   UNL     1       1.044   3.541  20.622  0.00  0.00    +0.000 C 
ATOM     23  O   UNL     1       1.742   2.307  20.728  0.00  0.00    +0.000 OA
ENDBRANCH  21  23
ENDBRANCH  20  21
ENDBRANCH  16  20
ENDBRANCH  15  17
ENDBRANCH  11  15
ENDBRANCH   1  13
BRANCH   6  24
ATOM     24  O   UNL     1       0.195  11.996  21.880  0.00  0.00    +0.000 OA
BRANCH  24  25
ATOM     25  C   UNL     1      -1.181  12.204  21.897  0.00  0.00    +0.000 A 
ATOM     26  C   UNL     1      -1.822  12.070  23.117  0.00  0.00    +0.000 A 
ATOM     27  C   UNL     1      -3.199  12.288  23.167  0.00  0.00    +0.000 A 
ATOM     28  C   UNL     1      -3.889  12.640  22.002  0.00  0.00    +0.000 A 
ATOM     29  C   UNL     1      -3.158  12.729  20.828  0.00  0.00    +0.000 A 
ATOM     30  N   UNL     1      -1.830  12.499  20.747  0.00  0.00    +0.000 NA
BRANCH  28  31
ATOM     31  C   UNL     1      -5.370  12.865  21.982  0.00  0.00    +0.000 C 
ATOM     32  F   UNL     1      -6.017  12.067  21.088  0.00  0.00    +0.000 F 
ATOM     33  F   UNL     1      -5.960  12.624  23.186  0.00  0.00    +0.000 F 
ENDBRANCH  28  31
ENDBRANCH  24  25
ENDBRANCH   6  24
TORSDOF 9
ENDMDL
MODEL 4
REMARK VINA RESULT:      -7.6      2.827      3.277
REMARK  Name = 
REMARK  11 active torsions:
REMARK  status: ('A' for Active; 'I' for Inactive)
REMARK    1  A    between atoms: C_1  and  O_2
REMARK    2  A    between atoms: O_2  and  C_3
REMARK    3  A    between atoms: C_3  and  C_4
REMARK    4  A    between atoms: C_4  and  N_5
REMARK    5  A    between atoms: C_6  and  C_8
REMARK    6  A    between atoms: C_8  and  N_9
REMARK    7  A    between atoms: N_9  and  C_10
REMARK    8  A    between atoms: C_11  and  C_13
REMARK    9  A    between atoms: C_18  and  O_19
REMARK   10  A    between atoms: O_19  and  C_20
REMARK   11  A    between atoms: C_23  and  C_24
REMARK                            x       y       z     vdW  Elec       q    Type
REMARK                         _______ _______ _______ _____ _____    ______ ____
ROOT
ATOM      1  C   UNL     1       3.659   5.773  18.530  0.00  0.00    +0.000 A 
ATOM      2  C   UNL     1       3.147   5.490  19.790  0.00  0.00    +0.000 A 
ATOM      3  C   UNL     1       2.285   6.419  20.377  0.00  0.00    +0.000 A 
ATOM      4  C   UNL     1       1.972   7.610  19.699  0.00  0.00    +0.000 A 
ATOM      5  C   UNL     1       1.151   8.621  20.243  0.00  0.00    +0.000 A 
ATOM      6  C   UNL     1       0.911   9.794  19.524  0.00  0.00    +0.000 A 
ATOM      7  C   UNL     1       1.533   9.983  18.290  0.00  0.00    +0.000 A 
ATOM      8  C   UNL     1       2.310   8.969  17.741  0.00  0.00    +0.000 A 
ATOM      9  C   UNL     1       2.534   7.786  18.418  0.00  0.00    +0.000 A 
ATOM     10  N   UNL     1       3.324   6.883  17.837  0.00  0.00    +0.000 NA
ENDROOT
BRANCH   1  13
ATOM     11  N   UNL     1       5.398   5.279  16.768  0.00  0.00    +0.000 N 
ATOM     12  C   UNL     1       5.236   6.578  16.120  0.00  0.00    +0.000 C 
ATOM     13  C   UNL     1       4.681   4.862  17.904  0.00  0.00    +0.000 C 
ATOM     14  O   UNL     1       4.888   3.772  18.439  0.00  0.00    +0.000 OA
BRANCH  11  15
ATOM     15  C   UNL     1       6.488   4.435  16.271  0.00  0.00    +0.000 C 
BRANCH  15  17
ATOM     16  N   UNL     1       6.148   3.630  13.949  0.00  0.00    +0.000 N 
ATOM     17  C   UNL     1       6.813   4.507  14.775  0.00  0.00    +0.000 C 
ATOM     18  O   UNL     1       7.737   5.214  14.366  0.00  0.00    +0.000 OA
ATOM     19  H   UNL     1       5.307   3.180  14.292  0.00  0.00    +0.000 HD
BRANCH  16  20
ATOM     20  C   UNL     1       6.441   3.617  12.524  0.00  0.00    +0.000 C 
BRANCH  20  21
ATOM     21  C   UNL     1       5.710   2.522  11.753  0.00  0.00    +0.000 C 
BRANCH  21  23
ATOM     22  C   UNL     1       6.137   0.276  11.178  0.00  0.00    +0.000 C 
ATOM     23  O   UNL     1       6.662   1.596  11.223  0.00  0.00    +0.000 OA
ENDBRANCH  21  23
ENDBRANCH  20  21
ENDBRANCH  16  20
ENDBRANCH  15  17
ENDBRANCH  11  15
ENDBRANCH   1  13
BRANCH   6  24
ATOM     24  O   UNL     1       0.112  10.749  20.114  0.00  0.00    +0.000 OA
BRANCH  24  25
ATOM     25  C   UNL     1      -1.129  11.003  19.536  0.00  0.00    +0.000 A 
ATOM     26  C   UNL     1      -1.498  10.208  18.465  0.00  0.00    +0.000 A 
ATOM     27  C   UNL     1      -2.743  10.430  17.877  0.00  0.00    +0.000 A 
ATOM     28  C   UNL     1      -3.581  11.431  18.380  0.00  0.00    +0.000 A 
ATOM     29  C   UNL     1      -3.109  12.185  19.444  0.00  0.00    +0.000 A 
ATOM     30  N   UNL     1      -1.899  12.007  20.015  0.00  0.00    +0.000 NA
BRANCH  28  31
ATOM     31  C   UNL     1      -4.919  11.736  17.780  0.00  0.00    +0.000 C 
ATOM     32  F   UNL     1      -4.859  11.971  16.440  0.00  0.00    +0.000 F 
ATOM     33  F   UNL     1      -5.815  10.723  17.938  0.00  0.00    +0.000 F 
ENDBRANCH  28  31
ENDBRANCH  24  25
ENDBRANCH   6  24
TORSDOF 9
ENDMDL
MODEL 5
REMARK VINA RESULT:      -7.5      3.649      4.915
REMARK  Name = 
REMARK  11 active torsions:
REMARK  status: ('A' for Active; 'I' for Inactive)
REMARK    1  A    between atoms: C_1  and  O_2
REMARK    2  A    between atoms: O_2  and  C_3
REMARK    3  A    between atoms: C_3  and  C_4
REMARK    4  A    between atoms: C_4  and  N_5
REMARK    5  A    between atoms: C_6  and  C_8
REMARK    6  A    between atoms: C_8  and  N_9
REMARK    7  A    between atoms: N_9  and  C_10
REMARK    8  A    between atoms: C_11  and  C_13
REMARK    9  A    between atoms: C_18  and  O_19
REMARK   10  A    between atoms: O_19  and  C_20
REMARK   11  A    between atoms: C_23  and  C_24
REMARK                            x       y       z     vdW  Elec       q    Type
REMARK                         _______ _______ _______ _____ _____    ______ ____
ROOT
ATOM      1  C   UNL     1       2.708   7.138  19.153  0.00  0.00    +0.000 A 
ATOM      2  C   UNL     1       2.835   7.767  17.921  0.00  0.00    +0.000 A 
ATOM      3  C   UNL     1       2.117   8.946  17.705  0.00  0.00    +0.000 A 
ATOM      4  C   UNL     1       1.281   9.452  18.715  0.00  0.00    +0.000 A 
ATOM      5  C   UNL     1       0.485  10.608  18.558  0.00  0.00    +0.000 A 
ATOM      6  C   UNL     1      -0.348  11.033  19.596  0.00  0.00    +0.000 A 
ATOM      7  C   UNL     1      -0.430  10.277  20.765  0.00  0.00    +0.000 A 
ATOM      8  C   UNL     1       0.384   9.162  20.930  0.00  0.00    +0.000 A 
ATOM      9  C   UNL     1       1.241   8.741  19.932  0.00  0.00    +0.000 A 
ATOM     10  N   UNL     1       1.957   7.639  20.157  0.00  0.00    +0.000 NA
ENDROOT
BRANCH   1  13
ATOM     11  N   UNL     1       2.633   4.616  19.240  0.00  0.00    +0.000 N 
ATOM     12  C   UNL     1       1.231   4.557  18.838  0.00  0.00    +0.000 C 
ATOM     13  C   UNL     1       3.367   5.806  19.395  0.00  0.00    +0.000 C 
ATOM     14  O   UNL     1       4.563   5.799  19.693  0.00  0.00    +0.000 OA
BRANCH  11  15
ATOM     15  C   UNL     1       3.338   3.335  19.337  0.00  0.00    +0.000 C 
BRANCH  15  17
ATOM     16  N   UNL     1       4.851   3.750  17.415  0.00  0.00    +0.000 N 
ATOM     17  C   UNL     1       4.075   2.836  18.088  0.00  0.00    +0.000 C 
ATOM     18  O   UNL     1       3.853   1.710  17.636  0.00  0.00    +0.000 OA
ATOM     19  H   UNL     1       5.123   4.603  17.891  0.00  0.00    +0.000 HD
BRANCH  16  20
ATOM     20  C   UNL     1       5.544   3.353  16.199  0.00  0.00    +0.000 C 
BRANCH  20  21
ATOM     21  C   UNL     1       6.543   4.388  15.690  0.00  0.00    +0.000 C 
BRANCH  21  23
ATOM     22  C   UNL     1       5.739   3.947  13.519  0.00  0.00    +0.000 C 
ATOM     23  O   UNL     1       6.893   4.087  14.337  0.00  0.00    +0.000 OA
ENDBRANCH  21  23
ENDBRANCH  20  21
ENDBRANCH  16  20
ENDBRANCH  15  17
ENDBRANCH  11  15
ENDBRANCH   1  13
BRANCH   6  24
ATOM     24  O   UNL     1      -1.111  12.159  19.377  0.00  0.00    +0.000 OA
BRANCH  24  25
ATOM     25  C   UNL     1      -2.475  11.986  19.157  0.00  0.00    +0.000 A 
ATOM     26  C   UNL     1      -2.844  11.262  18.036  0.00  0.00    +0.000 A 
ATOM     27  C   UNL     1      -4.203  11.059  17.799  0.00  0.00    +0.000 A 
ATOM     28  C   UNL     1      -5.148  11.577  18.691  0.00  0.00    +0.000 A 
ATOM     29  C   UNL     1      -4.676  12.304  19.773  0.00  0.00    +0.000 A 
ATOM     30  N   UNL     1      -3.368  12.536  20.012  0.00  0.00    +0.000 NA
BRANCH  28  31
ATOM     31  C   UNL     1      -6.623  11.416  18.483  0.00  0.00    +0.000 C 
ATOM     32  F   UNL     1      -7.050  11.922  17.293  0.00  0.00    +0.000 F 
ATOM     33  F   UNL     1      -7.022  10.114  18.494  0.00  0.00    +0.000 F 
ENDBRANCH  28  31
ENDBRANCH  24  25
ENDBRANCH   6  24
TORSDOF 9
ENDMDL
MODEL 6
REMARK VINA RESULT:      -7.4      3.883      5.435
REMARK  Name = 
REMARK  11 active torsions:
REMARK  status: ('A' for Active; 'I' for Inactive)
REMARK    1  A    between atoms: C_1  and  O_2
REMARK    2  A    between atoms: O_2  and  C_3
REMARK    3  A    between atoms: C_3  and  C_4
REMARK    4  A    between atoms: C_4  and  N_5
REMARK    5  A    between atoms: C_6  and  C_8
REMARK    6  A    between atoms: C_8  and  N_9
REMARK    7  A    between atoms: N_9  and  C_10
REMARK    8  A    between atoms: C_11  and  C_13
REMARK    9  A    between atoms: C_18  and  O_19
REMARK   10  A    between atoms: O_19  and  C_20
REMARK   11  A    between atoms: C_23  and  C_24
REMARK                            x       y       z     vdW  Elec       q    Type
REMARK                         _______ _______ _______ _____ _____    ______ ____
ROOT
ATOM      1  C   UNL     1       2.254   7.623  18.540  0.00  0.00    +0.000 A 
ATOM      2  C   UNL     1       2.150   8.716  17.688  0.00  0.00    +0.000 A 
ATOM      3  C   UNL     1       1.644   9.911  18.207  0.00  0.00    +0.000 A 
ATOM      4  C   UNL     1       1.240   9.976  19.551  0.00  0.00    +0.000 A 
ATOM      5  C   UNL     1       0.673  11.128  20.137  0.00  0.00    +0.000 A 
ATOM      6  C   UNL     1       0.263  11.108  21.472  0.00  0.00    +0.000 A 
ATOM      7  C   UNL     1       0.367   9.925  22.205  0.00  0.00    +0.000 A 
ATOM      8  C   UNL     1       0.961   8.805  21.636  0.00  0.00    +0.000 A 
ATOM      9  C   UNL     1       1.405   8.811  20.328  0.00  0.00    +0.000 A 
ATOM     10  N   UNL     1       1.927   7.681  19.848  0.00  0.00    +0.000 NA
ENDROOT
BRANCH   1  13
ATOM     11  N   UNL     1       3.975   6.116  17.471  0.00  0.00    +0.000 N 
ATOM     12  C   UNL     1       4.981   7.170  17.400  0.00  0.00    +0.000 C 
ATOM     13  C   UNL     1       2.683   6.283  18.004  0.00  0.00    +0.000 C 
ATOM     14  O   UNL     1       1.886   5.347  18.082  0.00  0.00    +0.000 OA
BRANCH  11  15
ATOM     15  C   UNL     1       4.414   4.769  17.096  0.00  0.00    +0.000 C 
BRANCH  15  17
ATOM     16  N   UNL     1       3.771   2.904  18.600  0.00  0.00    +0.000 N 
ATOM     17  C   UNL     1       4.752   3.793  18.228  0.00  0.00    +0.000 C 
ATOM     18  O   UNL     1       5.801   3.910  18.867  0.00  0.00    +0.000 OA
ATOM     19  H   UNL     1       2.996   2.739  17.967  0.00  0.00    +0.000 HD
BRANCH  16  20
ATOM     20  C   UNL     1       4.012   1.978  19.696  0.00  0.00    +0.000 C 
BRANCH  20  21
ATOM     21  C   UNL     1       3.486   2.463  21.043  0.00  0.00    +0.000 C 
BRANCH  21  23
ATOM     22  C   UNL     1       1.177   2.941  21.008  0.00  0.00    +0.000 C 
ATOM     23  O   UNL     1       2.487   3.465  20.832  0.00  0.00    +0.000 OA
ENDBRANCH  21  23
ENDBRANCH  20  21
ENDBRANCH  16  20
ENDBRANCH  15  17
ENDBRANCH  11  15
ENDBRANCH   1  13
BRANCH   6  24
ATOM     24  O   UNL     1      -0.296  12.258  21.983  0.00  0.00    +0.000 OA
BRANCH  24  25
ATOM     25  C   UNL     1      -1.682  12.382  21.936  0.00  0.00    +0.000 A 
ATOM     26  C   UNL     1      -2.358  12.345  23.144  0.00  0.00    +0.000 A 
ATOM     27  C   UNL     1      -3.746  12.482  23.128  0.00  0.00    +0.000 A 
ATOM     28  C   UNL     1      -4.413  12.659  21.911  0.00  0.00    +0.000 A 
ATOM     29  C   UNL     1      -3.646  12.661  20.756  0.00  0.00    +0.000 A 
ATOM     30  N   UNL     1      -2.305  12.506  20.741  0.00  0.00    +0.000 NA
BRANCH  28  31
ATOM     31  C   UNL     1      -5.902  12.788  21.822  0.00  0.00    +0.000 C 
ATOM     32  F   UNL     1      -6.302  13.969  21.274  0.00  0.00    +0.000 F 
ATOM     33  F   UNL     1      -6.475  11.815  21.061  0.00  0.00    +0.000 F 
ENDBRANCH  28  31
ENDBRANCH  24  25
ENDBRANCH   6  24
TORSDOF 9
ENDMDL
MODEL 7
REMARK VINA RESULT:      -7.4      3.417      4.659
REMARK  Name = 
REMARK  11 active torsions:
REMARK  status: ('A' for Active; 'I' for Inactive)
REMARK    1  A    between atoms: C_1  and  O_2
REMARK    2  A    between atoms: O_2  and  C_3
REMARK    3  A    between atoms: C_3  and  C_4
REMARK    4  A    between atoms: C_4  and  N_5
REMARK    5  A    between atoms: C_6  and  C_8
REMARK    6  A    between atoms: C_8  and  N_9
REMARK    7  A    between atoms: N_9  and  C_10
REMARK    8  A    between atoms: C_11  and  C_13
REMARK    9  A    between atoms: C_18  and  O_19
REMARK   10  A    between atoms: O_19  and  C_20
REMARK   11  A    between atoms: C_23  and  C_24
REMARK                            x       y       z     vdW  Elec       q    Type
REMARK                         _______ _______ _______ _____ _____    ______ ____
ROOT
ATOM      1  C   UNL     1       2.287   6.724  19.828  0.00  0.00    +0.000 A 
ATOM      2  C   UNL     1       1.535   6.757  20.996  0.00  0.00    +0.000 A 
ATOM      3  C   UNL     1       0.723   7.870  21.226  0.00  0.00    +0.000 A 
ATOM      4  C   UNL     1       0.698   8.924  20.297  0.00  0.00    +0.000 A 
ATOM      5  C   UNL     1      -0.056  10.104  20.479  0.00  0.00    +0.000 A 
ATOM      6  C   UNL     1      -0.005  11.125  19.527  0.00  0.00    +0.000 A 
ATOM      7  C   UNL     1       0.838  10.994  18.424  0.00  0.00    +0.000 A 
ATOM      8  C   UNL     1       1.549   9.815  18.229  0.00  0.00    +0.000 A 
ATOM      9  C   UNL     1       1.488   8.777  19.139  0.00  0.00    +0.000 A 
ATOM     10  N   UNL     1       2.233   7.698  18.895  0.00  0.00    +0.000 NA
ENDROOT
BRANCH   1  13
ATOM     11  N   UNL     1       2.799   4.324  19.236  0.00  0.00    +0.000 N 
ATOM     12  C   UNL     1       1.392   3.974  19.068  0.00  0.00    +0.000 C 
ATOM     13  C   UNL     1       3.265   5.605  19.588  0.00  0.00    +0.000 C 
ATOM     14  O   UNL     1       4.467   5.859  19.673  0.00  0.00    +0.000 OA
BRANCH  11  15
ATOM     15  C   UNL     1       3.775   3.296  18.864  0.00  0.00    +0.000 C 
BRANCH  15  17
ATOM     16  N   UNL     1       6.038   3.967  18.099  0.00  0.00    +0.000 N 
ATOM     17  C   UNL     1       4.757   3.628  17.734  0.00  0.00    +0.000 C 
ATOM     18  O   UNL     1       4.363   3.729  16.570  0.00  0.00    +0.000 OA
ATOM     19  H   UNL     1       6.358   3.730  19.033  0.00  0.00    +0.000 HD
BRANCH  16  20
ATOM     20  C   UNL     1       7.008   4.333  17.079  0.00  0.00    +0.000 C 
BRANCH  20  21
ATOM     21  C   UNL     1       6.993   5.814  16.714  0.00  0.00    +0.000 C 
BRANCH  21  23
ATOM     22  C   UNL     1       6.982   4.722  14.625  0.00  0.00    +0.000 C 
ATOM     23  O   UNL     1       6.794   5.956  15.305  0.00  0.00    +0.000 OA
ENDBRANCH  21  23
ENDBRANCH  20  21
ENDBRANCH  16  20
ENDBRANCH  15  17
ENDBRANCH  11  15
ENDBRANCH   1  13
BRANCH   6  24
ATOM     24  O   UNL     1      -0.752  12.257  19.769  0.00  0.00    +0.000 OA
BRANCH  24  25
ATOM     25  C   UNL     1      -2.119  12.198  19.512  0.00  0.00    +0.000 A 
ATOM     26  C   UNL     1      -2.962  12.727  20.475  0.00  0.00    +0.000 A 
ATOM     27  C   UNL     1      -4.336  12.697  20.237  0.00  0.00    +0.000 A 
ATOM     28  C   UNL     1      -4.823  12.148  19.047  0.00  0.00    +0.000 A 
ATOM     29  C   UNL     1      -3.897  11.626  18.157  0.00  0.00    +0.000 A 
ATOM     30  N   UNL     1      -2.564  11.621  18.373  0.00  0.00    +0.000 NA
BRANCH  28  31
ATOM     31  C   UNL     1      -6.287  12.062  18.741  0.00  0.00    +0.000 C 
ATOM     32  F   UNL     1      -6.826  10.851  19.053  0.00  0.00    +0.000 F 
ATOM     33  F   UNL     1      -7.026  12.981  19.420  0.00  0.00    +0.000 F 
ENDBRANCH  28  31
ENDBRANCH  24  25
ENDBRANCH   6  24
TORSDOF 9
ENDMDL
MODEL 8
REMARK VINA RESULT:      -7.4      4.551     11.018
REMARK  Name = 
REMARK  11 active torsions:
REMARK  status: ('A' for Active; 'I' for Inactive)
REMARK    1  A    between atoms: C_1  and  O_2
REMARK    2  A    between atoms: O_2  and  C_3
REMARK    3  A    between atoms: C_3  and  C_4
REMARK    4  A    between atoms: C_4  and  N_5
REMARK    5  A    between atoms: C_6  and  C_8
REMARK    6  A    between atoms: C_8  and  N_9
REMARK    7  A    between atoms: N_9  and  C_10
REMARK    8  A    between atoms: C_11  and  C_13
REMARK    9  A    between atoms: C_18  and  O_19
REMARK   10  A    between atoms: O_19  and  C_20
REMARK   11  A    between atoms: C_23  and  C_24
REMARK                            x       y       z     vdW  Elec       q    Type
REMARK                         _______ _______ _______ _____ _____    ______ ____
ROOT
ATOM      1  C   UNL     1       0.958  10.095  19.280  0.00  0.00    +0.000 A 
ATOM      2  C   UNL     1       1.686  10.008  18.100  0.00  0.00    +0.000 A 
ATOM      3  C   UNL     1       2.386   8.827  17.842  0.00  0.00    +0.000 A 
ATOM      4  C   UNL     1       2.352   7.775  18.774  0.00  0.00    +0.000 A 
ATOM      5  C   UNL     1       3.070   6.570  18.612  0.00  0.00    +0.000 A 
ATOM      6  C   UNL     1       3.016   5.582  19.598  0.00  0.00    +0.000 A 
ATOM      7  C   UNL     1       2.293   5.817  20.767  0.00  0.00    +0.000 A 
ATOM      8  C   UNL     1       1.557   6.988  20.905  0.00  0.00    +0.000 A 
ATOM      9  C   UNL     1       1.567   7.966  19.929  0.00  0.00    +0.000 A 
ATOM     10  N   UNL     1       0.865   9.076  20.160  0.00  0.00    +0.000 NA
ENDROOT
BRANCH   1  13
ATOM     11  N   UNL     1      -1.037  11.642  19.245  0.00  0.00    +0.000 N 
ATOM     12  C   UNL     1      -1.847  10.722  18.453  0.00  0.00    +0.000 C 
ATOM     13  C   UNL     1       0.283  11.386  19.660  0.00  0.00    +0.000 C 
ATOM     14  O   UNL     1       0.907  12.179  20.367  0.00  0.00    +0.000 OA
BRANCH  11  15
ATOM     15  C   UNL     1      -1.718  12.836  19.753  0.00  0.00    +0.000 C 
BRANCH  15  17
ATOM     16  N   UNL     1      -4.153  12.972  19.299  0.00  0.00    +0.000 N 
ATOM     17  C   UNL     1      -3.171  12.680  20.217  0.00  0.00    +0.000 C 
ATOM     18  O   UNL     1      -3.432  12.451  21.400  0.00  0.00    +0.000 OA
ATOM     19  H   UNL     1      -3.907  13.009  18.316  0.00  0.00    +0.000 HD
BRANCH  16  20
ATOM     20  C   UNL     1      -5.552  12.884  19.687  0.00  0.00    +0.000 C 
BRANCH  20  21
ATOM     21  C   UNL     1      -6.296  11.709  19.058  0.00  0.00    +0.000 C 
BRANCH  21  23
ATOM     22  C   UNL     1      -7.613  11.091  20.913  0.00  0.00    +0.000 C 
ATOM     23  O   UNL     1      -7.617  11.637  19.600  0.00  0.00    +0.000 OA
ENDBRANCH  21  23
ENDBRANCH  20  21
ENDBRANCH  16  20
ENDBRANCH  15  17
ENDBRANCH  11  15
ENDBRANCH   1  13
BRANCH   6  24
ATOM     24  O   UNL     1       3.749   4.435  19.389  0.00  0.00    +0.000 OA
BRANCH  24  25
ATOM     25  C   UNL     1       4.508   4.353  18.225  0.00  0.00    +0.000 A 
ATOM     26  C   UNL     1       3.864   3.901  17.085  0.00  0.00    +0.000 A 
ATOM     27  C   UNL     1       4.596   3.825  15.900  0.00  0.00    +0.000 A 
ATOM     28  C   UNL     1       5.941   4.208  15.888  0.00  0.00    +0.000 A 
ATOM     29  C   UNL     1       6.497   4.627  17.087  0.00  0.00    +0.000 A 
ATOM     30  N   UNL     1       5.819   4.688  18.253  0.00  0.00    +0.000 NA
BRANCH  28  31
ATOM     31  C   UNL     1       6.789   4.127  14.657  0.00  0.00    +0.000 C 
ATOM     32  F   UNL     1       6.063   3.913  13.524  0.00  0.00    +0.000 F 
ATOM     33  F   UNL     1       7.503   5.264  14.427  0.00  0.00    +0.000 F 
ENDBRANCH  28  31
ENDBRANCH  24  25
ENDBRANCH   6  24
TORSDOF 9
ENDMDL
MODEL 9
REMARK VINA RESULT:      -7.2      3.646      4.955
REMARK  Name = 
REMARK  11 active torsions:
REMARK  status: ('A' for Active; 'I' for Inactive)
REMARK    1  A    between atoms: C_1  and  O_2
REMARK    2  A    between atoms: O_2  and  C_3
REMARK    3  A    between atoms: C_3  and  C_4
REMARK    4  A    between atoms: C_4  and  N_5
REMARK    5  A    between atoms: C_6  and  C_8
REMARK    6  A    between atoms: C_8  and  N_9
REMARK    7  A    between atoms: N_9  and  C_10
REMARK    8  A    between atoms: C_11  and  C_13
REMARK    9  A    between atoms: C_18  and  O_19
REMARK   10  A    between atoms: O_19  and  C_20
REMARK   11  A    between atoms: C_23  and  C_24
REMARK                            x       y       z     vdW  Elec       q    Type
REMARK                         _______ _______ _______ _____ _____    ______ ____
ROOT
ATOM      1  C   UNL     1       2.664   7.185  19.179  0.00  0.00    +0.000 A 
ATOM      2  C   UNL     1       2.701   7.776  17.922  0.00  0.00    +0.000 A 
ATOM      3  C   UNL     1       1.949   8.935  17.716  0.00  0.00    +0.000 A 
ATOM      4  C   UNL     1       1.169   9.460  18.760  0.00  0.00    +0.000 A 
ATOM      5  C   UNL     1       0.343  10.596  18.618  0.00  0.00    +0.000 A 
ATOM      6  C   UNL     1      -0.431  11.041  19.693  0.00  0.00    +0.000 A 
ATOM      7  C   UNL     1      -0.425  10.322  20.888  0.00  0.00    +0.000 A 
ATOM      8  C   UNL     1       0.418   9.226  21.036  0.00  0.00    +0.000 A 
ATOM      9  C   UNL     1       1.219   8.788  19.999  0.00  0.00    +0.000 A 
ATOM     10  N   UNL     1       1.968   7.706  20.212  0.00  0.00    +0.000 NA
ENDROOT
BRANCH   1  13
ATOM     11  N   UNL     1       2.633   4.669  19.394  0.00  0.00    +0.000 N 
ATOM     12  C   UNL     1       1.200   4.578  19.132  0.00  0.00    +0.000 C 
ATOM     13  C   UNL     1       3.362   5.873  19.421  0.00  0.00    +0.000 C 
ATOM     14  O   UNL     1       4.580   5.891  19.602  0.00  0.00    +0.000 OA
BRANCH  11  15
ATOM     15  C   UNL     1       3.362   3.401  19.484  0.00  0.00    +0.000 C 
BRANCH  15  17
ATOM     16  N   UNL     1       4.937   3.732  17.596  0.00  0.00    +0.000 N 
ATOM     17  C   UNL     1       4.045   2.886  18.212  0.00  0.00    +0.000 C 
ATOM     18  O   UNL     1       3.691   1.824  17.695  0.00  0.00    +0.000 OA
ATOM     19  H   UNL     1       5.307   4.517  18.121  0.00  0.00    +0.000 HD
BRANCH  16  20
ATOM     20  C   UNL     1       5.589   3.321  16.362  0.00  0.00    +0.000 C 
BRANCH  20  21
ATOM     21  C   UNL     1       5.130   4.097  15.131  0.00  0.00    +0.000 C 
BRANCH  21  23
ATOM     22  C   UNL     1       7.308   4.932  14.792  0.00  0.00    +0.000 C 
ATOM     23  O   UNL     1       6.220   4.223  14.214  0.00  0.00    +0.000 OA
ENDBRANCH  21  23
ENDBRANCH  20  21
ENDBRANCH  16  20
ENDBRANCH  15  17
ENDBRANCH  11  15
ENDBRANCH   1  13
BRANCH   6  24
ATOM     24  O   UNL     1      -1.227  12.146  19.488  0.00  0.00    +0.000 OA
BRANCH  24  25
ATOM     25  C   UNL     1      -2.572  11.932  19.201  0.00  0.00    +0.000 A 
ATOM     26  C   UNL     1      -3.497  12.507  20.057  0.00  0.00    +0.000 A 
ATOM     27  C   UNL     1      -4.852  12.322  19.784  0.00  0.00    +0.000 A 
ATOM     28  C   UNL     1      -5.241  11.578  18.666  0.00  0.00    +0.000 A 
ATOM     29  C   UNL     1      -4.237  11.027  17.884  0.00  0.00    +0.000 A 
ATOM     30  N   UNL     1      -2.919  11.170  18.138  0.00  0.00    +0.000 NA
BRANCH  28  31
ATOM     31  C   UNL     1      -6.678  11.321  18.330  0.00  0.00    +0.000 C 
ATOM     32  F   UNL     1      -7.521  11.587  19.366  0.00  0.00    +0.000 F 
ATOM     33  F   UNL     1      -7.123  12.077  17.289  0.00  0.00    +0.000 F 
ENDBRANCH  28  31
ENDBRANCH  24  25
ENDBRANCH   6  24
TORSDOF 9
ENDMDL
