MODEL 1
REMARK VINA RESULT:      -7.1      0.000      0.000
REMARK  Name = 
REMARK  9 active torsions:
REMARK  status: ('A' for Active; 'I' for Inactive)
REMARK    1  A    between atoms: C_1  and  O_2
REMARK    2  A    between atoms: O_2  and  C_3
REMARK    3  A    between atoms: C_7  and  N_8
REMARK    4  A    between atoms: N_8  and  S_9
REMARK    5  A    between atoms: S_9  and  C_12
REMARK    6  A    between atoms: C_15  and  C_16
REMARK    7  A    between atoms: C_19  and  O_20
REMARK    8  A    between atoms: C_24  and  O_25
REMARK    9  A    between atoms: O_25  and  C_26
REMARK                            x       y       z     vdW  Elec       q    Type
REMARK                         _______ _______ _______ _____ _____    ______ ____
ROOT
ATOM      1  S   UNL     1       4.053   3.130  18.865  0.00  0.00    +0.000 S 
ATOM      2  O   UNL     1       4.328   3.411  20.257  0.00  0.00    +0.000 OA
ATOM      3  O   UNL     1       3.988   1.779  18.349  0.00  0.00    +0.000 OA
ENDROOT
BRANCH   1   4
ATOM      4  C   UNL     1       5.433   3.859  17.967  0.00  0.00    +0.000 A 
ATOM      5  C   UNL     1       6.517   4.597  18.431  0.00  0.00    +0.000 A 
ATOM      6  C   UNL     1       7.305   4.955  17.314  0.00  0.00    +0.000 A 
ATOM      7  C   UNL     1       6.671   4.433  16.205  0.00  0.00    +0.000 A 
ATOM      8  O   UNL     1       5.559   3.743  16.597  0.00  0.00    +0.000 OA
BRANCH   7   9
ATOM      9  C   UNL     1       6.922   4.524  14.776  0.00  0.00    +0.000 A 
ATOM     10  C   UNL     1       6.261   3.752  13.830  0.00  0.00    +0.000 A 
ATOM     11  C   UNL     1       6.487   4.007  12.480  0.00  0.00    +0.000 A 
ATOM     12  C   UNL     1       7.371   5.014  12.147  0.00  0.00    +0.000 A 
ATOM     13  N   UNL     1       8.035   5.725  13.074  0.00  0.00    +0.000 NA
ATOM     14  N   UNL     1       7.807   5.479  14.405  0.00  0.00    +0.000 NA
BRANCH  12  15
ATOM     15  O   UNL     1       7.603   5.359  10.848  0.00  0.00    +0.000 OA
ATOM     16  H   UNL     1       6.749   5.473  10.408  0.00  0.00    +0.000 HD
ENDBRANCH  12  15
ENDBRANCH   7   9
ENDBRANCH   1   4
BRANCH   1  17
ATOM     17  N   UNL     1       2.627   3.901  18.358  0.00  0.00    +0.000 N 
ATOM     18  H   UNL     1       1.893   3.190  18.454  0.00  0.00    +0.000 HD
BRANCH  17  23
ATOM     19  C   UNL     1       1.671   7.423  20.548  0.00  0.00    +0.000 A 
ATOM     20  C   UNL     1       1.270   6.177  21.033  0.00  0.00    +0.000 A 
ATOM     21  C   UNL     1       1.550   5.018  20.301  0.00  0.00    +0.000 A 
ATOM     22 CL   UNL     1       1.061   3.504  20.978  0.00  0.00    +0.000 Cl
ATOM     23  C   UNL     1       2.257   5.093  19.093  0.00  0.00    +0.000 A 
ATOM     24  C   UNL     1       2.615   6.352  18.575  0.00  0.00    +0.000 A 
ATOM     25  C   UNL     1       2.322   7.504  19.312  0.00  0.00    +0.000 A 
BRANCH  19  27
ATOM     26  C   UNL     1       0.658   9.579  20.547  0.00  0.00    +0.000 C 
ATOM     27  O   UNL     1       1.503   8.623  21.179  0.00  0.00    +0.000 OA
ENDBRANCH  19  27
BRANCH  24  28
ATOM     28  O   UNL     1       3.273   6.341  17.369  0.00  0.00    +0.000 OA
ATOM     29  C   UNL     1       4.351   7.262  17.216  0.00  0.00    +0.000 C 
ENDBRANCH  24  28
ENDBRANCH  17  23
ENDBRANCH   1  17
TORSDOF 7
ENDMDL
MODEL 2
REMARK VINA RESULT:      -6.9      3.722      6.233
REMARK  Name = 
REMARK  9 active torsions:
REMARK  status: ('A' for Active; 'I' for Inactive)
REMARK    1  A    between atoms: C_1  and  O_2
REMARK    2  A    between atoms: O_2  and  C_3
REMARK    3  A    between atoms: C_7  and  N_8
REMARK    4  A    between atoms: N_8  and  S_9
REMARK    5  A    between atoms: S_9  and  C_12
REMARK    6  A    between atoms: C_15  and  C_16
REMARK    7  A    between atoms: C_19  and  O_20
REMARK    8  A    between atoms: C_24  and  O_25
REMARK    9  A    between atoms: O_25  and  C_26
REMARK                            x       y       z     vdW  Elec       q    Type
REMARK                         _______ _______ _______ _____ _____    ______ ____
ROOT
ATOM      1  S   UNL     1       0.915   8.931  21.340  0.00  0.00    +0.000 S 
ATOM      2  O   UNL     1       1.704   9.158  22.530  0.00  0.00    +0.000 OA
ATOM      3  O   UNL     1      -0.500   8.632  21.397  0.00  0.00    +0.000 OA
ENDROOT
BRANCH   1   4
ATOM      4  C   UNL     1       1.627   7.458  20.589  0.00  0.00    +0.000 A 
ATOM      5  C   UNL     1       1.371   6.113  20.832  0.00  0.00    +0.000 A 
ATOM      6  C   UNL     1       2.214   5.353  19.989  0.00  0.00    +0.000 A 
ATOM      7  C   UNL     1       2.964   6.259  19.268  0.00  0.00    +0.000 A 
ATOM      8  O   UNL     1       2.590   7.530  19.602  0.00  0.00    +0.000 OA
BRANCH   7   9
ATOM      9  C   UNL     1       4.053   6.120  18.315  0.00  0.00    +0.000 A 
ATOM     10  C   UNL     1       4.063   6.728  17.067  0.00  0.00    +0.000 A 
ATOM     11  C   UNL     1       5.209   6.631  16.283  0.00  0.00    +0.000 A 
ATOM     12  C   UNL     1       6.282   5.922  16.785  0.00  0.00    +0.000 A 
ATOM     13  N   UNL     1       6.243   5.304  17.978  0.00  0.00    +0.000 NA
ATOM     14  N   UNL     1       5.115   5.405  18.754  0.00  0.00    +0.000 NA
BRANCH  12  15
ATOM     15  O   UNL     1       7.458   5.828  16.100  0.00  0.00    +0.000 OA
ATOM     16  H   UNL     1       7.417   5.045  15.533  0.00  0.00    +0.000 HD
ENDBRANCH  12  15
ENDBRANCH   7   9
ENDBRANCH   1   4
BRANCH   1  17
ATOM     17  N   UNL     1       1.084  10.217  20.242  0.00  0.00    +0.000 N 
ATOM     18  H   UNL     1       1.819   9.916  19.592  0.00  0.00    +0.000 HD
BRANCH  17  23
ATOM     19  C   UNL     1      -2.495  11.207  18.163  0.00  0.00    +0.000 A 
ATOM     20  C   UNL     1      -1.569  10.346  17.573  0.00  0.00    +0.000 A 
ATOM     21  C   UNL     1      -0.374  10.043  18.236  0.00  0.00    +0.000 A 
ATOM     22 CL   UNL     1       0.710   8.936  17.469  0.00  0.00    +0.000 Cl
ATOM     23  C   UNL     1      -0.109  10.577  19.504  0.00  0.00    +0.000 A 
ATOM     24  C   UNL     1      -1.016  11.490  20.076  0.00  0.00    +0.000 A 
ATOM     25  C   UNL     1      -2.203  11.791  19.400  0.00  0.00    +0.000 A 
BRANCH  19  27
ATOM     26  C   UNL     1      -4.003  11.131  16.319  0.00  0.00    +0.000 C 
ATOM     27  O   UNL     1      -3.714  11.551  17.648  0.00  0.00    +0.000 OA
ENDBRANCH  19  27
BRANCH  24  28
ATOM     28  O   UNL     1      -0.665  11.997  21.304  0.00  0.00    +0.000 OA
ATOM     29  C   UNL     1      -0.313  13.377  21.354  0.00  0.00    +0.000 C 
ENDBRANCH  24  28
ENDBRANCH  17  23
ENDBRANCH   1  17
TORSDOF 7
ENDMDL
MODEL 3
REMARK VINA RESULT:      -6.9      2.590      4.002
REMARK  Name = 
REMARK  9 active torsions:
REMARK  status: ('A' for Active; 'I' for Inactive)
REMARK    1  A    between atoms: C_1  and  O_2
REMARK    2  A    between atoms: O_2  and  C_3
REMARK    3  A    between atoms: C_7  and  N_8
REMARK    4  A    between atoms: N_8  and  S_9
REMARK    5  A    between atoms: S_9  and  C_12
REMARK    6  A    between atoms: C_15  and  C_16
REMARK    7  A    between atoms: C_19  and  O_20
REMARK    8  A    between atoms: C_24  and  O_25
REMARK    9  A    between atoms: O_25  and  C_26
REMARK                            x       y       z     vdW  Elec       q    Type
REMARK                         _______ _______ _______ _____ _____    ______ ____
ROOT
ATOM      1  S   UNL     1       1.915   5.586  20.444  0.00  0.00    +0.000 S 
ATOM      2  O   UNL     1       2.445   4.794  21.532  0.00  0.00    +0.000 OA
ATOM      3  O   UNL     1       0.493   5.766  20.242  0.00  0.00    +0.000 OA
ENDROOT
BRANCH   1   4
ATOM      4  C   UNL     1       2.450   4.735  18.950  0.00  0.00    +0.000 A 
ATOM      5  C   UNL     1       1.902   3.634  18.300  0.00  0.00    +0.000 A 
ATOM      6  C   UNL     1       2.715   3.345  17.181  0.00  0.00    +0.000 A 
ATOM      7  C   UNL     1       3.737   4.272  17.191  0.00  0.00    +0.000 A 
ATOM      8  O   UNL     1       3.563   5.133  18.237  0.00  0.00    +0.000 OA
BRANCH   7   9
ATOM      9  C   UNL     1       4.926   4.457  16.374  0.00  0.00    +0.000 A 
ATOM     10  C   UNL     1       5.240   3.657  15.285  0.00  0.00    +0.000 A 
ATOM     11  C   UNL     1       6.336   3.998  14.496  0.00  0.00    +0.000 A 
ATOM     12  C   UNL     1       7.066   5.116  14.846  0.00  0.00    +0.000 A 
ATOM     13  N   UNL     1       6.774   5.857  15.928  0.00  0.00    +0.000 NA
ATOM     14  N   UNL     1       5.689   5.525  16.701  0.00  0.00    +0.000 NA
BRANCH  12  15
ATOM     15  O   UNL     1       8.119   5.544  14.092  0.00  0.00    +0.000 OA
ATOM     16  H   UNL     1       7.805   5.688  13.188  0.00  0.00    +0.000 HD
ENDBRANCH  12  15
ENDBRANCH   7   9
ENDBRANCH   1   4
BRANCH   1  17
ATOM     17  N   UNL     1       2.596   7.143  20.436  0.00  0.00    +0.000 N 
ATOM     18  H   UNL     1       3.454   7.054  19.879  0.00  0.00    +0.000 HD
BRANCH  17  23
ATOM     19  C   UNL     1       0.037  10.151  18.849  0.00  0.00    +0.000 A 
ATOM     20  C   UNL     1       0.976   9.534  18.021  0.00  0.00    +0.000 A 
ATOM     21  C   UNL     1       1.844   8.569  18.543  0.00  0.00    +0.000 A 
ATOM     22 CL   UNL     1       2.954   7.814  17.454  0.00  0.00    +0.000 Cl
ATOM     23  C   UNL     1       1.762   8.194  19.892  0.00  0.00    +0.000 A 
ATOM     24  C   UNL     1       0.854   8.854  20.741  0.00  0.00    +0.000 A 
ATOM     25  C   UNL     1      -0.003   9.823  20.209  0.00  0.00    +0.000 A 
BRANCH  19  27
ATOM     26  C   UNL     1      -0.548  12.446  18.592  0.00  0.00    +0.000 C 
ATOM     27  O   UNL     1      -0.895  11.071  18.461  0.00  0.00    +0.000 OA
ENDBRANCH  19  27
BRANCH  24  28
ATOM     28  O   UNL     1       0.861   8.453  22.056  0.00  0.00    +0.000 OA
ATOM     29  C   UNL     1       0.228   9.318  22.995  0.00  0.00    +0.000 C 
ENDBRANCH  24  28
ENDBRANCH  17  23
ENDBRANCH   1  17
TORSDOF 7
ENDMDL
MODEL 4
REMARK VINA RESULT:      -6.9      2.629      6.410
REMARK  Name = 
REMARK  9 active torsions:
REMARK  status: ('A' for Active; 'I' for Inactive)
REMARK    1  A    between atoms: C_1  and  O_2
REMARK    2  A    between atoms: O_2  and  C_3
REMARK    3  A    between atoms: C_7  and  N_8
REMARK    4  A    between atoms: N_8  and  S_9
REMARK    5  A    between atoms: S_9  and  C_12
REMARK    6  A    between atoms: C_15  and  C_16
REMARK    7  A    between atoms: C_19  and  O_20
REMARK    8  A    between atoms: C_24  and  O_25
REMARK    9  A    between atoms: O_25  and  C_26
REMARK                            x       y       z     vdW  Elec       q    Type
REMARK                         _______ _______ _______ _____ _____    ______ ____
ROOT
ATOM      1  S   UNL     1       2.991   2.847  17.775  0.00  0.00    +0.000 S 
ATOM      2  O   UNL     1       2.218   3.128  16.586  0.00  0.00    +0.000 OA
ATOM      3  O   UNL     1       2.765   1.666  18.581  0.00  0.00    +0.000 OA
ENDROOT
BRANCH   1   4
ATOM      4  C   UNL     1       2.618   4.203  18.899  0.00  0.00    +0.000 A 
ATOM      5  C   UNL     1       2.349   4.190  20.263  0.00  0.00    +0.000 A 
ATOM      6  C   UNL     1       2.099   5.521  20.666  0.00  0.00    +0.000 A 
ATOM      7  C   UNL     1       2.214   6.301  19.534  0.00  0.00    +0.000 A 
ATOM      8  O   UNL     1       2.559   5.515  18.471  0.00  0.00    +0.000 OA
BRANCH   7   9
ATOM      9  C   UNL     1       1.993   7.713  19.267  0.00  0.00    +0.000 A 
ATOM     10  C   UNL     1       2.271   8.316  18.048  0.00  0.00    +0.000 A 
ATOM     11  C   UNL     1       1.906   9.646  17.858  0.00  0.00    +0.000 A 
ATOM     12  C   UNL     1       1.290  10.305  18.903  0.00  0.00    +0.000 A 
ATOM     13  N   UNL     1       1.063   9.721  20.091  0.00  0.00    +0.000 NA
ATOM     14  N   UNL     1       1.418   8.407  20.276  0.00  0.00    +0.000 NA
BRANCH  12  15
ATOM     15  O   UNL     1       0.854  11.592  18.775  0.00  0.00    +0.000 OA
ATOM     16  H   UNL     1       0.013  11.674  19.247  0.00  0.00    +0.000 HD
ENDBRANCH  12  15
ENDBRANCH   7   9
ENDBRANCH   1   4
BRANCH   1  17
ATOM     17  N   UNL     1       4.657   2.881  17.441  0.00  0.00    +0.000 N 
ATOM     18  H   UNL     1       4.756   2.402  16.539  0.00  0.00    +0.000 HD
BRANCH  17  23
ATOM     19  C   UNL     1       6.532   6.692  17.167  0.00  0.00    +0.000 A 
ATOM     20  C   UNL     1       6.398   6.075  18.412  0.00  0.00    +0.000 A 
ATOM     21  C   UNL     1       5.751   4.838  18.515  0.00  0.00    +0.000 A 
ATOM     22 CL   UNL     1       5.656   4.111  20.079  0.00  0.00    +0.000 Cl
ATOM     23  C   UNL     1       5.259   4.196  17.370  0.00  0.00    +0.000 A 
ATOM     24  C   UNL     1       5.344   4.841  16.121  0.00  0.00    +0.000 A 
ATOM     25  C   UNL     1       5.986   6.081  16.033  0.00  0.00    +0.000 A 
BRANCH  19  27
ATOM     26  C   UNL     1       8.075   8.345  17.917  0.00  0.00    +0.000 C 
ATOM     27  O   UNL     1       7.176   7.871  16.919  0.00  0.00    +0.000 OA
ENDBRANCH  19  27
BRANCH  24  28
ATOM     28  O   UNL     1       4.806   4.161  15.055  0.00  0.00    +0.000 OA
ATOM     29  C   UNL     1       5.622   4.035  13.894  0.00  0.00    +0.000 C 
ENDBRANCH  24  28
ENDBRANCH  17  23
ENDBRANCH   1  17
TORSDOF 7
ENDMDL
MODEL 5
REMARK VINA RESULT:      -6.9      4.829      7.615
REMARK  Name = 
REMARK  9 active torsions:
REMARK  status: ('A' for Active; 'I' for Inactive)
REMARK    1  A    between atoms: C_1  and  O_2
REMARK    2  A    between atoms: O_2  and  C_3
REMARK    3  A    between atoms: C_7  and  N_8
REMARK    4  A    between atoms: N_8  and  S_9
REMARK    5  A    between atoms: S_9  and  C_12
REMARK    6  A    between atoms: C_15  and  C_16
REMARK    7  A    between atoms: C_19  and  O_20
REMARK    8  A    between atoms: C_24  and  O_25
REMARK    9  A    between atoms: O_25  and  C_26
REMARK                            x       y       z     vdW  Elec       q    Type
REMARK                         _______ _______ _______ _____ _____    ______ ____
ROOT
ATOM      1  S   UNL     1       0.368  10.160  20.398  0.00  0.00    +0.000 S 
ATOM      2  O   UNL     1       1.254  10.684  21.413  0.00  0.00    +0.000 OA
ATOM      3  O   UNL     1      -0.799   9.368  20.726  0.00  0.00    +0.000 OA
ENDROOT
BRANCH   1   4
ATOM      4  C   UNL     1       1.387   9.030  19.435  0.00  0.00    +0.000 A 
ATOM      5  C   UNL     1       1.786   9.093  18.105  0.00  0.00    +0.000 A 
ATOM      6  C   UNL     1       2.563   7.945  17.832  0.00  0.00    +0.000 A 
ATOM      7  C   UNL     1       2.603   7.213  19.001  0.00  0.00    +0.000 A 
ATOM      8  O   UNL     1       1.923   7.880  19.980  0.00  0.00    +0.000 OA
BRANCH   7   9
ATOM      9  C   UNL     1       3.155   5.914  19.348  0.00  0.00    +0.000 A 
ATOM     10  C   UNL     1       2.467   4.959  20.083  0.00  0.00    +0.000 A 
ATOM     11  C   UNL     1       3.039   3.701  20.252  0.00  0.00    +0.000 A 
ATOM     12  C   UNL     1       4.276   3.469  19.685  0.00  0.00    +0.000 A 
ATOM     13  N   UNL     1       4.949   4.416  19.010  0.00  0.00    +0.000 NA
ATOM     14  N   UNL     1       4.382   5.654  18.838  0.00  0.00    +0.000 NA
BRANCH  12  15
ATOM     15  O   UNL     1       4.877   2.246  19.761  0.00  0.00    +0.000 OA
ATOM     16  H   UNL     1       4.217   1.571  19.548  0.00  0.00    +0.000 HD
ENDBRANCH  12  15
ENDBRANCH   7   9
ENDBRANCH   1   4
BRANCH   1  17
ATOM     17  N   UNL     1      -0.172  11.395  19.364  0.00  0.00    +0.000 N 
ATOM     18  H   UNL     1       0.082  11.080  18.420  0.00  0.00    +0.000 HD
BRANCH  17  23
ATOM     19  C   UNL     1      -4.321  12.343  19.421  0.00  0.00    +0.000 A 
ATOM     20  C   UNL     1      -3.491  12.810  20.442  0.00  0.00    +0.000 A 
ATOM     21  C   UNL     1      -2.132  12.473  20.449  0.00  0.00    +0.000 A 
ATOM     22 CL   UNL     1      -1.152  13.117  21.718  0.00  0.00    +0.000 Cl
ATOM     23  C   UNL     1      -1.589  11.691  19.420  0.00  0.00    +0.000 A 
ATOM     24  C   UNL     1      -2.434  11.174  18.420  0.00  0.00    +0.000 A 
ATOM     25  C   UNL     1      -3.792  11.511  18.429  0.00  0.00    +0.000 A 
BRANCH  19  27
ATOM     26  C   UNL     1      -6.576  11.580  19.514  0.00  0.00    +0.000 C 
ATOM     27  O   UNL     1      -5.648  12.632  19.270  0.00  0.00    +0.000 OA
ENDBRANCH  19  27
BRANCH  24  28
ATOM     28  O   UNL     1      -1.830  10.387  17.469  0.00  0.00    +0.000 OA
ATOM     29  C   UNL     1      -2.465  10.314  16.196  0.00  0.00    +0.000 C 
ENDBRANCH  24  28
ENDBRANCH  17  23
ENDBRANCH   1  17
TORSDOF 7
ENDMDL
MODEL 6
REMARK VINA RESULT:      -6.8      4.516      7.378
REMARK  Name = 
REMARK  9 active torsions:
REMARK  status: ('A' for Active; 'I' for Inactive)
REMARK    1  A    between atoms: C_1  and  O_2
REMARK    2  A    between atoms: O_2  and  C_3
REMARK    3  A    between atoms: C_7  and  N_8
REMARK    4  A    between atoms: N_8  and  S_9
REMARK    5  A    between atoms: S_9  and  C_12
REMARK    6  A    between atoms: C_15  and  C_16
REMARK    7  A    between atoms: C_19  and  O_20
REMARK    8  A    between atoms: C_24  and  O_25
REMARK    9  A    between atoms: O_25  and  C_26
REMARK                            x       y       z     vdW  Elec       q    Type
REMARK                         _______ _______ _______ _____ _____    ______ ____
ROOT
ATOM      1  S   UNL     1       0.552   9.883  20.835  0.00  0.00    +0.000 S 
ATOM      2  O   UNL     1       1.464   9.975  21.953  0.00  0.00    +0.000 OA
ATOM      3  O   UNL     1      -0.710   9.179  20.924  0.00  0.00    +0.000 OA
ENDROOT
BRANCH   1   4
ATOM      4  C   UNL     1       1.457   8.968  19.575  0.00  0.00    +0.000 A 
ATOM      5  C   UNL     1       1.692   9.274  18.239  0.00  0.00    +0.000 A 
ATOM      6  C   UNL     1       2.439   8.213  17.678  0.00  0.00    +0.000 A 
ATOM      7  C   UNL     1       2.626   7.291  18.688  0.00  0.00    +0.000 A 
ATOM      8  O   UNL     1       2.064   7.757  19.842  0.00  0.00    +0.000 OA
BRANCH   7   9
ATOM      9  C   UNL     1       3.227   5.967  18.733  0.00  0.00    +0.000 A 
ATOM     10  C   UNL     1       4.070   5.474  17.747  0.00  0.00    +0.000 A 
ATOM     11  C   UNL     1       4.690   4.243  17.949  0.00  0.00    +0.000 A 
ATOM     12  C   UNL     1       4.426   3.568  19.123  0.00  0.00    +0.000 A 
ATOM     13  N   UNL     1       3.575   4.039  20.050  0.00  0.00    +0.000 NA
ATOM     14  N   UNL     1       2.969   5.255  19.854  0.00  0.00    +0.000 NA
BRANCH  12  15
ATOM     15  O   UNL     1       5.037   2.383  19.418  0.00  0.00    +0.000 OA
ATOM     16  H   UNL     1       4.420   1.666  19.214  0.00  0.00    +0.000 HD
ENDBRANCH  12  15
ENDBRANCH   7   9
ENDBRANCH   1   4
BRANCH   1  17
ATOM     17  N   UNL     1       0.193  11.423  20.213  0.00  0.00    +0.000 N 
ATOM     18  H   UNL     1       0.550  11.409  19.250  0.00  0.00    +0.000 HD
BRANCH  17  23
ATOM     19  C   UNL     1      -3.892  12.611  20.132  0.00  0.00    +0.000 A 
ATOM     20  C   UNL     1      -3.144  12.787  21.297  0.00  0.00    +0.000 A 
ATOM     21  C   UNL     1      -1.810  12.367  21.342  0.00  0.00    +0.000 A 
ATOM     22 CL   UNL     1      -0.928  12.653  22.801  0.00  0.00    +0.000 Cl
ATOM     23  C   UNL     1      -1.206  11.793  20.215  0.00  0.00    +0.000 A 
ATOM     24  C   UNL     1      -1.975  11.564  19.057  0.00  0.00    +0.000 A 
ATOM     25  C   UNL     1      -3.310  11.981  19.027  0.00  0.00    +0.000 A 
BRANCH  19  27
ATOM     26  C   UNL     1      -6.101  12.045  19.441  0.00  0.00    +0.000 C 
ATOM     27  O   UNL     1      -5.184  13.013  19.939  0.00  0.00    +0.000 OA
ENDBRANCH  19  27
BRANCH  24  28
ATOM     28  O   UNL     1      -1.319  10.964  18.009  0.00  0.00    +0.000 OA
ATOM     29  C   UNL     1      -2.130  10.352  17.009  0.00  0.00    +0.000 C 
ENDBRANCH  24  28
ENDBRANCH  17  23
ENDBRANCH   1  17
TORSDOF 7
ENDMDL
MODEL 7
REMARK VINA RESULT:      -6.8      4.669      7.736
REMARK  Name = 
REMARK  9 active torsions:
REMARK  status: ('A' for Active; 'I' for Inactive)
REMARK    1  A    between atoms: C_1  and  O_2
REMARK    2  A    between atoms: O_2  and  C_3
REMARK    3  A    between atoms: C_7  and  N_8
REMARK    4  A    between atoms: N_8  and  S_9
REMARK    5  A    between atoms: S_9  and  C_12
REMARK    6  A    between atoms: C_15  and  C_16
REMARK    7  A    between atoms: C_19  and  O_20
REMARK    8  A    between atoms: C_24  and  O_25
REMARK    9  A    between atoms: O_25  and  C_26
REMARK                            x       y       z     vdW  Elec       q    Type
REMARK                         _______ _______ _______ _____ _____    ______ ____
ROOT
ATOM      1  S   UNL     1       0.402  10.223  20.345  0.00  0.00    +0.000 S 
ATOM      2  O   UNL     1       1.280  10.705  21.388  0.00  0.00    +0.000 OA
ATOM      3  O   UNL     1      -0.785   9.447  20.632  0.00  0.00    +0.000 OA
ENDROOT
BRANCH   1   4
ATOM      4  C   UNL     1       1.417   9.098  19.372  0.00  0.00    +0.000 A 
ATOM      5  C   UNL     1       1.821   9.175  18.044  0.00  0.00    +0.000 A 
ATOM      6  C   UNL     1       2.591   8.024  17.759  0.00  0.00    +0.000 A 
ATOM      7  C   UNL     1       2.622   7.278  18.920  0.00  0.00    +0.000 A 
ATOM      8  O   UNL     1       1.943   7.938  19.905  0.00  0.00    +0.000 OA
BRANCH   7   9
ATOM      9  C   UNL     1       3.164   5.971  19.253  0.00  0.00    +0.000 A 
ATOM     10  C   UNL     1       2.444   4.989  19.918  0.00  0.00    +0.000 A 
ATOM     11  C   UNL     1       3.016   3.729  20.077  0.00  0.00    +0.000 A 
ATOM     12  C   UNL     1       4.283   3.522  19.569  0.00  0.00    +0.000 A 
ATOM     13  N   UNL     1       4.984   4.495  18.963  0.00  0.00    +0.000 NA
ATOM     14  N   UNL     1       4.418   5.735  18.801  0.00  0.00    +0.000 NA
BRANCH  12  15
ATOM     15  O   UNL     1       4.887   2.301  19.637  0.00  0.00    +0.000 OA
ATOM     16  H   UNL     1       4.197   1.625  19.691  0.00  0.00    +0.000 HD
ENDBRANCH  12  15
ENDBRANCH   7   9
ENDBRANCH   1   4
BRANCH   1  17
ATOM     17  N   UNL     1      -0.096  11.494  19.333  0.00  0.00    +0.000 N 
ATOM     18  H   UNL     1       0.180  11.203  18.388  0.00  0.00    +0.000 HD
BRANCH  17  23
ATOM     19  C   UNL     1      -4.263  12.334  19.523  0.00  0.00    +0.000 A 
ATOM     20  C   UNL     1      -3.765  11.540  18.489  0.00  0.00    +0.000 A 
ATOM     21  C   UNL     1      -2.391  11.288  18.400  0.00  0.00    +0.000 A 
ATOM     22 CL   UNL     1      -1.845  10.262  17.120  0.00  0.00    +0.000 Cl
ATOM     23  C   UNL     1      -1.509  11.805  19.360  0.00  0.00    +0.000 A 
ATOM     24  C   UNL     1      -2.003  12.652  20.371  0.00  0.00    +0.000 A 
ATOM     25  C   UNL     1      -3.377  12.903  20.444  0.00  0.00    +0.000 A 
BRANCH  19  27
ATOM     26  C   UNL     1      -5.966  13.991  19.706  0.00  0.00    +0.000 C 
ATOM     27  O   UNL     1      -5.580  12.622  19.753  0.00  0.00    +0.000 OA
ENDBRANCH  19  27
BRANCH  24  28
ATOM     28  O   UNL     1      -1.069  13.147  21.249  0.00  0.00    +0.000 OA
ATOM     29  C   UNL     1      -1.372  13.042  22.638  0.00  0.00    +0.000 C 
ENDBRANCH  24  28
ENDBRANCH  17  23
ENDBRANCH   1  17
TORSDOF 7
ENDMDL
MODEL 8
REMARK VINA RESULT:      -6.8      4.502      7.672
REMARK  Name = 
REMARK  9 active torsions:
REMARK  status: ('A' for Active; 'I' for Inactive)
REMARK    1  A    between atoms: C_1  and  O_2
REMARK    2  A    between atoms: O_2  and  C_3
REMARK    3  A    between atoms: C_7  and  N_8
REMARK    4  A    between atoms: N_8  and  S_9
REMARK    5  A    between atoms: S_9  and  C_12
REMARK    6  A    between atoms: C_15  and  C_16
REMARK    7  A    between atoms: C_19  and  O_20
REMARK    8  A    between atoms: C_24  and  O_25
REMARK    9  A    between atoms: O_25  and  C_26
REMARK                            x       y       z     vdW  Elec       q    Type
REMARK                         _______ _______ _______ _____ _____    ______ ____
ROOT
ATOM      1  S   UNL     1       0.407  10.164  20.494  0.00  0.00    +0.000 S 
ATOM      2  O   UNL     1       1.300  10.422  21.602  0.00  0.00    +0.000 OA
ATOM      3  O   UNL     1      -0.805   9.387  20.645  0.00  0.00    +0.000 OA
ENDROOT
BRANCH   1   4
ATOM      4  C   UNL     1       1.383   9.202  19.327  0.00  0.00    +0.000 A 
ATOM      5  C   UNL     1       1.724   9.471  18.006  0.00  0.00    +0.000 A 
ATOM      6  C   UNL     1       2.489   8.383  17.528  0.00  0.00    +0.000 A 
ATOM      7  C   UNL     1       2.580   7.482  18.568  0.00  0.00    +0.000 A 
ATOM      8  O   UNL     1       1.943   7.986  19.667  0.00  0.00    +0.000 OA
BRANCH   7   9
ATOM      9  C   UNL     1       3.148   6.149  18.689  0.00  0.00    +0.000 A 
ATOM     10  C   UNL     1       3.941   5.562  17.713  0.00  0.00    +0.000 A 
ATOM     11  C   UNL     1       4.537   4.332  17.981  0.00  0.00    +0.000 A 
ATOM     12  C   UNL     1       4.298   3.750  19.210  0.00  0.00    +0.000 A 
ATOM     13  N   UNL     1       3.495   4.311  20.130  0.00  0.00    +0.000 NA
ATOM     14  N   UNL     1       2.914   5.527  19.867  0.00  0.00    +0.000 NA
BRANCH  12  15
ATOM     15  O   UNL     1       4.889   2.574  19.568  0.00  0.00    +0.000 OA
ATOM     16  H   UNL     1       5.842   2.656  19.420  0.00  0.00    +0.000 HD
ENDBRANCH  12  15
ENDBRANCH   7   9
ENDBRANCH   1   4
BRANCH   1  17
ATOM     17  N   UNL     1      -0.051  11.612  19.732  0.00  0.00    +0.000 N 
ATOM     18  H   UNL     1       0.303  11.529  18.772  0.00  0.00    +0.000 HD
BRANCH  17  23
ATOM     19  C   UNL     1      -4.242  12.352  19.774  0.00  0.00    +0.000 A 
ATOM     20  C   UNL     1      -3.672  11.666  18.701  0.00  0.00    +0.000 A 
ATOM     21  C   UNL     1      -2.290  11.449  18.663  0.00  0.00    +0.000 A 
ATOM     22 CL   UNL     1      -1.654  10.556  17.326  0.00  0.00    +0.000 Cl
ATOM     23  C   UNL     1      -1.471  11.893  19.711  0.00  0.00    +0.000 A 
ATOM     24  C   UNL     1      -2.036  12.634  20.767  0.00  0.00    +0.000 A 
ATOM     25  C   UNL     1      -3.418  12.851  20.789  0.00  0.00    +0.000 A 
BRANCH  19  27
ATOM     26  C   UNL     1      -6.053  12.625  21.298  0.00  0.00    +0.000 C 
ATOM     27  O   UNL     1      -5.575  12.593  19.957  0.00  0.00    +0.000 OA
ENDBRANCH  19  27
BRANCH  24  28
ATOM     28  O   UNL     1      -1.161  13.064  21.735  0.00  0.00    +0.000 OA
ATOM     29  C   UNL     1      -1.349  12.544  23.049  0.00  0.00    +0.000 C 
ENDBRANCH  24  28
ENDBRANCH  17  23
ENDBRANCH   1  17
TORSDOF 7
ENDMDL
MODEL 9
REMARK VINA RESULT:      -6.8      4.635      7.344
REMARK  Name = 
REMARK  9 active torsions:
REMARK  status: ('A' for Active; 'I' for Inactive)
REMARK    1  A    between atoms: C_1  and  O_2
REMARK    2  A    between atoms: O_2  and  C_3
REMARK    3  A    between atoms: C_7  and  N_8
REMARK    4  A    between atoms: N_8  and  S_9
REMARK    5  A    between atoms: S_9  and  C_12
REMARK    6  A    between atoms: C_15  and  C_16
REMARK    7  A    between atoms: C_19  and  O_20
REMARK    8  A    between atoms: C_24  and  O_25
REMARK    9  A    between atoms: O_25  and  C_26
REMARK                            x       y       z     vdW  Elec       q    Type
REMARK                         _______ _______ _______ _____ _____    ______ ____
ROOT
ATOM      1  S   UNL     1       0.434   9.463  21.320  0.00  0.00    +0.000 S 
ATOM      2  O   UNL     1       1.428   9.952  22.250  0.00  0.00    +0.000 OA
ATOM      3  O   UNL     1      -0.566   8.488  21.702  0.00  0.00    +0.000 OA
ENDROOT
BRANCH   1   4
ATOM      4  C   UNL     1       1.377   8.620  20.039  0.00  0.00    +0.000 A 
ATOM      5  C   UNL     1       1.574   8.954  18.703  0.00  0.00    +0.000 A 
ATOM      6  C   UNL     1       2.378   7.948  18.121  0.00  0.00    +0.000 A 
ATOM      7  C   UNL     1       2.637   7.029  19.117  0.00  0.00    +0.000 A 
ATOM      8  O   UNL     1       2.062   7.446  20.284  0.00  0.00    +0.000 OA
BRANCH   7   9
ATOM      9  C   UNL     1       3.320   5.746  19.139  0.00  0.00    +0.000 A 
ATOM     10  C   UNL     1       4.619   5.561  18.688  0.00  0.00    +0.000 A 
ATOM     11  C   UNL     1       5.222   4.319  18.870  0.00  0.00    +0.000 A 
ATOM     12  C   UNL     1       4.488   3.324  19.484  0.00  0.00    +0.000 A 
ATOM     13  N   UNL     1       3.216   3.506  19.878  0.00  0.00    +0.000 NA
ATOM     14  N   UNL     1       2.624   4.732  19.705  0.00  0.00    +0.000 NA
BRANCH  12  15
ATOM     15  O   UNL     1       5.027   2.098  19.746  0.00  0.00    +0.000 OA
ATOM     16  H   UNL     1       5.761   1.953  19.133  0.00  0.00    +0.000 HD
ENDBRANCH  12  15
ENDBRANCH   7   9
ENDBRANCH   1   4
BRANCH   1  17
ATOM     17  N   UNL     1      -0.408  10.748  20.597  0.00  0.00    +0.000 N 
ATOM     18  H   UNL     1      -1.400  10.503  20.694  0.00  0.00    +0.000 HD
BRANCH  17  23
ATOM     19  C   UNL     1       0.420  14.557  22.305  0.00  0.00    +0.000 A 
ATOM     20  C   UNL     1      -0.588  13.761  22.849  0.00  0.00    +0.000 A 
ATOM     21  C   UNL     1      -0.890  12.522  22.271  0.00  0.00    +0.000 A 
ATOM     22 CL   UNL     1      -2.121  11.567  23.019  0.00  0.00    +0.000 Cl
ATOM     23  C   UNL     1      -0.167  12.059  21.163  0.00  0.00    +0.000 A 
ATOM     24  C   UNL     1       0.813  12.885  20.579  0.00  0.00    +0.000 A 
ATOM     25  C   UNL     1       1.099  14.125  21.161  0.00  0.00    +0.000 A 
BRANCH  19  27
ATOM     26  C   UNL     1       2.137  16.207  22.395  0.00  0.00    +0.000 C 
ATOM     27  O   UNL     1       0.845  15.761  22.793  0.00  0.00    +0.000 OA
ENDBRANCH  19  27
BRANCH  24  28
ATOM     28  O   UNL     1       1.450  12.373  19.474  0.00  0.00    +0.000 OA
ATOM     29  C   UNL     1       1.612  13.249  18.362  0.00  0.00    +0.000 C 
ENDBRANCH  24  28
ENDBRANCH  17  23
ENDBRANCH   1  17
TORSDOF 7
ENDMDL
