MODEL 1
REMARK VINA RESULT:      -7.1      0.000      0.000
REMARK  Name = 
REMARK  11 active torsions:
REMARK  status: ('A' for Active; 'I' for Inactive)
REMARK    1  A    between atoms: C_1  and  N_2
REMARK    2  A    between atoms: N_2  and  C_3
REMARK    3  A    between atoms: N_2  and  C_4
REMARK    4  A    between atoms: C_4  and  C_5
REMARK    5  A    between atoms: C_5  and  N_6
REMARK    6  A    between atoms: N_6  and  C_7
REMARK    7  A    between atoms: N_15  and  C_16
REMARK    8  A    between atoms: N_18  and  C_19
REMARK    9  A    between atoms: C_19  and  C_20
REMARK   10  A    between atoms: C_27  and  C_28
REMARK   11  A    between atoms: C_28  and  O_29
REMARK                            x       y       z     vdW  Elec       q    Type
REMARK                         _______ _______ _______ _____ _____    ______ ____
ROOT
ATOM      1  C   UNL     1       2.106   7.333  19.689  0.00  0.00    +0.000 A 
ATOM      2  N   UNL     1       2.175   7.548  18.345  0.00  0.00    +0.000 NA
ATOM      3  C   UNL     1       1.929   8.765  17.862  0.00  0.00    +0.000 A 
ATOM      4  N   UNL     1       1.629   9.860  18.566  0.00  0.00    +0.000 NA
ATOM      5  C   UNL     1       1.407   9.597  19.858  0.00  0.00    +0.000 A 
ATOM      6  C   UNL     1       1.605   8.382  20.494  0.00  0.00    +0.000 A 
ATOM      7  N   UNL     1       1.290   8.499  21.833  0.00  0.00    +0.000 NA
ATOM      8  C   UNL     1       0.875   9.742  21.984  0.00  0.00    +0.000 A 
ATOM      9  N   UNL     1       0.930  10.461  20.810  0.00  0.00    +0.000 N 
ENDROOT
BRANCH   9  10
ATOM     10  C   UNL     1       0.723  11.904  20.696  0.00  0.00    +0.000 C 
ATOM     11  C   UNL     1      -0.038  12.502  19.474  0.00  0.00    +0.000 C 
ATOM     12  N   UNL     1      -1.523  12.539  19.544  0.00  0.00    +0.000 NA
ATOM     13  C   UNL     1      -1.889  13.163  20.823  0.00  0.00    +0.000 C 
ATOM     14  C   UNL     1      -1.152  12.667  22.091  0.00  0.00    +0.000 C 
ATOM     15  O   UNL     1       0.264  12.451  21.950  0.00  0.00    +0.000 OA
BRANCH  12  16
ATOM     16  C   UNL     1      -2.082  11.203  19.329  0.00  0.00    +0.000 C 
BRANCH  16  17
ATOM     17  C   UNL     1      -2.727  10.856  18.022  0.00  0.00    +0.000 A 
ATOM     18  C   UNL     1      -2.034  10.053  17.108  0.00  0.00    +0.000 A 
ATOM     19  C   UNL     1      -2.522   9.881  15.818  0.00  0.00    +0.000 A 
ATOM     20  C   UNL     1      -3.692  10.539  15.481  0.00  0.00    +0.000 A 
ATOM     21  N   UNL     1      -4.390  11.324  16.332  0.00  0.00    +0.000 NA
ATOM     22  C   UNL     1      -3.888  11.474  17.579  0.00  0.00    +0.000 A 
ENDBRANCH  16  17
ENDBRANCH  12  16
BRANCH  14  23
ATOM     23  C   UNL     1      -1.818  11.482  22.796  0.00  0.00    +0.000 C 
BRANCH  23  24
ATOM     24  O   UNL     1      -3.082  11.868  23.323  0.00  0.00    +0.000 OA
ATOM     25  H   UNL     1      -3.172  11.460  24.201  0.00  0.00    +0.000 HD
ENDBRANCH  23  24
ENDBRANCH  14  23
ENDBRANCH   9  10
BRANCH   1  26
ATOM     26  N   UNL     1       2.551   6.102  20.187  0.00  0.00    +0.000 N 
ATOM     27  H   UNL     1       3.231   5.700  19.536  0.00  0.00    +0.000 HD
BRANCH  26  28
ATOM     28  C   UNL     1       1.451   5.172  20.470  0.00  0.00    +0.000 C 
BRANCH  28  29
ATOM     29  C   UNL     1       1.488   3.947  19.518  0.00  0.00    +0.000 C 
BRANCH  29  31
ATOM     30  C   UNL     1       3.420   2.522  19.914  0.00  0.00    +0.000 C 
ATOM     31  N   UNL     1       1.985   2.704  20.148  0.00  0.00    +0.000 NA
ATOM     32  C   UNL     1       1.721   2.734  21.589  0.00  0.00    +0.000 C 
ENDBRANCH  29  31
ENDBRANCH  28  29
ENDBRANCH  26  28
ENDBRANCH   1  26
TORSDOF 9
ENDMDL
MODEL 2
REMARK VINA RESULT:      -6.9      1.461      1.822
REMARK  Name = 
REMARK  11 active torsions:
REMARK  status: ('A' for Active; 'I' for Inactive)
REMARK    1  A    between atoms: C_1  and  N_2
REMARK    2  A    between atoms: N_2  and  C_3
REMARK    3  A    between atoms: N_2  and  C_4
REMARK    4  A    between atoms: C_4  and  C_5
REMARK    5  A    between atoms: C_5  and  N_6
REMARK    6  A    between atoms: N_6  and  C_7
REMARK    7  A    between atoms: N_15  and  C_16
REMARK    8  A    between atoms: N_18  and  C_19
REMARK    9  A    between atoms: C_19  and  C_20
REMARK   10  A    between atoms: C_27  and  C_28
REMARK   11  A    between atoms: C_28  and  O_29
REMARK                            x       y       z     vdW  Elec       q    Type
REMARK                         _______ _______ _______ _____ _____    ______ ____
ROOT
ATOM      1  C   UNL     1       2.049   7.538  19.635  0.00  0.00    +0.000 A 
ATOM      2  N   UNL     1       2.141   7.763  18.295  0.00  0.00    +0.000 NA
ATOM      3  C   UNL     1       1.900   8.983  17.816  0.00  0.00    +0.000 A 
ATOM      4  N   UNL     1       1.585  10.072  18.522  0.00  0.00    +0.000 NA
ATOM      5  C   UNL     1       1.340   9.798  19.808  0.00  0.00    +0.000 A 
ATOM      6  C   UNL     1       1.531   8.579  20.439  0.00  0.00    +0.000 A 
ATOM      7  N   UNL     1       1.191   8.686  21.773  0.00  0.00    +0.000 NA
ATOM      8  C   UNL     1       0.770   9.926  21.926  0.00  0.00    +0.000 A 
ATOM      9  N   UNL     1       0.844  10.654  20.759  0.00  0.00    +0.000 N 
ENDROOT
BRANCH   9  10
ATOM     10  C   UNL     1       0.636  12.097  20.651  0.00  0.00    +0.000 C 
ATOM     11  C   UNL     1      -0.196  12.693  19.476  0.00  0.00    +0.000 C 
ATOM     12  N   UNL     1      -1.674  12.737  19.636  0.00  0.00    +0.000 NA
ATOM     13  C   UNL     1      -1.959  13.366  20.933  0.00  0.00    +0.000 C 
ATOM     14  C   UNL     1      -1.148  12.872  22.155  0.00  0.00    +0.000 C 
ATOM     15  O   UNL     1       0.257  12.651  21.929  0.00  0.00    +0.000 OA
BRANCH  12  16
ATOM     16  C   UNL     1      -2.249  11.402  19.461  0.00  0.00    +0.000 C 
BRANCH  16  17
ATOM     17  C   UNL     1      -2.819  10.993  18.137  0.00  0.00    +0.000 A 
ATOM     18  C   UNL     1      -2.044  10.213  17.270  0.00  0.00    +0.000 A 
ATOM     19  C   UNL     1      -2.467   9.989  15.965  0.00  0.00    +0.000 A 
ATOM     20  C   UNL     1      -3.656  10.572  15.566  0.00  0.00    +0.000 A 
ATOM     21  N   UNL     1      -4.433  11.332  16.370  0.00  0.00    +0.000 NA
ATOM     22  C   UNL     1      -3.993  11.534  17.633  0.00  0.00    +0.000 A 
ENDBRANCH  16  17
ENDBRANCH  12  16
BRANCH  14  23
ATOM     23  C   UNL     1      -1.774  11.692  22.904  0.00  0.00    +0.000 C 
BRANCH  23  24
ATOM     24  O   UNL     1      -3.160  11.925  23.121  0.00  0.00    +0.000 OA
ATOM     25  H   UNL     1      -3.451  12.593  22.477  0.00  0.00    +0.000 HD
ENDBRANCH  23  24
ENDBRANCH  14  23
ENDBRANCH   9  10
BRANCH   1  26
ATOM     26  N   UNL     1       2.488   6.304  20.131  0.00  0.00    +0.000 N 
ATOM     27  H   UNL     1       3.142   6.464  20.902  0.00  0.00    +0.000 HD
BRANCH  26  28
ATOM     28  C   UNL     1       3.070   5.447  19.090  0.00  0.00    +0.000 C 
BRANCH  28  29
ATOM     29  C   UNL     1       4.590   5.235  19.318  0.00  0.00    +0.000 C 
BRANCH  29  31
ATOM     30  C   UNL     1       6.662   4.873  18.095  0.00  0.00    +0.000 C 
ATOM     31  N   UNL     1       5.441   5.676  18.190  0.00  0.00    +0.000 NA
ATOM     32  C   UNL     1       4.691   5.583  16.934  0.00  0.00    +0.000 C 
ENDBRANCH  29  31
ENDBRANCH  28  29
ENDBRANCH  26  28
ENDBRANCH   1  26
TORSDOF 9
ENDMDL
MODEL 3
REMARK VINA RESULT:      -6.8      0.903      1.194
REMARK  Name = 
REMARK  11 active torsions:
REMARK  status: ('A' for Active; 'I' for Inactive)
REMARK    1  A    between atoms: C_1  and  N_2
REMARK    2  A    between atoms: N_2  and  C_3
REMARK    3  A    between atoms: N_2  and  C_4
REMARK    4  A    between atoms: C_4  and  C_5
REMARK    5  A    between atoms: C_5  and  N_6
REMARK    6  A    between atoms: N_6  and  C_7
REMARK    7  A    between atoms: N_15  and  C_16
REMARK    8  A    between atoms: N_18  and  C_19
REMARK    9  A    between atoms: C_19  and  C_20
REMARK   10  A    between atoms: C_27  and  C_28
REMARK   11  A    between atoms: C_28  and  O_29
REMARK                            x       y       z     vdW  Elec       q    Type
REMARK                         _______ _______ _______ _____ _____    ______ ____
ROOT
ATOM      1  C   UNL     1       1.949   7.869  19.571  0.00  0.00    +0.000 A 
ATOM      2  N   UNL     1       2.099   8.213  18.262  0.00  0.00    +0.000 NA
ATOM      3  C   UNL     1       1.868   9.470  17.884  0.00  0.00    +0.000 A 
ATOM      4  N   UNL     1       1.512  10.490  18.670  0.00  0.00    +0.000 NA
ATOM      5  C   UNL     1       1.214  10.101  19.914  0.00  0.00    +0.000 A 
ATOM      6  C   UNL     1       1.388   8.831  20.442  0.00  0.00    +0.000 A 
ATOM      7  N   UNL     1       0.989   8.817  21.764  0.00  0.00    +0.000 NA
ATOM      8  C   UNL     1       0.551  10.037  22.007  0.00  0.00    +0.000 A 
ATOM      9  N   UNL     1       0.669  10.866  20.914  0.00  0.00    +0.000 N 
ENDROOT
BRANCH   9  10
ATOM     10  C   UNL     1       0.452  12.312  20.926  0.00  0.00    +0.000 C 
ATOM     11  C   UNL     1      -0.351  13.004  19.784  0.00  0.00    +0.000 C 
ATOM     12  N   UNL     1      -1.834  13.025  19.906  0.00  0.00    +0.000 NA
ATOM     13  C   UNL     1      -2.159  13.538  21.244  0.00  0.00    +0.000 C 
ATOM     14  C   UNL     1      -1.378  12.944  22.441  0.00  0.00    +0.000 C 
ATOM     15  O   UNL     1       0.034  12.751  22.236  0.00  0.00    +0.000 OA
BRANCH  12  16
ATOM     16  C   UNL     1      -2.394  11.707  19.601  0.00  0.00    +0.000 C 
BRANCH  16  17
ATOM     17  C   UNL     1      -2.691  11.324  18.182  0.00  0.00    +0.000 A 
ATOM     18  C   UNL     1      -3.918  11.691  17.618  0.00  0.00    +0.000 A 
ATOM     19  C   UNL     1      -4.299  11.181  16.382  0.00  0.00    +0.000 A 
ATOM     20  C   UNL     1      -3.434  10.301  15.755  0.00  0.00    +0.000 A 
ATOM     21  N   UNL     1      -2.241   9.921  16.267  0.00  0.00    +0.000 NA
ATOM     22  C   UNL     1      -1.901  10.432  17.472  0.00  0.00    +0.000 A 
ENDBRANCH  16  17
ENDBRANCH  12  16
BRANCH  14  23
ATOM     23  C   UNL     1      -2.015  11.700  23.068  0.00  0.00    +0.000 C 
BRANCH  23  24
ATOM     24  O   UNL     1      -3.393  11.932  23.333  0.00  0.00    +0.000 OA
ATOM     25  H   UNL     1      -3.466  12.795  23.776  0.00  0.00    +0.000 HD
ENDBRANCH  23  24
ENDBRANCH  14  23
ENDBRANCH   9  10
BRANCH   1  26
ATOM     26  N   UNL     1       2.378   6.598  19.975  0.00  0.00    +0.000 N 
ATOM     27  H   UNL     1       3.316   6.670  20.379  0.00  0.00    +0.000 HD
BRANCH  26  28
ATOM     28  C   UNL     1       2.324   5.609  18.891  0.00  0.00    +0.000 C 
BRANCH  28  29
ATOM     29  C   UNL     1       2.536   4.169  19.430  0.00  0.00    +0.000 C 
BRANCH  29  31
ATOM     30  C   UNL     1       1.059   2.339  18.806  0.00  0.00    +0.000 C 
ATOM     31  N   UNL     1       1.281   3.446  19.738  0.00  0.00    +0.000 NA
ATOM     32  C   UNL     1       1.324   2.934  21.111  0.00  0.00    +0.000 C 
ENDBRANCH  29  31
ENDBRANCH  28  29
ENDBRANCH  26  28
ENDBRANCH   1  26
TORSDOF 9
ENDMDL
MODEL 4
REMARK VINA RESULT:      -6.8      0.953      1.209
REMARK  Name = 
REMARK  11 active torsions:
REMARK  status: ('A' for Active; 'I' for Inactive)
REMARK    1  A    between atoms: C_1  and  N_2
REMARK    2  A    between atoms: N_2  and  C_3
REMARK    3  A    between atoms: N_2  and  C_4
REMARK    4  A    between atoms: C_4  and  C_5
REMARK    5  A    between atoms: C_5  and  N_6
REMARK    6  A    between atoms: N_6  and  C_7
REMARK    7  A    between atoms: N_15  and  C_16
REMARK    8  A    between atoms: N_18  and  C_19
REMARK    9  A    between atoms: C_19  and  C_20
REMARK   10  A    between atoms: C_27  and  C_28
REMARK   11  A    between atoms: C_28  and  O_29
REMARK                            x       y       z     vdW  Elec       q    Type
REMARK                         _______ _______ _______ _____ _____    ______ ____
ROOT
ATOM      1  C   UNL     1       2.036   6.971  20.028  0.00  0.00    +0.000 A 
ATOM      2  N   UNL     1       2.269   6.978  18.686  0.00  0.00    +0.000 NA
ATOM      3  C   UNL     1       2.209   8.127  18.014  0.00  0.00    +0.000 A 
ATOM      4  N   UNL     1       1.959   9.337  18.521  0.00  0.00    +0.000 NA
ATOM      5  C   UNL     1       1.575   9.290  19.801  0.00  0.00    +0.000 A 
ATOM      6  C   UNL     1       1.571   8.170  20.617  0.00  0.00    +0.000 A 
ATOM      7  N   UNL     1       1.132   8.513  21.880  0.00  0.00    +0.000 NA
ATOM      8  C   UNL     1       0.843   9.798  21.809  0.00  0.00    +0.000 A 
ATOM      9  N   UNL     1       1.098  10.327  20.563  0.00  0.00    +0.000 N 
ENDROOT
BRANCH   9  10
ATOM     10  C   UNL     1       1.064  11.749  20.229  0.00  0.00    +0.000 C 
ATOM     11  C   UNL     1       0.449  12.233  18.880  0.00  0.00    +0.000 C 
ATOM     12  N   UNL     1      -1.024  12.434  18.833  0.00  0.00    +0.000 NA
ATOM     13  C   UNL     1      -1.391  13.277  19.979  0.00  0.00    +0.000 C 
ATOM     14  C   UNL     1      -0.791  12.904  21.356  0.00  0.00    +0.000 C 
ATOM     15  O   UNL     1       0.598  12.524  21.354  0.00  0.00    +0.000 OA
BRANCH  12  16
ATOM     16  C   UNL     1      -1.717  11.147  18.770  0.00  0.00    +0.000 C 
BRANCH  16  17
ATOM     17  C   UNL     1      -2.578  10.809  17.591  0.00  0.00    +0.000 A 
ATOM     18  C   UNL     1      -2.077   9.958  16.599  0.00  0.00    +0.000 A 
ATOM     19  C   UNL     1      -2.772   9.789  15.407  0.00  0.00    +0.000 A 
ATOM     20  C   UNL     1      -3.949  10.497  15.243  0.00  0.00    +0.000 A 
ATOM     21  N   UNL     1      -4.466  11.330  16.174  0.00  0.00    +0.000 NA
ATOM     22  C   UNL     1      -3.765  11.476  17.322  0.00  0.00    +0.000 A 
ENDBRANCH  16  17
ENDBRANCH  12  16
BRANCH  14  23
ATOM     23  C   UNL     1      -1.628  11.914  22.171  0.00  0.00    +0.000 C 
BRANCH  23  24
ATOM     24  O   UNL     1      -1.248  11.958  23.542  0.00  0.00    +0.000 OA
ATOM     25  H   UNL     1      -0.681  11.187  23.715  0.00  0.00    +0.000 HD
ENDBRANCH  23  24
ENDBRANCH  14  23
ENDBRANCH   9  10
BRANCH   1  26
ATOM     26  N   UNL     1       2.289   5.792  20.739  0.00  0.00    +0.000 N 
ATOM     27  H   UNL     1       3.297   5.700  20.894  0.00  0.00    +0.000 HD
BRANCH  26  28
ATOM     28  C   UNL     1       1.727   4.602  20.086  0.00  0.00    +0.000 C 
BRANCH  28  29
ATOM     29  C   UNL     1       2.740   3.426  20.087  0.00  0.00    +0.000 C 
BRANCH  29  31
ATOM     30  C   UNL     1       2.470   3.511  17.670  0.00  0.00    +0.000 C 
ATOM     31  N   UNL     1       3.370   3.168  18.773  0.00  0.00    +0.000 NA
ATOM     32  C   UNL     1       4.611   3.939  18.654  0.00  0.00    +0.000 C 
ENDBRANCH  29  31
ENDBRANCH  28  29
ENDBRANCH  26  28
ENDBRANCH   1  26
TORSDOF 9
ENDMDL
MODEL 5
REMARK VINA RESULT:      -6.8      0.876      1.040
REMARK  Name = 
REMARK  11 active torsions:
REMARK  status: ('A' for Active; 'I' for Inactive)
REMARK    1  A    between atoms: C_1  and  N_2
REMARK    2  A    between atoms: N_2  and  C_3
REMARK    3  A    between atoms: N_2  and  C_4
REMARK    4  A    between atoms: C_4  and  C_5
REMARK    5  A    between atoms: C_5  and  N_6
REMARK    6  A    between atoms: N_6  and  C_7
REMARK    7  A    between atoms: N_15  and  C_16
REMARK    8  A    between atoms: N_18  and  C_19
REMARK    9  A    between atoms: C_19  and  C_20
REMARK   10  A    between atoms: C_27  and  C_28
REMARK   11  A    between atoms: C_28  and  O_29
REMARK                            x       y       z     vdW  Elec       q    Type
REMARK                         _______ _______ _______ _____ _____    ______ ____
ROOT
ATOM      1  C   UNL     1       1.925   7.757  19.652  0.00  0.00    +0.000 A 
ATOM      2  N   UNL     1       2.004   8.010  18.316  0.00  0.00    +0.000 NA
ATOM      3  C   UNL     1       1.729   9.232  17.862  0.00  0.00    +0.000 A 
ATOM      4  N   UNL     1       1.389  10.298  18.591  0.00  0.00    +0.000 NA
ATOM      5  C   UNL     1       1.159   9.994  19.872  0.00  0.00    +0.000 A 
ATOM      6  C   UNL     1       1.384   8.769  20.479  0.00  0.00    +0.000 A 
ATOM      7  N   UNL     1       1.049   8.841  21.816  0.00  0.00    +0.000 NA
ATOM      8  C   UNL     1       0.598  10.067  21.995  0.00  0.00    +0.000 A 
ATOM      9  N   UNL     1       0.646  10.819  20.841  0.00  0.00    +0.000 N 
ENDROOT
BRANCH   9  10
ATOM     10  C   UNL     1       0.400  12.258  20.762  0.00  0.00    +0.000 C 
ATOM     11  C   UNL     1      -0.456  12.854  19.604  0.00  0.00    +0.000 C 
ATOM     12  N   UNL     1      -1.934  12.856  19.777  0.00  0.00    +0.000 NA
ATOM     13  C   UNL     1      -2.224  13.454  21.087  0.00  0.00    +0.000 C 
ATOM     14  C   UNL     1      -1.391  12.959  22.294  0.00  0.00    +0.000 C 
ATOM     15  O   UNL     1       0.017  12.778  22.053  0.00  0.00    +0.000 OA
BRANCH  12  16
ATOM     16  C   UNL     1      -2.476  11.510  19.582  0.00  0.00    +0.000 C 
BRANCH  16  17
ATOM     17  C   UNL     1      -2.945  11.075  18.227  0.00  0.00    +0.000 A 
ATOM     18  C   UNL     1      -2.117  10.262  17.444  0.00  0.00    +0.000 A 
ATOM     19  C   UNL     1      -2.438  10.011  16.115  0.00  0.00    +0.000 A 
ATOM     20  C   UNL     1      -3.583  10.599  15.609  0.00  0.00    +0.000 A 
ATOM     21  N   UNL     1      -4.409  11.390  16.330  0.00  0.00    +0.000 NA
ATOM     22  C   UNL     1      -4.067  11.619  17.618  0.00  0.00    +0.000 A 
ENDBRANCH  16  17
ENDBRANCH  12  16
BRANCH  14  23
ATOM     23  C   UNL     1      -1.980  11.749  23.026  0.00  0.00    +0.000 C 
BRANCH  23  24
ATOM     24  O   UNL     1      -3.360  11.962  23.298  0.00  0.00    +0.000 OA
ATOM     25  H   UNL     1      -3.755  11.098  23.504  0.00  0.00    +0.000 HD
ENDBRANCH  23  24
ENDBRANCH  14  23
ENDBRANCH   9  10
BRANCH   1  26
ATOM     26  N   UNL     1       2.399   6.526  20.123  0.00  0.00    +0.000 N 
ATOM     27  H   UNL     1       3.313   6.661  20.561  0.00  0.00    +0.000 HD
BRANCH  26  28
ATOM     28  C   UNL     1       2.442   5.496  19.077  0.00  0.00    +0.000 C 
BRANCH  28  29
ATOM     29  C   UNL     1       2.827   4.111  19.664  0.00  0.00    +0.000 C 
BRANCH  29  31
ATOM     30  C   UNL     1       5.190   4.162  19.082  0.00  0.00    +0.000 C 
ATOM     31  N   UNL     1       3.927   3.432  18.943  0.00  0.00    +0.000 NA
ATOM     32  C   UNL     1       4.089   2.067  19.452  0.00  0.00    +0.000 C 
ENDBRANCH  29  31
ENDBRANCH  28  29
ENDBRANCH  26  28
ENDBRANCH   1  26
TORSDOF 9
ENDMDL
MODEL 6
REMARK VINA RESULT:      -6.7      5.323      8.163
REMARK  Name = 
REMARK  11 active torsions:
REMARK  status: ('A' for Active; 'I' for Inactive)
REMARK    1  A    between atoms: C_1  and  N_2
REMARK    2  A    between atoms: N_2  and  C_3
REMARK    3  A    between atoms: N_2  and  C_4
REMARK    4  A    between atoms: C_4  and  C_5
REMARK    5  A    between atoms: C_5  and  N_6
REMARK    6  A    between atoms: N_6  and  C_7
REMARK    7  A    between atoms: N_15  and  C_16
REMARK    8  A    between atoms: N_18  and  C_19
REMARK    9  A    between atoms: C_19  and  C_20
REMARK   10  A    between atoms: C_27  and  C_28
REMARK   11  A    between atoms: C_28  and  O_29
REMARK                            x       y       z     vdW  Elec       q    Type
REMARK                         _______ _______ _______ _____ _____    ______ ____
ROOT
ATOM      1  C   UNL     1       6.366   5.318  15.601  0.00  0.00    +0.000 A 
ATOM      2  N   UNL     1       7.253   6.054  16.327  0.00  0.00    +0.000 NA
ATOM      3  C   UNL     1       7.217   5.999  17.658  0.00  0.00    +0.000 A 
ATOM      4  N   UNL     1       6.395   5.259  18.406  0.00  0.00    +0.000 NA
ATOM      5  C   UNL     1       5.432   4.673  17.688  0.00  0.00    +0.000 A 
ATOM      6  C   UNL     1       5.333   4.658  16.305  0.00  0.00    +0.000 A 
ATOM      7  N   UNL     1       4.219   3.935  15.926  0.00  0.00    +0.000 NA
ATOM      8  C   UNL     1       3.646   3.563  17.053  0.00  0.00    +0.000 A 
ATOM      9  N   UNL     1       4.347   3.981  18.163  0.00  0.00    +0.000 N 
ENDROOT
BRANCH   9  10
ATOM     10  C   UNL     1       4.075   3.565  19.538  0.00  0.00    +0.000 C 
ATOM     11  C   UNL     1       3.779   4.623  20.643  0.00  0.00    +0.000 C 
ATOM     12  N   UNL     1       2.378   5.107  20.770  0.00  0.00    +0.000 NA
ATOM     13  C   UNL     1       1.508   3.925  20.842  0.00  0.00    +0.000 C 
ATOM     14  C   UNL     1       1.756   2.796  19.813  0.00  0.00    +0.000 C 
ATOM     15  O   UNL     1       3.135   2.470  19.559  0.00  0.00    +0.000 OA
BRANCH  12  16
ATOM     16  C   UNL     1       2.057   6.040  19.689  0.00  0.00    +0.000 C 
BRANCH  16  17
ATOM     17  C   UNL     1       1.754   7.476  19.997  0.00  0.00    +0.000 A 
ATOM     18  C   UNL     1       1.230   7.811  21.251  0.00  0.00    +0.000 A 
ATOM     19  C   UNL     1       0.757   9.096  21.490  0.00  0.00    +0.000 A 
ATOM     20  C   UNL     1       0.814  10.005  20.449  0.00  0.00    +0.000 A 
ATOM     21  N   UNL     1       1.311   9.722  19.224  0.00  0.00    +0.000 NA
ATOM     22  C   UNL     1       1.760   8.462  19.022  0.00  0.00    +0.000 A 
ENDBRANCH  16  17
ENDBRANCH  12  16
BRANCH  14  23
ATOM     23  C   UNL     1       0.979   2.943  18.501  0.00  0.00    +0.000 C 
BRANCH  23  24
ATOM     24  O   UNL     1       0.233   1.762  18.234  0.00  0.00    +0.000 OA
ATOM     25  H   UNL     1      -0.262   1.538  19.040  0.00  0.00    +0.000 HD
ENDBRANCH  23  24
ENDBRANCH  14  23
ENDBRANCH   9  10
BRANCH   1  26
ATOM     26  N   UNL     1       6.544   5.245  14.214  0.00  0.00    +0.000 N 
ATOM     27  H   UNL     1       5.706   5.601  13.747  0.00  0.00    +0.000 HD
BRANCH  26  28
ATOM     28  C   UNL     1       6.893   3.894  13.756  0.00  0.00    +0.000 C 
BRANCH  28  29
ATOM     29  C   UNL     1       6.501   3.684  12.269  0.00  0.00    +0.000 C 
BRANCH  29  31
ATOM     30  C   UNL     1       4.282   3.281  11.356  0.00  0.00    +0.000 C 
ATOM     31  N   UNL     1       5.424   2.691  12.059  0.00  0.00    +0.000 NA
ATOM     32  C   UNL     1       5.937   1.551  11.296  0.00  0.00    +0.000 C 
ENDBRANCH  29  31
ENDBRANCH  28  29
ENDBRANCH  26  28
ENDBRANCH   1  26
TORSDOF 9
ENDMDL
MODEL 7
REMARK VINA RESULT:      -6.7      3.654      8.629
REMARK  Name = 
REMARK  11 active torsions:
REMARK  status: ('A' for Active; 'I' for Inactive)
REMARK    1  A    between atoms: C_1  and  N_2
REMARK    2  A    between atoms: N_2  and  C_3
REMARK    3  A    between atoms: N_2  and  C_4
REMARK    4  A    between atoms: C_4  and  C_5
REMARK    5  A    between atoms: C_5  and  N_6
REMARK    6  A    between atoms: N_6  and  C_7
REMARK    7  A    between atoms: N_15  and  C_16
REMARK    8  A    between atoms: N_18  and  C_19
REMARK    9  A    between atoms: C_19  and  C_20
REMARK   10  A    between atoms: C_27  and  C_28
REMARK   11  A    between atoms: C_28  and  O_29
REMARK                            x       y       z     vdW  Elec       q    Type
REMARK                         _______ _______ _______ _____ _____    ______ ____
ROOT
ATOM      1  C   UNL     1       1.544   9.073  19.903  0.00  0.00    +0.000 A 
ATOM      2  N   UNL     1       1.904   9.590  18.695  0.00  0.00    +0.000 NA
ATOM      3  C   UNL     1       2.167   8.767  17.681  0.00  0.00    +0.000 A 
ATOM      4  N   UNL     1       2.098   7.434  17.694  0.00  0.00    +0.000 NA
ATOM      5  C   UNL     1       1.904   6.940  18.922  0.00  0.00    +0.000 A 
ATOM      6  C   UNL     1       1.635   7.672  20.068  0.00  0.00    +0.000 A 
ATOM      7  N   UNL     1       1.472   6.816  21.139  0.00  0.00    +0.000 NA
ATOM      8  C   UNL     1       1.679   5.608  20.654  0.00  0.00    +0.000 A 
ATOM      9  N   UNL     1       1.943   5.623  19.302  0.00  0.00    +0.000 N 
ENDROOT
BRANCH   9  10
ATOM     10  C   UNL     1       2.023   4.440  18.446  0.00  0.00    +0.000 C 
ATOM     11  C   UNL     1       3.270   4.196  17.544  0.00  0.00    +0.000 C 
ATOM     12  N   UNL     1       4.444   3.526  18.166  0.00  0.00    +0.000 NA
ATOM     13  C   UNL     1       3.956   2.311  18.833  0.00  0.00    +0.000 C 
ATOM     14  C   UNL     1       2.692   2.443  19.715  0.00  0.00    +0.000 C 
ATOM     15  O   UNL     1       1.633   3.258  19.177  0.00  0.00    +0.000 OA
BRANCH  12  16
ATOM     16  C   UNL     1       5.165   4.457  19.036  0.00  0.00    +0.000 C 
BRANCH  16  17
ATOM     17  C   UNL     1       6.115   5.456  18.449  0.00  0.00    +0.000 A 
ATOM     18  C   UNL     1       7.318   5.729  19.112  0.00  0.00    +0.000 A 
ATOM     19  C   UNL     1       8.119   6.787  18.699  0.00  0.00    +0.000 A 
ATOM     20  C   UNL     1       7.675   7.552  17.635  0.00  0.00    +0.000 A 
ATOM     21  N   UNL     1       6.520   7.324  16.970  0.00  0.00    +0.000 NA
ATOM     22  C   UNL     1       5.762   6.289  17.397  0.00  0.00    +0.000 A 
ENDBRANCH  16  17
ENDBRANCH  12  16
BRANCH  14  23
ATOM     23  C   UNL     1       2.967   2.801  21.179  0.00  0.00    +0.000 C 
BRANCH  23  24
ATOM     24  O   UNL     1       1.879   2.394  21.999  0.00  0.00    +0.000 OA
ATOM     25  H   UNL     1       1.798   1.428  21.923  0.00  0.00    +0.000 HD
ENDBRANCH  23  24
ENDBRANCH  14  23
ENDBRANCH   9  10
BRANCH   1  26
ATOM     26  N   UNL     1       1.091   9.954  20.893  0.00  0.00    +0.000 N 
ATOM     27  H   UNL     1       0.339   9.507  21.424  0.00  0.00    +0.000 HD
BRANCH  26  28
ATOM     28  C   UNL     1       0.678  11.255  20.350  0.00  0.00    +0.000 C 
BRANCH  28  29
ATOM     29  C   UNL     1      -0.797  11.575  20.713  0.00  0.00    +0.000 C 
BRANCH  29  31
ATOM     30  C   UNL     1      -2.898  12.435  19.839  0.00  0.00    +0.000 C 
ATOM     31  N   UNL     1      -1.710  11.630  19.550  0.00  0.00    +0.000 NA
ATOM     32  C   UNL     1      -1.008  12.186  18.390  0.00  0.00    +0.000 C 
ENDBRANCH  29  31
ENDBRANCH  28  29
ENDBRANCH  26  28
ENDBRANCH   1  26
TORSDOF 9
ENDMDL
MODEL 8
REMARK VINA RESULT:      -6.7      5.116      8.083
REMARK  Name = 
REMARK  11 active torsions:
REMARK  status: ('A' for Active; 'I' for Inactive)
REMARK    1  A    between atoms: C_1  and  N_2
REMARK    2  A    between atoms: N_2  and  C_3
REMARK    3  A    between atoms: N_2  and  C_4
REMARK    4  A    between atoms: C_4  and  C_5
REMARK    5  A    between atoms: C_5  and  N_6
REMARK    6  A    between atoms: N_6  and  C_7
REMARK    7  A    between atoms: N_15  and  C_16
REMARK    8  A    between atoms: N_18  and  C_19
REMARK    9  A    between atoms: C_19  and  C_20
REMARK   10  A    between atoms: C_27  and  C_28
REMARK   11  A    between atoms: C_28  and  O_29
REMARK                            x       y       z     vdW  Elec       q    Type
REMARK                         _______ _______ _______ _____ _____    ______ ____
ROOT
ATOM      1  C   UNL     1       6.977   4.839  16.767  0.00  0.00    +0.000 A 
ATOM      2  N   UNL     1       7.647   5.663  17.620  0.00  0.00    +0.000 NA
ATOM      3  C   UNL     1       7.278   5.723  18.900  0.00  0.00    +0.000 A 
ATOM      4  N   UNL     1       6.300   5.027  19.483  0.00  0.00    +0.000 NA
ATOM      5  C   UNL     1       5.553   4.351  18.604  0.00  0.00    +0.000 A 
ATOM      6  C   UNL     1       5.804   4.212  17.248  0.00  0.00    +0.000 A 
ATOM      7  N   UNL     1       4.827   3.427  16.670  0.00  0.00    +0.000 NA
ATOM      8  C   UNL     1       3.992   3.137  17.648  0.00  0.00    +0.000 A 
ATOM      9  N   UNL     1       4.388   3.671  18.854  0.00  0.00    +0.000 N 
ENDROOT
BRANCH   9  10
ATOM     10  C   UNL     1       3.782   3.368  20.150  0.00  0.00    +0.000 C 
ATOM     11  C   UNL     1       3.326   4.516  21.101  0.00  0.00    +0.000 C 
ATOM     12  N   UNL     1       1.975   5.096  20.877  0.00  0.00    +0.000 NA
ATOM     13  C   UNL     1       1.022   3.979  20.809  0.00  0.00    +0.000 C 
ATOM     14  C   UNL     1       1.408   2.769  19.925  0.00  0.00    +0.000 C 
ATOM     15  O   UNL     1       2.779   2.339  20.012  0.00  0.00    +0.000 OA
BRANCH  12  16
ATOM     16  C   UNL     1       1.979   5.971  19.704  0.00  0.00    +0.000 C 
BRANCH  16  17
ATOM     17  C   UNL     1       1.758   7.445  19.861  0.00  0.00    +0.000 A 
ATOM     18  C   UNL     1       1.218   7.932  21.058  0.00  0.00    +0.000 A 
ATOM     19  C   UNL     1       0.820   9.260  21.155  0.00  0.00    +0.000 A 
ATOM     20  C   UNL     1       0.966  10.059  20.035  0.00  0.00    +0.000 A 
ATOM     21  N   UNL     1       1.481   9.628  18.862  0.00  0.00    +0.000 NA
ATOM     22  C   UNL     1       1.856   8.330  18.797  0.00  0.00    +0.000 A 
ENDBRANCH  16  17
ENDBRANCH  12  16
BRANCH  14  23
ATOM     23  C   UNL     1       0.960   2.874  18.464  0.00  0.00    +0.000 C 
BRANCH  23  24
ATOM     24  O   UNL     1       0.239   1.709  18.084  0.00  0.00    +0.000 OA
ATOM     25  H   UNL     1       0.430   1.017  18.739  0.00  0.00    +0.000 HD
ENDBRANCH  23  24
ENDBRANCH  14  23
ENDBRANCH   9  10
BRANCH   1  26
ATOM     26  N   UNL     1       7.499   4.651  15.481  0.00  0.00    +0.000 N 
ATOM     27  H   UNL     1       8.374   5.174  15.392  0.00  0.00    +0.000 HD
BRANCH  26  28
ATOM     28  C   UNL     1       6.543   5.001  14.423  0.00  0.00    +0.000 C 
BRANCH  28  29
ATOM     29  C   UNL     1       5.976   3.732  13.732  0.00  0.00    +0.000 C 
BRANCH  29  31
ATOM     30  C   UNL     1       7.364   4.329  11.824  0.00  0.00    +0.000 C 
ATOM     31  N   UNL     1       6.095   3.740  12.257  0.00  0.00    +0.000 NA
ATOM     32  C   UNL     1       5.984   2.373  11.739  0.00  0.00    +0.000 C 
ENDBRANCH  29  31
ENDBRANCH  28  29
ENDBRANCH  26  28
ENDBRANCH   1  26
TORSDOF 9
ENDMDL
MODEL 9
REMARK VINA RESULT:      -6.6      5.289      8.012
REMARK  Name = 
REMARK  11 active torsions:
REMARK  status: ('A' for Active; 'I' for Inactive)
REMARK    1  A    between atoms: C_1  and  N_2
REMARK    2  A    between atoms: N_2  and  C_3
REMARK    3  A    between atoms: N_2  and  C_4
REMARK    4  A    between atoms: C_4  and  C_5
REMARK    5  A    between atoms: C_5  and  N_6
REMARK    6  A    between atoms: N_6  and  C_7
REMARK    7  A    between atoms: N_15  and  C_16
REMARK    8  A    between atoms: N_18  and  C_19
REMARK    9  A    between atoms: C_19  and  C_20
REMARK   10  A    between atoms: C_27  and  C_28
REMARK   11  A    between atoms: C_28  and  O_29
REMARK                            x       y       z     vdW  Elec       q    Type
REMARK                         _______ _______ _______ _____ _____    ______ ____
ROOT
ATOM      1  C   UNL     1       6.837   5.009  15.814  0.00  0.00    +0.000 A 
ATOM      2  N   UNL     1       7.375   6.111  16.407  0.00  0.00    +0.000 NA
ATOM      3  C   UNL     1       7.048   6.405  17.665  0.00  0.00    +0.000 A 
ATOM      4  N   UNL     1       6.236   5.709  18.464  0.00  0.00    +0.000 NA
ATOM      5  C   UNL     1       5.594   4.730  17.818  0.00  0.00    +0.000 A 
ATOM      6  C   UNL     1       5.817   4.322  16.513  0.00  0.00    +0.000 A 
ATOM      7  N   UNL     1       4.980   3.269  16.203  0.00  0.00    +0.000 NA
ATOM      8  C   UNL     1       4.248   3.078  17.283  0.00  0.00    +0.000 A 
ATOM      9  N   UNL     1       4.583   3.940  18.304  0.00  0.00    +0.000 N 
ENDROOT
BRANCH   9  10
ATOM     10  C   UNL     1       4.090   3.850  19.677  0.00  0.00    +0.000 C 
ATOM     11  C   UNL     1       3.684   5.135  20.461  0.00  0.00    +0.000 C 
ATOM     12  N   UNL     1       2.304   5.653  20.257  0.00  0.00    +0.000 NA
ATOM     13  C   UNL     1       1.378   4.531  20.454  0.00  0.00    +0.000 C 
ATOM     14  C   UNL     1       1.721   3.195  19.752  0.00  0.00    +0.000 C 
ATOM     15  O   UNL     1       3.105   2.801  19.795  0.00  0.00    +0.000 OA
BRANCH  12  16
ATOM     16  C   UNL     1       2.193   6.322  18.959  0.00  0.00    +0.000 C 
BRANCH  16  17
ATOM     17  C   UNL     1       2.023   7.809  18.889  0.00  0.00    +0.000 A 
ATOM     18  C   UNL     1       1.365   8.473  19.932  0.00  0.00    +0.000 A 
ATOM     19  C   UNL     1       1.020   9.812  19.799  0.00  0.00    +0.000 A 
ATOM     20  C   UNL     1       1.335  10.443  18.609  0.00  0.00    +0.000 A 
ATOM     21  N   UNL     1       1.968   9.839  17.578  0.00  0.00    +0.000 NA
ATOM     22  C   UNL     1       2.288   8.534  17.736  0.00  0.00    +0.000 A 
ENDBRANCH  16  17
ENDBRANCH  12  16
BRANCH  14  23
ATOM     23  C   UNL     1       1.155   3.051  18.336  0.00  0.00    +0.000 C 
BRANCH  23  24
ATOM     24  O   UNL     1       0.326   1.899  18.251  0.00  0.00    +0.000 OA
ATOM     25  H   UNL     1      -0.537   2.182  17.905  0.00  0.00    +0.000 HD
ENDBRANCH  23  24
ENDBRANCH  14  23
ENDBRANCH   9  10
BRANCH   1  26
ATOM     26  N   UNL     1       7.337   4.617  14.566  0.00  0.00    +0.000 N 
ATOM     27  H   UNL     1       7.964   5.343  14.210  0.00  0.00    +0.000 HD
BRANCH  26  28
ATOM     28  C   UNL     1       6.275   4.291  13.605  0.00  0.00    +0.000 C 
BRANCH  28  29
ATOM     29  C   UNL     1       6.860   3.666  12.310  0.00  0.00    +0.000 C 
BRANCH  29  31
ATOM     30  C   UNL     1       6.007   1.541  11.488  0.00  0.00    +0.000 C 
ATOM     31  N   UNL     1       5.856   2.997  11.453  0.00  0.00    +0.000 NA
ATOM     32  C   UNL     1       4.505   3.362  11.888  0.00  0.00    +0.000 C 
ENDBRANCH  29  31
ENDBRANCH  28  29
ENDBRANCH  26  28
ENDBRANCH   1  26
TORSDOF 9
ENDMDL
