MODEL 1
REMARK VINA RESULT:      -8.1      0.000      0.000
REMARK  Name = 
REMARK  11 active torsions:
REMARK  status: ('A' for Active; 'I' for Inactive)
REMARK    1  A    between atoms: C_1  and  C_2
REMARK    2  A    between atoms: C_2  and  N_3
REMARK    3  A    between atoms: C_4  and  O_6
REMARK    4  A    between atoms: O_6  and  C_7
REMARK    5  A    between atoms: C_7  and  C_8
REMARK    6  A    between atoms: C_9  and  C_10
REMARK    7  A    between atoms: C_10  and  O_11
REMARK    8  A    between atoms: O_11  and  C_12
REMARK    9  A    between atoms: N_14  and  C_15
REMARK   10  A    between atoms: C_15  and  C_16
REMARK   11  A    between atoms: C_33  and  C_34
REMARK                            x       y       z     vdW  Elec       q    Type
REMARK                         _______ _______ _______ _____ _____    ______ ____
ROOT
ATOM      1  C   UNL     1       1.549   8.927  19.496  0.00  0.00    +0.000 A 
ATOM      2  C   UNL     1       1.436   7.806  20.398  0.00  0.00    +0.000 A 
ATOM      3  C   UNL     1       2.228   6.779  19.861  0.00  0.00    +0.000 A 
ATOM      4  C   UNL     1       2.522   5.384  20.228  0.00  0.00    +0.000 A 
ATOM      5  C   UNL     1       1.969   4.726  21.334  0.00  0.00    +0.000 A 
ATOM      6  C   UNL     1       2.297   3.396  21.623  0.00  0.00    +0.000 A 
ATOM      7  C   UNL     1       3.154   2.690  20.791  0.00  0.00    +0.000 A 
ATOM      8  C   UNL     1       3.679   3.314  19.665  0.00  0.00    +0.000 A 
ATOM      9  C   UNL     1       3.392   4.662  19.393  0.00  0.00    +0.000 A 
ATOM     10  C   UNL     1       3.951   5.346  18.171  0.00  0.00    +0.000 A 
ATOM     11  N   UNL     1       4.793   4.635  17.315  0.00  0.00    +0.000 N 
ATOM     12  C   UNL     1       6.079   4.087  17.739  0.00  0.00    +0.000 C 
ATOM     13  C   UNL     1       7.219   4.646  16.894  0.00  0.00    +0.000 C 
ATOM     14  C   UNL     1       6.952   4.441  15.405  0.00  0.00    +0.000 C 
ATOM     15  C   UNL     1       5.602   5.036  15.016  0.00  0.00    +0.000 C 
ATOM     16  C   UNL     1       4.475   4.497  15.893  0.00  0.00    +0.000 C 
ATOM     17  N   UNL     1       3.642   6.576  17.856  0.00  0.00    +0.000 NA
ATOM     18  N   UNL     1       2.816   7.257  18.702  0.00  0.00    +0.000 N 
ATOM     19  C   UNL     1       2.443   8.563  18.502  0.00  0.00    +0.000 A 
ATOM     20  C   UNL     1       2.940   9.374  17.354  0.00  0.00    +0.000 C 
ENDROOT
BRANCH   1  21
ATOM     21  C   UNL     1       0.835  10.247  19.570  0.00  0.00    +0.000 C 
BRANCH  21  22
ATOM     22  O   UNL     1       0.261  10.618  18.308  0.00  0.00    +0.000 OA
BRANCH  22  24
ATOM     23  N   UNL     1      -1.460  10.067  17.028  0.00  0.00    +0.000 N 
ATOM     24  C   UNL     1      -1.088  10.545  18.250  0.00  0.00    +0.000 C 
ATOM     25  O   UNL     1      -1.861  10.843  19.145  0.00  0.00    +0.000 OA
ATOM     26  H   UNL     1      -0.715   9.944  16.353  0.00  0.00    +0.000 HD
BRANCH  23  28
ATOM     27  C   UNL     1      -3.016  10.050  15.133  0.00  0.00    +0.000 C 
ATOM     28  C   UNL     1      -2.845   9.962  16.638  0.00  0.00    +0.000 C 
ENDBRANCH  23  28
ENDBRANCH  22  24
ENDBRANCH  21  22
ENDBRANCH   1  21
BRANCH   2  29
ATOM     29  C   UNL     1       0.559   7.776  21.630  0.00  0.00    +0.000 C 
BRANCH  29  30
ATOM     30  O   UNL     1      -0.472   8.784  21.623  0.00  0.00    +0.000 OA
BRANCH  30  31
ATOM     31  C   UNL     1      -0.403   9.729  22.591  0.00  0.00    +0.000 C 
ATOM     32  O   UNL     1       0.222   9.644  23.637  0.00  0.00    +0.000 OA
ATOM     33  N   UNL     1      -1.155  10.805  22.214  0.00  0.00    +0.000 N 
ATOM     34  H   UNL     1      -1.643  10.721  21.335  0.00  0.00    +0.000 HD
BRANCH  33  35
ATOM     35  C   UNL     1      -1.360  11.960  23.057  0.00  0.00    +0.000 C 
ATOM     36  C   UNL     1      -2.817  12.125  23.451  0.00  0.00    +0.000 C 
ENDBRANCH  33  35
ENDBRANCH  30  31
ENDBRANCH  29  30
ENDBRANCH   2  29
TORSDOF 8
ENDMDL
MODEL 2
REMARK VINA RESULT:      -7.6      1.137      1.604
REMARK  Name = 
REMARK  11 active torsions:
REMARK  status: ('A' for Active; 'I' for Inactive)
REMARK    1  A    between atoms: C_1  and  C_2
REMARK    2  A    between atoms: C_2  and  N_3
REMARK    3  A    between atoms: C_4  and  O_6
REMARK    4  A    between atoms: O_6  and  C_7
REMARK    5  A    between atoms: C_7  and  C_8
REMARK    6  A    between atoms: C_9  and  C_10
REMARK    7  A    between atoms: C_10  and  O_11
REMARK    8  A    between atoms: O_11  and  C_12
REMARK    9  A    between atoms: N_14  and  C_15
REMARK   10  A    between atoms: C_15  and  C_16
REMARK   11  A    between atoms: C_33  and  C_34
REMARK                            x       y       z     vdW  Elec       q    Type
REMARK                         _______ _______ _______ _____ _____    ______ ____
ROOT
ATOM      1  C   UNL     1       1.566   8.829  19.580  0.00  0.00    +0.000 A 
ATOM      2  C   UNL     1       1.474   7.689  20.460  0.00  0.00    +0.000 A 
ATOM      3  C   UNL     1       2.259   6.676  19.887  0.00  0.00    +0.000 A 
ATOM      4  C   UNL     1       2.564   5.275  20.219  0.00  0.00    +0.000 A 
ATOM      5  C   UNL     1       2.033   4.592  21.321  0.00  0.00    +0.000 A 
ATOM      6  C   UNL     1       2.371   3.257  21.576  0.00  0.00    +0.000 A 
ATOM      7  C   UNL     1       3.215   2.572  20.714  0.00  0.00    +0.000 A 
ATOM      8  C   UNL     1       3.717   3.221  19.592  0.00  0.00    +0.000 A 
ATOM      9  C   UNL     1       3.421   4.573  19.354  0.00  0.00    +0.000 A 
ATOM     10  C   UNL     1       3.955   5.284  18.136  0.00  0.00    +0.000 A 
ATOM     11  N   UNL     1       4.783   4.595  17.250  0.00  0.00    +0.000 N 
ATOM     12  C   UNL     1       6.079   4.042  17.639  0.00  0.00    +0.000 C 
ATOM     13  C   UNL     1       7.201   4.623  16.785  0.00  0.00    +0.000 C 
ATOM     14  C   UNL     1       6.908   4.448  15.298  0.00  0.00    +0.000 C 
ATOM     15  C   UNL     1       5.549   5.047  14.946  0.00  0.00    +0.000 C 
ATOM     16  C   UNL     1       4.440   4.485  15.832  0.00  0.00    +0.000 C 
ATOM     17  N   UNL     1       3.636   6.520  17.853  0.00  0.00    +0.000 NA
ATOM     18  N   UNL     1       2.824   7.180  18.728  0.00  0.00    +0.000 N 
ATOM     19  C   UNL     1       2.444   8.488  18.563  0.00  0.00    +0.000 A 
ATOM     20  C   UNL     1       2.917   9.325  17.423  0.00  0.00    +0.000 C 
ENDROOT
BRANCH   1  21
ATOM     21  C   UNL     1       0.850  10.144  19.695  0.00  0.00    +0.000 C 
BRANCH  21  22
ATOM     22  O   UNL     1      -0.280  10.219  18.813  0.00  0.00    +0.000 OA
BRANCH  22  24
ATOM     23  N   UNL     1      -0.139  12.363  18.279  0.00  0.00    +0.000 N 
ATOM     24  C   UNL     1      -0.936  11.400  18.824  0.00  0.00    +0.000 C 
ATOM     25  O   UNL     1      -2.068  11.587  19.240  0.00  0.00    +0.000 OA
ATOM     26  H   UNL     1       0.808  12.082  18.056  0.00  0.00    +0.000 HD
BRANCH  23  28
ATOM     27  C   UNL     1       0.265  14.598  19.204  0.00  0.00    +0.000 C 
ATOM     28  C   UNL     1      -0.537  13.750  18.235  0.00  0.00    +0.000 C 
ENDBRANCH  23  28
ENDBRANCH  22  24
ENDBRANCH  21  22
ENDBRANCH   1  21
BRANCH   2  29
ATOM     29  C   UNL     1       0.620   7.630  21.707  0.00  0.00    +0.000 C 
BRANCH  29  30
ATOM     30  O   UNL     1      -0.444   8.603  21.718  0.00  0.00    +0.000 OA
BRANCH  30  31
ATOM     31  C   UNL     1      -0.365   9.579  22.653  0.00  0.00    +0.000 C 
ATOM     32  O   UNL     1       0.326   9.557  23.660  0.00  0.00    +0.000 OA
ATOM     33  N   UNL     1      -1.191  10.605  22.294  0.00  0.00    +0.000 N 
ATOM     34  H   UNL     1      -1.728  10.470  21.450  0.00  0.00    +0.000 HD
BRANCH  33  35
ATOM     35  C   UNL     1      -1.403  11.774  23.116  0.00  0.00    +0.000 C 
ATOM     36  C   UNL     1      -0.814  13.025  22.488  0.00  0.00    +0.000 C 
ENDBRANCH  33  35
ENDBRANCH  30  31
ENDBRANCH  29  30
ENDBRANCH   2  29
TORSDOF 8
ENDMDL
MODEL 3
REMARK VINA RESULT:      -7.5      1.640      1.999
REMARK  Name = 
REMARK  11 active torsions:
REMARK  status: ('A' for Active; 'I' for Inactive)
REMARK    1  A    between atoms: C_1  and  C_2
REMARK    2  A    between atoms: C_2  and  N_3
REMARK    3  A    between atoms: C_4  and  O_6
REMARK    4  A    between atoms: O_6  and  C_7
REMARK    5  A    between atoms: C_7  and  C_8
REMARK    6  A    between atoms: C_9  and  C_10
REMARK    7  A    between atoms: C_10  and  O_11
REMARK    8  A    between atoms: O_11  and  C_12
REMARK    9  A    between atoms: N_14  and  C_15
REMARK   10  A    between atoms: C_15  and  C_16
REMARK   11  A    between atoms: C_33  and  C_34
REMARK                            x       y       z     vdW  Elec       q    Type
REMARK                         _______ _______ _______ _____ _____    ______ ____
ROOT
ATOM      1  C   UNL     1       1.388   8.880  19.502  0.00  0.00    +0.000 A 
ATOM      2  C   UNL     1       1.324   7.758  20.408  0.00  0.00    +0.000 A 
ATOM      3  C   UNL     1       2.158   6.764  19.874  0.00  0.00    +0.000 A 
ATOM      4  C   UNL     1       2.513   5.384  20.246  0.00  0.00    +0.000 A 
ATOM      5  C   UNL     1       1.989   4.708  21.355  0.00  0.00    +0.000 A 
ATOM      6  C   UNL     1       2.373   3.393  21.649  0.00  0.00    +0.000 A 
ATOM      7  C   UNL     1       3.260   2.722  20.819  0.00  0.00    +0.000 A 
ATOM      8  C   UNL     1       3.757   3.364  19.691  0.00  0.00    +0.000 A 
ATOM      9  C   UNL     1       3.413   4.697  19.414  0.00  0.00    +0.000 A 
ATOM     10  C   UNL     1       3.941   5.399  18.188  0.00  0.00    +0.000 A 
ATOM     11  N   UNL     1       4.812   4.723  17.335  0.00  0.00    +0.000 N 
ATOM     12  C   UNL     1       6.121   4.232  17.760  0.00  0.00    +0.000 C 
ATOM     13  C   UNL     1       7.235   4.836  16.912  0.00  0.00    +0.000 C 
ATOM     14  C   UNL     1       6.977   4.614  15.425  0.00  0.00    +0.000 C 
ATOM     15  C   UNL     1       5.603   5.150  15.034  0.00  0.00    +0.000 C 
ATOM     16  C   UNL     1       4.500   4.566  15.914  0.00  0.00    +0.000 C 
ATOM     17  N   UNL     1       3.579   6.614  17.869  0.00  0.00    +0.000 NA
ATOM     18  N   UNL     1       2.725   7.262  18.713  0.00  0.00    +0.000 N 
ATOM     19  C   UNL     1       2.296   8.550  18.509  0.00  0.00    +0.000 A 
ATOM     20  C   UNL     1       2.758   9.377  17.358  0.00  0.00    +0.000 C 
ENDROOT
BRANCH   1  21
ATOM     21  C   UNL     1       0.618  10.167  19.571  0.00  0.00    +0.000 C 
BRANCH  21  22
ATOM     22  O   UNL     1       1.317  11.172  20.320  0.00  0.00    +0.000 OA
BRANCH  22  24
ATOM     23  N   UNL     1       0.102  12.783  19.409  0.00  0.00    +0.000 N 
ATOM     24  C   UNL     1       1.366  12.390  19.737  0.00  0.00    +0.000 C 
ATOM     25  O   UNL     1       2.373  13.051  19.541  0.00  0.00    +0.000 OA
ATOM     26  H   UNL     1      -0.628  12.095  19.552  0.00  0.00    +0.000 HD
BRANCH  23  28
ATOM     27  C   UNL     1      -0.561  15.135  19.622  0.00  0.00    +0.000 C 
ATOM     28  C   UNL     1      -0.156  14.007  18.690  0.00  0.00    +0.000 C 
ENDBRANCH  23  28
ENDBRANCH  22  24
ENDBRANCH  21  22
ENDBRANCH   1  21
BRANCH   2  29
ATOM     29  C   UNL     1       0.449   7.695  21.641  0.00  0.00    +0.000 C 
BRANCH  29  30
ATOM     30  O   UNL     1      -0.556   8.727  21.682  0.00  0.00    +0.000 OA
BRANCH  30  31
ATOM     31  C   UNL     1      -0.417   9.672  22.642  0.00  0.00    +0.000 C 
ATOM     32  O   UNL     1       0.272   9.582  23.646  0.00  0.00    +0.000 OA
ATOM     33  N   UNL     1      -1.180  10.755  22.312  0.00  0.00    +0.000 N 
ATOM     34  H   UNL     1      -1.724  10.676  21.465  0.00  0.00    +0.000 HD
BRANCH  33  35
ATOM     35  C   UNL     1      -1.320  11.913  23.165  0.00  0.00    +0.000 C 
ATOM     36  C   UNL     1      -2.763  12.377  23.262  0.00  0.00    +0.000 C 
ENDBRANCH  33  35
ENDBRANCH  30  31
ENDBRANCH  29  30
ENDBRANCH   2  29
TORSDOF 8
ENDMDL
MODEL 4
REMARK VINA RESULT:      -7.5      1.740      2.421
REMARK  Name = 
REMARK  11 active torsions:
REMARK  status: ('A' for Active; 'I' for Inactive)
REMARK    1  A    between atoms: C_1  and  C_2
REMARK    2  A    between atoms: C_2  and  N_3
REMARK    3  A    between atoms: C_4  and  O_6
REMARK    4  A    between atoms: O_6  and  C_7
REMARK    5  A    between atoms: C_7  and  C_8
REMARK    6  A    between atoms: C_9  and  C_10
REMARK    7  A    between atoms: C_10  and  O_11
REMARK    8  A    between atoms: O_11  and  C_12
REMARK    9  A    between atoms: N_14  and  C_15
REMARK   10  A    between atoms: C_15  and  C_16
REMARK   11  A    between atoms: C_33  and  C_34
REMARK                            x       y       z     vdW  Elec       q    Type
REMARK                         _______ _______ _______ _____ _____    ______ ____
ROOT
ATOM      1  C   UNL     1       1.342   8.924  19.495  0.00  0.00    +0.000 A 
ATOM      2  C   UNL     1       1.275   7.803  20.401  0.00  0.00    +0.000 A 
ATOM      3  C   UNL     1       2.119   6.812  19.875  0.00  0.00    +0.000 A 
ATOM      4  C   UNL     1       2.476   5.434  20.251  0.00  0.00    +0.000 A 
ATOM      5  C   UNL     1       1.945   4.756  21.356  0.00  0.00    +0.000 A 
ATOM      6  C   UNL     1       2.333   3.444  21.654  0.00  0.00    +0.000 A 
ATOM      7  C   UNL     1       3.230   2.775  20.833  0.00  0.00    +0.000 A 
ATOM      8  C   UNL     1       3.734   3.418  19.709  0.00  0.00    +0.000 A 
ATOM      9  C   UNL     1       3.386   4.750  19.428  0.00  0.00    +0.000 A 
ATOM     10  C   UNL     1       3.922   5.454  18.206  0.00  0.00    +0.000 A 
ATOM     11  N   UNL     1       4.804   4.781  17.361  0.00  0.00    +0.000 N 
ATOM     12  C   UNL     1       6.111   4.296  17.799  0.00  0.00    +0.000 C 
ATOM     13  C   UNL     1       7.230   4.904  16.960  0.00  0.00    +0.000 C 
ATOM     14  C   UNL     1       6.987   4.680  15.471  0.00  0.00    +0.000 C 
ATOM     15  C   UNL     1       5.613   5.209  15.067  0.00  0.00    +0.000 C 
ATOM     16  C   UNL     1       4.505   4.621  15.938  0.00  0.00    +0.000 C 
ATOM     17  N   UNL     1       3.558   6.667  17.883  0.00  0.00    +0.000 NA
ATOM     18  N   UNL     1       2.694   7.312  18.719  0.00  0.00    +0.000 N 
ATOM     19  C   UNL     1       2.261   8.597  18.510  0.00  0.00    +0.000 A 
ATOM     20  C   UNL     1       2.729   9.426  17.362  0.00  0.00    +0.000 C 
ENDROOT
BRANCH   1  21
ATOM     21  C   UNL     1       0.566  10.208  19.556  0.00  0.00    +0.000 C 
BRANCH  21  22
ATOM     22  O   UNL     1       1.323  11.264  20.165  0.00  0.00    +0.000 OA
BRANCH  22  24
ATOM     23  N   UNL     1       2.410  13.179  19.926  0.00  0.00    +0.000 N 
ATOM     24  C   UNL     1       1.397  12.405  19.443  0.00  0.00    +0.000 C 
ATOM     25  O   UNL     1       0.684  12.702  18.498  0.00  0.00    +0.000 OA
ATOM     26  H   UNL     1       2.861  12.845  20.770  0.00  0.00    +0.000 HD
BRANCH  23  28
ATOM     27  C   UNL     1       3.647  14.468  18.246  0.00  0.00    +0.000 C 
ATOM     28  C   UNL     1       2.675  14.500  19.411  0.00  0.00    +0.000 C 
ENDBRANCH  23  28
ENDBRANCH  22  24
ENDBRANCH  21  22
ENDBRANCH   1  21
BRANCH   2  29
ATOM     29  C   UNL     1       0.390   7.736  21.626  0.00  0.00    +0.000 C 
BRANCH  29  30
ATOM     30  O   UNL     1      -0.600   8.783  21.673  0.00  0.00    +0.000 OA
BRANCH  30  31
ATOM     31  C   UNL     1      -0.438   9.730  22.628  0.00  0.00    +0.000 C 
ATOM     32  O   UNL     1       0.240   9.624  23.638  0.00  0.00    +0.000 OA
ATOM     33  N   UNL     1      -1.162  10.835  22.284  0.00  0.00    +0.000 N 
ATOM     34  H   UNL     1      -1.702  10.768  21.434  0.00  0.00    +0.000 HD
BRANCH  33  35
ATOM     35  C   UNL     1      -1.270  12.003  23.128  0.00  0.00    +0.000 C 
ATOM     36  C   UNL     1      -0.662  13.233  22.477  0.00  0.00    +0.000 C 
ENDBRANCH  33  35
ENDBRANCH  30  31
ENDBRANCH  29  30
ENDBRANCH   2  29
TORSDOF 8
ENDMDL
MODEL 5
REMARK VINA RESULT:      -7.4      3.053      7.918
REMARK  Name = 
REMARK  11 active torsions:
REMARK  status: ('A' for Active; 'I' for Inactive)
REMARK    1  A    between atoms: C_1  and  C_2
REMARK    2  A    between atoms: C_2  and  N_3
REMARK    3  A    between atoms: C_4  and  O_6
REMARK    4  A    between atoms: O_6  and  C_7
REMARK    5  A    between atoms: C_7  and  C_8
REMARK    6  A    between atoms: C_9  and  C_10
REMARK    7  A    between atoms: C_10  and  O_11
REMARK    8  A    between atoms: O_11  and  C_12
REMARK    9  A    between atoms: N_14  and  C_15
REMARK   10  A    between atoms: C_15  and  C_16
REMARK   11  A    between atoms: C_33  and  C_34
REMARK                            x       y       z     vdW  Elec       q    Type
REMARK                         _______ _______ _______ _____ _____    ______ ____
ROOT
ATOM      1  C   UNL     1       2.600   6.802  18.943  0.00  0.00    +0.000 A 
ATOM      2  C   UNL     1       1.782   6.841  20.131  0.00  0.00    +0.000 A 
ATOM      3  C   UNL     1       1.382   8.175  20.299  0.00  0.00    +0.000 A 
ATOM      4  C   UNL     1       0.599   8.915  21.302  0.00  0.00    +0.000 A 
ATOM      5  C   UNL     1       0.045   8.337  22.452  0.00  0.00    +0.000 A 
ATOM      6  C   UNL     1      -0.691   9.104  23.363  0.00  0.00    +0.000 A 
ATOM      7  C   UNL     1      -0.854  10.467  23.160  0.00  0.00    +0.000 A 
ATOM      8  C   UNL     1      -0.276  11.065  22.047  0.00  0.00    +0.000 A 
ATOM      9  C   UNL     1       0.425  10.295  21.103  0.00  0.00    +0.000 A 
ATOM     10  C   UNL     1       1.064  10.935  19.897  0.00  0.00    +0.000 A 
ATOM     11  N   UNL     1       0.926  12.309  19.699  0.00  0.00    +0.000 N 
ATOM     12  C   UNL     1      -0.368  12.960  19.504  0.00  0.00    +0.000 C 
ATOM     13  C   UNL     1      -0.415  13.699  18.171  0.00  0.00    +0.000 C 
ATOM     14  C   UNL     1       0.757  14.666  18.036  0.00  0.00    +0.000 C 
ATOM     15  C   UNL     1       2.081  13.935  18.241  0.00  0.00    +0.000 C 
ATOM     16  C   UNL     1       2.102  13.169  19.562  0.00  0.00    +0.000 C 
ATOM     17  N   UNL     1       1.781  10.254  19.042  0.00  0.00    +0.000 NA
ATOM     18  N   UNL     1       1.907   8.912  19.250  0.00  0.00    +0.000 N 
ATOM     19  C   UNL     1       2.605   8.081  18.410  0.00  0.00    +0.000 A 
ATOM     20  C   UNL     1       3.263   8.568  17.164  0.00  0.00    +0.000 C 
ENDROOT
BRANCH   1  21
ATOM     21  C   UNL     1       3.341   5.628  18.369  0.00  0.00    +0.000 C 
BRANCH  21  22
ATOM     22  O   UNL     1       4.335   5.126  19.274  0.00  0.00    +0.000 OA
BRANCH  22  24
ATOM     23  N   UNL     1       5.428   4.851  17.368  0.00  0.00    +0.000 N 
ATOM     24  C   UNL     1       5.551   4.910  18.725  0.00  0.00    +0.000 C 
ATOM     25  O   UNL     1       6.603   4.796  19.334  0.00  0.00    +0.000 OA
ATOM     26  H   UNL     1       4.482   4.875  17.006  0.00  0.00    +0.000 HD
BRANCH  23  28
ATOM     27  C   UNL     1       6.103   3.894  15.213  0.00  0.00    +0.000 C 
ATOM     28  C   UNL     1       6.547   4.541  16.512  0.00  0.00    +0.000 C 
ENDBRANCH  23  28
ENDBRANCH  22  24
ENDBRANCH  21  22
ENDBRANCH   1  21
BRANCH   2  29
ATOM     29  C   UNL     1       1.506   5.653  21.026  0.00  0.00    +0.000 C 
BRANCH  29  30
ATOM     30  O   UNL     1       0.618   4.684  20.432  0.00  0.00    +0.000 OA
BRANCH  30  31
ATOM     31  C   UNL     1       1.071   3.410  20.359  0.00  0.00    +0.000 C 
ATOM     32  O   UNL     1       1.326   2.681  21.305  0.00  0.00    +0.000 OA
ATOM     33  N   UNL     1       1.203   3.062  19.046  0.00  0.00    +0.000 N 
ATOM     34  H   UNL     1       0.985   3.779  18.370  0.00  0.00    +0.000 HD
BRANCH  33  35
ATOM     35  C   UNL     1       1.741   1.791  18.615  0.00  0.00    +0.000 C 
ATOM     36  C   UNL     1       3.223   1.879  18.297  0.00  0.00    +0.000 C 
ENDBRANCH  33  35
ENDBRANCH  30  31
ENDBRANCH  29  30
ENDBRANCH   2  29
TORSDOF 8
ENDMDL
MODEL 6
REMARK VINA RESULT:      -7.2      3.246     10.355
REMARK  Name = 
REMARK  11 active torsions:
REMARK  status: ('A' for Active; 'I' for Inactive)
REMARK    1  A    between atoms: C_1  and  C_2
REMARK    2  A    between atoms: C_2  and  N_3
REMARK    3  A    between atoms: C_4  and  O_6
REMARK    4  A    between atoms: O_6  and  C_7
REMARK    5  A    between atoms: C_7  and  C_8
REMARK    6  A    between atoms: C_9  and  C_10
REMARK    7  A    between atoms: C_10  and  O_11
REMARK    8  A    between atoms: O_11  and  C_12
REMARK    9  A    between atoms: N_14  and  C_15
REMARK   10  A    between atoms: C_15  and  C_16
REMARK   11  A    between atoms: C_33  and  C_34
REMARK                            x       y       z     vdW  Elec       q    Type
REMARK                         _______ _______ _______ _____ _____    ______ ____
ROOT
ATOM      1  C   UNL     1      -1.202  10.408  18.070  0.00  0.00    +0.000 A 
ATOM      2  C   UNL     1      -2.548  10.501  17.557  0.00  0.00    +0.000 A 
ATOM      3  C   UNL     1      -3.260  11.319  18.447  0.00  0.00    +0.000 A 
ATOM      4  C   UNL     1      -4.654  11.780  18.558  0.00  0.00    +0.000 A 
ATOM      5  C   UNL     1      -5.677  11.417  17.673  0.00  0.00    +0.000 A 
ATOM      6  C   UNL     1      -6.982  11.897  17.840  0.00  0.00    +0.000 A 
ATOM      7  C   UNL     1      -7.294  12.717  18.914  0.00  0.00    +0.000 A 
ATOM      8  C   UNL     1      -6.300  13.054  19.826  0.00  0.00    +0.000 A 
ATOM      9  C   UNL     1      -4.978  12.615  19.641  0.00  0.00    +0.000 A 
ATOM     10  C   UNL     1      -3.895  12.968  20.629  0.00  0.00    +0.000 A 
ATOM     11  N   UNL     1      -4.206  13.771  21.726  0.00  0.00    +0.000 N 
ATOM     12  C   UNL     1      -4.695  15.142  21.595  0.00  0.00    +0.000 C 
ATOM     13  C   UNL     1      -3.772  16.124  22.310  0.00  0.00    +0.000 C 
ATOM     14  C   UNL     1      -3.550  15.713  23.762  0.00  0.00    +0.000 C 
ATOM     15  C   UNL     1      -3.035  14.279  23.841  0.00  0.00    +0.000 C 
ATOM     16  C   UNL     1      -3.947  13.311  23.091  0.00  0.00    +0.000 C 
ATOM     17  N   UNL     1      -2.675  12.514  20.519  0.00  0.00    +0.000 NA
ATOM     18  N   UNL     1      -2.387  11.728  19.441  0.00  0.00    +0.000 N 
ATOM     19  C   UNL     1      -1.138  11.216  19.194  0.00  0.00    +0.000 A 
ATOM     20  C   UNL     1       0.036  11.505  20.067  0.00  0.00    +0.000 C 
ENDROOT
BRANCH   1  21
ATOM     21  C   UNL     1      -0.064   9.588  17.533  0.00  0.00    +0.000 C 
BRANCH  21  22
ATOM     22  O   UNL     1       1.090   9.648  18.384  0.00  0.00    +0.000 OA
BRANCH  22  24
ATOM     23  N   UNL     1       1.832   7.778  19.310  0.00  0.00    +0.000 N 
ATOM     24  C   UNL     1       1.957   8.621  18.245  0.00  0.00    +0.000 C 
ATOM     25  O   UNL     1       2.728   8.454  17.313  0.00  0.00    +0.000 OA
ATOM     26  H   UNL     1       1.214   8.088  20.051  0.00  0.00    +0.000 HD
BRANCH  23  28
ATOM     27  C   UNL     1       2.043   5.566  20.347  0.00  0.00    +0.000 C 
ATOM     28  C   UNL     1       2.692   6.633  19.485  0.00  0.00    +0.000 C 
ENDBRANCH  23  28
ENDBRANCH  22  24
ENDBRANCH  21  22
ENDBRANCH   1  21
BRANCH   2  29
ATOM     29  C   UNL     1      -3.055   9.773  16.332  0.00  0.00    +0.000 C 
BRANCH  29  30
ATOM     30  O   UNL     1      -3.325  10.649  15.218  0.00  0.00    +0.000 OA
BRANCH  30  31
ATOM     31  C   UNL     1      -3.263  10.096  13.983  0.00  0.00    +0.000 C 
ATOM     32  O   UNL     1      -2.258   9.673  13.433  0.00  0.00    +0.000 OA
ATOM     33  N   UNL     1      -4.515  10.089  13.438  0.00  0.00    +0.000 N 
ATOM     34  H   UNL     1      -5.247  10.502  13.996  0.00  0.00    +0.000 HD
BRANCH  33  35
ATOM     35  C   UNL     1      -4.789   9.637  12.093  0.00  0.00    +0.000 C 
ATOM     36  C   UNL     1      -6.242   9.233  11.913  0.00  0.00    +0.000 C 
ENDBRANCH  33  35
ENDBRANCH  30  31
ENDBRANCH  29  30
ENDBRANCH   2  29
TORSDOF 8
ENDMDL
MODEL 7
REMARK VINA RESULT:      -7.2      3.523      9.529
REMARK  Name = 
REMARK  11 active torsions:
REMARK  status: ('A' for Active; 'I' for Inactive)
REMARK    1  A    between atoms: C_1  and  C_2
REMARK    2  A    between atoms: C_2  and  N_3
REMARK    3  A    between atoms: C_4  and  O_6
REMARK    4  A    between atoms: O_6  and  C_7
REMARK    5  A    between atoms: C_7  and  C_8
REMARK    6  A    between atoms: C_9  and  C_10
REMARK    7  A    between atoms: C_10  and  O_11
REMARK    8  A    between atoms: O_11  and  C_12
REMARK    9  A    between atoms: N_14  and  C_15
REMARK   10  A    between atoms: C_15  and  C_16
REMARK   11  A    between atoms: C_33  and  C_34
REMARK                            x       y       z     vdW  Elec       q    Type
REMARK                         _______ _______ _______ _____ _____    ______ ____
ROOT
ATOM      1  C   UNL     1      -0.150  11.685  20.604  0.00  0.00    +0.000 A 
ATOM      2  C   UNL     1      -0.273  11.181  19.257  0.00  0.00    +0.000 A 
ATOM      3  C   UNL     1      -1.615  11.358  18.885  0.00  0.00    +0.000 A 
ATOM      4  C   UNL     1      -2.423  11.032  17.699  0.00  0.00    +0.000 A 
ATOM      5  C   UNL     1      -1.931  10.370  16.567  0.00  0.00    +0.000 A 
ATOM      6  C   UNL     1      -2.759  10.093  15.473  0.00  0.00    +0.000 A 
ATOM      7  C   UNL     1      -4.102  10.440  15.507  0.00  0.00    +0.000 A 
ATOM      8  C   UNL     1      -4.618  11.059  16.639  0.00  0.00    +0.000 A 
ATOM      9  C   UNL     1      -3.784  11.383  17.722  0.00  0.00    +0.000 A 
ATOM     10  C   UNL     1      -4.335  12.047  18.958  0.00  0.00    +0.000 A 
ATOM     11  N   UNL     1      -5.690  12.376  19.011  0.00  0.00    +0.000 N 
ATOM     12  C   UNL     1      -6.317  13.316  18.084  0.00  0.00    +0.000 C 
ATOM     13  C   UNL     1      -6.954  14.482  18.833  0.00  0.00    +0.000 C 
ATOM     14  C   UNL     1      -7.914  13.986  19.910  0.00  0.00    +0.000 C 
ATOM     15  C   UNL     1      -7.208  13.015  20.852  0.00  0.00    +0.000 C 
ATOM     16  C   UNL     1      -6.543  11.872  20.088  0.00  0.00    +0.000 C 
ATOM     17  N   UNL     1      -3.596  12.293  20.008  0.00  0.00    +0.000 NA
ATOM     18  N   UNL     1      -2.273  11.965  19.941  0.00  0.00    +0.000 N 
ATOM     19  C   UNL     1      -1.386  12.200  20.961  0.00  0.00    +0.000 A 
ATOM     20  C   UNL     1      -1.781  12.877  22.230  0.00  0.00    +0.000 C 
ENDROOT
BRANCH   1  21
ATOM     21  C   UNL     1       1.060  11.656  21.493  0.00  0.00    +0.000 C 
BRANCH  21  22
ATOM     22  O   UNL     1       2.058  12.598  21.074  0.00  0.00    +0.000 OA
BRANCH  22  24
ATOM     23  N   UNL     1       1.668  14.446  19.918  0.00  0.00    +0.000 N 
ATOM     24  C   UNL     1       1.692  13.896  21.165  0.00  0.00    +0.000 C 
ATOM     25  O   UNL     1       1.413  14.492  22.193  0.00  0.00    +0.000 OA
ATOM     26  H   UNL     1       2.007  13.858  19.166  0.00  0.00    +0.000 HD
BRANCH  23  28
ATOM     27  C   UNL     1      -0.023  16.082  19.224  0.00  0.00    +0.000 C 
ATOM     28  C   UNL     1       1.397  15.847  19.704  0.00  0.00    +0.000 C 
ENDBRANCH  23  28
ENDBRANCH  22  24
ENDBRANCH  21  22
ENDBRANCH   1  21
BRANCH   2  29
ATOM     29  C   UNL     1       0.846  10.530  18.475  0.00  0.00    +0.000 C 
BRANCH  29  30
ATOM     30  O   UNL     1       1.414   9.382  19.138  0.00  0.00    +0.000 OA
BRANCH  30  31
ATOM     31  C   UNL     1       2.038   8.474  18.350  0.00  0.00    +0.000 C 
ATOM     32  O   UNL     1       2.446   8.665  17.216  0.00  0.00    +0.000 OA
ATOM     33  N   UNL     1       2.137   7.293  19.029  0.00  0.00    +0.000 N 
ATOM     34  H   UNL     1       1.725   7.272  19.950  0.00  0.00    +0.000 HD
BRANCH  33  35
ATOM     35  C   UNL     1       2.682   6.089  18.445  0.00  0.00    +0.000 C 
ATOM     36  C   UNL     1       4.183   5.987  18.650  0.00  0.00    +0.000 C 
ENDBRANCH  33  35
ENDBRANCH  30  31
ENDBRANCH  29  30
ENDBRANCH   2  29
TORSDOF 8
ENDMDL
MODEL 8
REMARK VINA RESULT:      -7.2      3.122      7.894
REMARK  Name = 
REMARK  11 active torsions:
REMARK  status: ('A' for Active; 'I' for Inactive)
REMARK    1  A    between atoms: C_1  and  C_2
REMARK    2  A    between atoms: C_2  and  N_3
REMARK    3  A    between atoms: C_4  and  O_6
REMARK    4  A    between atoms: O_6  and  C_7
REMARK    5  A    between atoms: C_7  and  C_8
REMARK    6  A    between atoms: C_9  and  C_10
REMARK    7  A    between atoms: C_10  and  O_11
REMARK    8  A    between atoms: O_11  and  C_12
REMARK    9  A    between atoms: N_14  and  C_15
REMARK   10  A    between atoms: C_15  and  C_16
REMARK   11  A    between atoms: C_33  and  C_34
REMARK                            x       y       z     vdW  Elec       q    Type
REMARK                         _______ _______ _______ _____ _____    ______ ____
ROOT
ATOM      1  C   UNL     1       2.347   6.847  18.734  0.00  0.00    +0.000 A 
ATOM      2  C   UNL     1       1.531   6.878  19.924  0.00  0.00    +0.000 A 
ATOM      3  C   UNL     1       1.235   8.227  20.172  0.00  0.00    +0.000 A 
ATOM      4  C   UNL     1       0.509   8.964  21.218  0.00  0.00    +0.000 A 
ATOM      5  C   UNL     1      -0.091   8.364  22.333  0.00  0.00    +0.000 A 
ATOM      6  C   UNL     1      -0.768   9.130  23.290  0.00  0.00    +0.000 A 
ATOM      7  C   UNL     1      -0.825  10.511  23.169  0.00  0.00    +0.000 A 
ATOM      8  C   UNL     1      -0.198  11.127  22.092  0.00  0.00    +0.000 A 
ATOM      9  C   UNL     1       0.443  10.363  21.102  0.00  0.00    +0.000 A 
ATOM     10  C   UNL     1       1.133  11.022  19.935  0.00  0.00    +0.000 A 
ATOM     11  N   UNL     1       1.103  12.412  19.819  0.00  0.00    +0.000 N 
ATOM     12  C   UNL     1      -0.137  13.171  19.666  0.00  0.00    +0.000 C 
ATOM     13  C   UNL     1      -0.123  13.990  18.379  0.00  0.00    +0.000 C 
ATOM     14  C   UNL     1       1.121  14.870  18.300  0.00  0.00    +0.000 C 
ATOM     15  C   UNL     1       2.384  14.028  18.459  0.00  0.00    +0.000 C 
ATOM     16  C   UNL     1       2.342  13.185  19.731  0.00  0.00    +0.000 C 
ATOM     17  N   UNL     1       1.798  10.340  19.040  0.00  0.00    +0.000 NA
ATOM     18  N   UNL     1       1.819   8.982  19.168  0.00  0.00    +0.000 N 
ATOM     19  C   UNL     1       2.453   8.151  18.278  0.00  0.00    +0.000 A 
ATOM     20  C   UNL     1       3.150   8.659  17.061  0.00  0.00    +0.000 C 
ENDROOT
BRANCH   1  21
ATOM     21  C   UNL     1       2.996   5.655  18.090  0.00  0.00    +0.000 C 
BRANCH  21  22
ATOM     22  O   UNL     1       4.273   5.357  18.674  0.00  0.00    +0.000 OA
BRANCH  22  24
ATOM     23  N   UNL     1       6.414   5.920  18.640  0.00  0.00    +0.000 N 
ATOM     24  C   UNL     1       5.336   5.590  17.873  0.00  0.00    +0.000 C 
ATOM     25  O   UNL     1       5.347   5.508  16.655  0.00  0.00    +0.000 OA
ATOM     26  H   UNL     1       6.236   6.034  19.630  0.00  0.00    +0.000 HD
BRANCH  23  28
ATOM     27  C   UNL     1       7.681   7.770  17.647  0.00  0.00    +0.000 C 
ATOM     28  C   UNL     1       7.676   6.309  18.058  0.00  0.00    +0.000 C 
ENDBRANCH  23  28
ENDBRANCH  22  24
ENDBRANCH  21  22
ENDBRANCH   1  21
BRANCH   2  29
ATOM     29  C   UNL     1       1.161   5.664  20.747  0.00  0.00    +0.000 C 
BRANCH  29  30
ATOM     30  O   UNL     1       2.303   4.980  21.303  0.00  0.00    +0.000 OA
BRANCH  30  31
ATOM     31  C   UNL     1       2.334   3.634  21.159  0.00  0.00    +0.000 C 
ATOM     32  O   UNL     1       2.621   2.824  22.026  0.00  0.00    +0.000 OA
ATOM     33  N   UNL     1       1.993   3.317  19.875  0.00  0.00    +0.000 N 
ATOM     34  H   UNL     1       1.811   4.095  19.257  0.00  0.00    +0.000 HD
BRANCH  33  35
ATOM     35  C   UNL     1       2.003   1.966  19.365  0.00  0.00    +0.000 C 
ATOM     36  C   UNL     1       3.253   1.674  18.552  0.00  0.00    +0.000 C 
ENDBRANCH  33  35
ENDBRANCH  30  31
ENDBRANCH  29  30
ENDBRANCH   2  29
TORSDOF 8
ENDMDL
MODEL 9
REMARK VINA RESULT:      -7.0      3.003      9.614
REMARK  Name = 
REMARK  11 active torsions:
REMARK  status: ('A' for Active; 'I' for Inactive)
REMARK    1  A    between atoms: C_1  and  C_2
REMARK    2  A    between atoms: C_2  and  N_3
REMARK    3  A    between atoms: C_4  and  O_6
REMARK    4  A    between atoms: O_6  and  C_7
REMARK    5  A    between atoms: C_7  and  C_8
REMARK    6  A    between atoms: C_9  and  C_10
REMARK    7  A    between atoms: C_10  and  O_11
REMARK    8  A    between atoms: O_11  and  C_12
REMARK    9  A    between atoms: N_14  and  C_15
REMARK   10  A    between atoms: C_15  and  C_16
REMARK   11  A    between atoms: C_33  and  C_34
REMARK                            x       y       z     vdW  Elec       q    Type
REMARK                         _______ _______ _______ _____ _____    ______ ____
ROOT
ATOM      1  C   UNL     1       0.442   9.833  20.985  0.00  0.00    +0.000 A 
ATOM      2  C   UNL     1       0.526  10.859  19.973  0.00  0.00    +0.000 A 
ATOM      3  C   UNL     1       0.029  12.036  20.554  0.00  0.00    +0.000 A 
ATOM      4  C   UNL     1      -0.213  13.411  20.088  0.00  0.00    +0.000 A 
ATOM      5  C   UNL     1       0.026  13.854  18.781  0.00  0.00    +0.000 A 
ATOM      6  C   UNL     1      -0.228  15.180  18.409  0.00  0.00    +0.000 A 
ATOM      7  C   UNL     1      -0.759  16.075  19.327  0.00  0.00    +0.000 A 
ATOM      8  C   UNL     1      -1.043  15.641  20.616  0.00  0.00    +0.000 A 
ATOM      9  C   UNL     1      -0.748  14.325  21.011  0.00  0.00    +0.000 A 
ATOM     10  C   UNL     1      -1.059  13.843  22.406  0.00  0.00    +0.000 A 
ATOM     11  N   UNL     1      -1.618  14.729  23.327  0.00  0.00    +0.000 N 
ATOM     12  C   UNL     1      -0.940  15.945  23.773  0.00  0.00    +0.000 C 
ATOM     13  C   UNL     1      -0.751  15.942  25.286  0.00  0.00    +0.000 C 
ATOM     14  C   UNL     1      -2.074  15.707  26.007  0.00  0.00    +0.000 C 
ATOM     15  C   UNL     1      -2.735  14.424  25.509  0.00  0.00    +0.000 C 
ATOM     16  C   UNL     1      -2.886  14.423  23.990  0.00  0.00    +0.000 C 
ATOM     17  N   UNL     1      -0.862  12.605  22.777  0.00  0.00    +0.000 NA
ATOM     18  N   UNL     1      -0.317  11.750  21.864  0.00  0.00    +0.000 N 
ATOM     19  C   UNL     1      -0.030  10.437  22.139  0.00  0.00    +0.000 A 
ATOM     20  C   UNL     1      -0.256   9.829  23.482  0.00  0.00    +0.000 C 
ENDROOT
BRANCH   1  21
ATOM     21  C   UNL     1       0.772   8.374  20.850  0.00  0.00    +0.000 C 
BRANCH  21  22
ATOM     22  O   UNL     1       2.011   8.165  20.156  0.00  0.00    +0.000 OA
BRANCH  22  24
ATOM     23  N   UNL     1       1.867   6.080  20.886  0.00  0.00    +0.000 N 
ATOM     24  C   UNL     1       2.293   6.876  19.865  0.00  0.00    +0.000 C 
ATOM     25  O   UNL     1       2.832   6.472  18.847  0.00  0.00    +0.000 OA
ATOM     26  H   UNL     1       1.516   6.559  21.707  0.00  0.00    +0.000 HD
BRANCH  23  28
ATOM     27  C   UNL     1       0.928   3.877  20.356  0.00  0.00    +0.000 C 
ATOM     28  C   UNL     1       2.110   4.657  20.900  0.00  0.00    +0.000 C 
ENDBRANCH  23  28
ENDBRANCH  22  24
ENDBRANCH  21  22
ENDBRANCH   1  21
BRANCH   2  29
ATOM     29  C   UNL     1       0.998  10.632  18.554  0.00  0.00    +0.000 C 
BRANCH  29  30
ATOM     30  O   UNL     1       0.119   9.784  17.787  0.00  0.00    +0.000 OA
BRANCH  30  31
ATOM     31  C   UNL     1      -1.204  10.068  17.847  0.00  0.00    +0.000 C 
ATOM     32  O   UNL     1      -1.997   9.633  18.668  0.00  0.00    +0.000 OA
ATOM     33  N   UNL     1      -1.520  10.925  16.833  0.00  0.00    +0.000 N 
ATOM     34  H   UNL     1      -0.766  11.175  16.210  0.00  0.00    +0.000 HD
BRANCH  33  35
ATOM     35  C   UNL     1      -2.868  11.368  16.563  0.00  0.00    +0.000 C 
ATOM     36  C   UNL     1      -3.498  10.604  15.411  0.00  0.00    +0.000 C 
ENDBRANCH  33  35
ENDBRANCH  30  31
ENDBRANCH  29  30
ENDBRANCH   2  29
TORSDOF 8
ENDMDL
