MODEL 1
REMARK VINA RESULT:      -6.7      0.000      0.000
REMARK  Name = 
REMARK  7 active torsions:
REMARK  status: ('A' for Active; 'I' for Inactive)
REMARK    1  A    between atoms: C_1  and  C_2
REMARK    2  A    between atoms: C_2  and  C_3
REMARK    3  A    between atoms: C_3  and  C_4
REMARK    4  A    between atoms: C_3  and  N_17
REMARK    5  A    between atoms: N_8  and  C_9
REMARK    6  A    between atoms: C_9  and  C_10
REMARK    7  A    between atoms: N_20  and  C_21
REMARK                            x       y       z     vdW  Elec       q    Type
REMARK                         _______ _______ _______ _____ _____    ______ ____
ROOT
ATOM      1  C   UNL     1       2.189   5.829  19.384  0.00  0.00    +0.000 C 
ENDROOT
BRANCH   1   2
ATOM      2  N   UNL     1       2.538   7.235  19.702  0.00  0.00    +0.000 NA
ATOM      3  C   UNL     1       2.475   8.137  18.517  0.00  0.00    +0.000 C 
ATOM      4  C   UNL     1       1.126   8.866  18.233  0.00  0.00    +0.000 C 
ATOM      5  N   UNL     1       0.506   9.540  19.406  0.00  0.00    +0.000 NA
ATOM      6  C   UNL     1       0.388   8.483  20.430  0.00  0.00    +0.000 C 
ATOM      7  C   UNL     1       1.736   7.834  20.799  0.00  0.00    +0.000 C 
BRANCH   5   8
ATOM      8  C   UNL     1       1.280  10.744  19.832  0.00  0.00    +0.000 C 
ATOM      9  C   UNL     1       1.290  11.828  18.728  0.00  0.00    +0.000 C 
ATOM     10  C   UNL     1      -0.064  12.512  18.554  0.00  0.00    +0.000 C 
ATOM     11  C   UNL     1      -0.543  13.167  19.842  0.00  0.00    +0.000 C 
ATOM     12  C   UNL     1      -0.462  12.245  21.056  0.00  0.00    +0.000 C 
ATOM     13  C   UNL     1       0.837  11.445  21.143  0.00  0.00    +0.000 C 
ENDBRANCH   5   8
ENDBRANCH   1   2
BRANCH   1  14
ATOM     14  C   UNL     1       3.243   4.794  19.715  0.00  0.00    +0.000 A 
ATOM     15  N   UNL     1       2.992   3.680  20.381  0.00  0.00    +0.000 NA
ATOM     16  N   UNL     1       4.118   2.912  20.304  0.00  0.00    +0.000 NA
ATOM     17  N   UNL     1       5.053   3.515  19.596  0.00  0.00    +0.000 NA
ATOM     18  N   UNL     1       4.555   4.732  19.294  0.00  0.00    +0.000 N 
BRANCH  18  19
ATOM     19  C   UNL     1       5.392   5.674  18.558  0.00  0.00    +0.000 C 
BRANCH  19  20
ATOM     20  C   UNL     1       5.767   5.169  17.173  0.00  0.00    +0.000 A 
ATOM     21  C   UNL     1       7.097   5.237  16.716  0.00  0.00    +0.000 A 
ATOM     22  C   UNL     1       7.427   4.870  15.413  0.00  0.00    +0.000 A 
ATOM     23  C   UNL     1       6.442   4.392  14.565  0.00  0.00    +0.000 A 
ATOM     24  F   UNL     1       6.754   4.071  13.303  0.00  0.00    +0.000 F 
ATOM     25  C   UNL     1       5.134   4.248  15.009  0.00  0.00    +0.000 A 
ATOM     26  C   UNL     1       4.799   4.621  16.315  0.00  0.00    +0.000 A 
ENDBRANCH  19  20
ENDBRANCH  18  19
ENDBRANCH   1  14
BRANCH   1  28
ATOM     27  C   UNL     1       1.375   4.153  17.544  0.00  0.00    +0.000 C 
ATOM     28  C   UNL     1       1.767   5.589  17.896  0.00  0.00    +0.000 C 
ENDBRANCH   1  28
TORSDOF 6
ENDMDL
MODEL 2
REMARK VINA RESULT:      -6.6      3.412      8.452
REMARK  Name = 
REMARK  7 active torsions:
REMARK  status: ('A' for Active; 'I' for Inactive)
REMARK    1  A    between atoms: C_1  and  C_2
REMARK    2  A    between atoms: C_2  and  C_3
REMARK    3  A    between atoms: C_3  and  C_4
REMARK    4  A    between atoms: C_3  and  N_17
REMARK    5  A    between atoms: N_8  and  C_9
REMARK    6  A    between atoms: C_9  and  C_10
REMARK    7  A    between atoms: N_20  and  C_21
REMARK                            x       y       z     vdW  Elec       q    Type
REMARK                         _______ _______ _______ _____ _____    ______ ____
ROOT
ATOM      1  C   UNL     1       0.415   9.130  20.231  0.00  0.00    +0.000 C 
ENDROOT
BRANCH   1   2
ATOM      2  N   UNL     1       1.800   8.611  20.122  0.00  0.00    +0.000 NA
ATOM      3  C   UNL     1       1.971   7.263  20.736  0.00  0.00    +0.000 C 
ATOM      4  C   UNL     1       1.769   6.019  19.817  0.00  0.00    +0.000 C 
ATOM      5  N   UNL     1       2.482   6.066  18.513  0.00  0.00    +0.000 NA
ATOM      6  C   UNL     1       2.037   7.327  17.885  0.00  0.00    +0.000 C 
ATOM      7  C   UNL     1       2.336   8.575  18.738  0.00  0.00    +0.000 C 
BRANCH   5   8
ATOM      8  C   UNL     1       3.960   5.935  18.678  0.00  0.00    +0.000 C 
ATOM      9  C   UNL     1       4.363   4.479  19.015  0.00  0.00    +0.000 C 
ATOM     10  C   UNL     1       4.208   3.529  17.830  0.00  0.00    +0.000 C 
ATOM     11  C   UNL     1       5.036   3.974  16.631  0.00  0.00    +0.000 C 
ATOM     12  C   UNL     1       4.848   5.447  16.278  0.00  0.00    +0.000 C 
ATOM     13  C   UNL     1       4.849   6.380  17.488  0.00  0.00    +0.000 C 
ENDBRANCH   5   8
ENDBRANCH   1   2
BRANCH   1  14
ATOM     14  C   UNL     1       0.245  10.617  20.009  0.00  0.00    +0.000 A 
ATOM     15  N   UNL     1       1.245  11.480  20.035  0.00  0.00    +0.000 NA
ATOM     16  N   UNL     1       0.750  12.672  19.591  0.00  0.00    +0.000 NA
ATOM     17  N   UNL     1      -0.527  12.565  19.277  0.00  0.00    +0.000 NA
ATOM     18  N   UNL     1      -0.882  11.309  19.616  0.00  0.00    +0.000 N 
BRANCH  18  19
ATOM     19  C   UNL     1      -2.272  10.898  19.446  0.00  0.00    +0.000 C 
BRANCH  19  20
ATOM     20  C   UNL     1      -2.667  10.756  17.984  0.00  0.00    +0.000 A 
ATOM     21  C   UNL     1      -3.774  11.455  17.465  0.00  0.00    +0.000 A 
ATOM     22  C   UNL     1      -4.201  11.251  16.155  0.00  0.00    +0.000 A 
ATOM     23  C   UNL     1      -3.505  10.379  15.335  0.00  0.00    +0.000 A 
ATOM     24  F   UNL     1      -3.935  10.157  14.087  0.00  0.00    +0.000 F 
ATOM     25  C   UNL     1      -2.369   9.727  15.797  0.00  0.00    +0.000 A 
ATOM     26  C   UNL     1      -1.941   9.926  17.113  0.00  0.00    +0.000 A 
ENDBRANCH  19  20
ENDBRANCH  18  19
ENDBRANCH   1  14
BRANCH   1  28
ATOM     27  C   UNL     1      -0.025   9.750  22.737  0.00  0.00    +0.000 C 
ATOM     28  C   UNL     1      -0.299   8.787  21.582  0.00  0.00    +0.000 C 
ENDBRANCH   1  28
TORSDOF 6
ENDMDL
MODEL 3
REMARK VINA RESULT:      -6.5      3.441      8.450
REMARK  Name = 
REMARK  7 active torsions:
REMARK  status: ('A' for Active; 'I' for Inactive)
REMARK    1  A    between atoms: C_1  and  C_2
REMARK    2  A    between atoms: C_2  and  C_3
REMARK    3  A    between atoms: C_3  and  C_4
REMARK    4  A    between atoms: C_3  and  N_17
REMARK    5  A    between atoms: N_8  and  C_9
REMARK    6  A    between atoms: C_9  and  C_10
REMARK    7  A    between atoms: N_20  and  C_21
REMARK                            x       y       z     vdW  Elec       q    Type
REMARK                         _______ _______ _______ _____ _____    ______ ____
ROOT
ATOM      1  C   UNL     1       0.588   9.307  19.758  0.00  0.00    +0.000 C 
ENDROOT
BRANCH   1   2
ATOM      2  N   UNL     1       1.961   8.749  19.694  0.00  0.00    +0.000 NA
ATOM      3  C   UNL     1       2.065   7.380  20.273  0.00  0.00    +0.000 C 
ATOM      4  C   UNL     1       1.867   6.170  19.308  0.00  0.00    +0.000 C 
ATOM      5  N   UNL     1       2.639   6.234  18.038  0.00  0.00    +0.000 NA
ATOM      6  C   UNL     1       2.259   7.525  17.430  0.00  0.00    +0.000 C 
ATOM      7  C   UNL     1       2.556   8.738  18.334  0.00  0.00    +0.000 C 
BRANCH   5   8
ATOM      8  C   UNL     1       4.104   6.052  18.263  0.00  0.00    +0.000 C 
ATOM      9  C   UNL     1       4.475   4.555  18.385  0.00  0.00    +0.000 C 
ATOM     10  C   UNL     1       4.383   3.810  17.055  0.00  0.00    +0.000 C 
ATOM     11  C   UNL     1       5.283   4.426  15.993  0.00  0.00    +0.000 C 
ATOM     12  C   UNL     1       5.127   5.939  15.870  0.00  0.00    +0.000 C 
ATOM     13  C   UNL     1       5.065   6.667  17.212  0.00  0.00    +0.000 C 
ENDBRANCH   5   8
ENDBRANCH   1   2
BRANCH   1  14
ATOM     14  C   UNL     1       0.462  10.791  19.493  0.00  0.00    +0.000 A 
ATOM     15  N   UNL     1       1.498  11.600  19.352  0.00  0.00    +0.000 NA
ATOM     16  N   UNL     1       1.007  12.799  18.923  0.00  0.00    +0.000 NA
ATOM     17  N   UNL     1      -0.303  12.749  18.781  0.00  0.00    +0.000 NA
ATOM     18  N   UNL     1      -0.672  11.527  19.219  0.00  0.00    +0.000 N 
BRANCH  18  19
ATOM     19  C   UNL     1      -2.090  11.186  19.248  0.00  0.00    +0.000 C 
BRANCH  19  20
ATOM     20  C   UNL     1      -2.648  10.876  17.867  0.00  0.00    +0.000 A 
ATOM     21  C   UNL     1      -2.015   9.940  17.027  0.00  0.00    +0.000 A 
ATOM     22  C   UNL     1      -2.462   9.728  15.725  0.00  0.00    +0.000 A 
ATOM     23  C   UNL     1      -3.570  10.415  15.260  0.00  0.00    +0.000 A 
ATOM     24  F   UNL     1      -3.980  10.235  13.998  0.00  0.00    +0.000 F 
ATOM     25  C   UNL     1      -4.258  11.293  16.088  0.00  0.00    +0.000 A 
ATOM     26  C   UNL     1      -3.807  11.513  17.394  0.00  0.00    +0.000 A 
ENDBRANCH  19  20
ENDBRANCH  18  19
ENDBRANCH   1  14
BRANCH   1  28
ATOM     27  C   UNL     1       0.354   9.776  22.324  0.00  0.00    +0.000 C 
ATOM     28  C   UNL     1      -0.164   9.018  21.101  0.00  0.00    +0.000 C 
ENDBRANCH   1  28
TORSDOF 6
ENDMDL
MODEL 4
REMARK VINA RESULT:      -6.5      0.881      1.060
REMARK  Name = 
REMARK  7 active torsions:
REMARK  status: ('A' for Active; 'I' for Inactive)
REMARK    1  A    between atoms: C_1  and  C_2
REMARK    2  A    between atoms: C_2  and  C_3
REMARK    3  A    between atoms: C_3  and  C_4
REMARK    4  A    between atoms: C_3  and  N_17
REMARK    5  A    between atoms: N_8  and  C_9
REMARK    6  A    between atoms: C_9  and  C_10
REMARK    7  A    between atoms: N_20  and  C_21
REMARK                            x       y       z     vdW  Elec       q    Type
REMARK                         _______ _______ _______ _____ _____    ______ ____
ROOT
ATOM      1  C   UNL     1       1.785   6.107  19.354  0.00  0.00    +0.000 C 
ENDROOT
BRANCH   1   2
ATOM      2  N   UNL     1       2.265   7.477  19.661  0.00  0.00    +0.000 NA
ATOM      3  C   UNL     1       2.292   8.370  18.469  0.00  0.00    +0.000 C 
ATOM      4  C   UNL     1       1.018   9.222  18.175  0.00  0.00    +0.000 C 
ATOM      5  N   UNL     1       0.464   9.963  19.341  0.00  0.00    +0.000 NA
ATOM      6  C   UNL     1       0.243   8.930  20.374  0.00  0.00    +0.000 C 
ATOM      7  C   UNL     1       1.523   8.158  20.751  0.00  0.00    +0.000 C 
BRANCH   5   8
ATOM      8  C   UNL     1       1.348  11.091  19.759  0.00  0.00    +0.000 C 
ATOM      9  C   UNL     1       1.480  12.150  18.639  0.00  0.00    +0.000 C 
ATOM     10  C   UNL     1       0.203  12.961  18.434  0.00  0.00    +0.000 C 
ATOM     11  C   UNL     1      -0.225  13.682  19.705  0.00  0.00    +0.000 C 
ATOM     12  C   UNL     1      -0.252  12.778  20.935  0.00  0.00    +0.000 C 
ATOM     13  C   UNL     1       0.960  11.854  21.052  0.00  0.00    +0.000 C 
ENDBRANCH   5   8
ENDBRANCH   1   2
BRANCH   1  14
ATOM     14  C   UNL     1       2.555   4.975  19.999  0.00  0.00    +0.000 A 
ATOM     15  N   UNL     1       1.982   3.989  20.668  0.00  0.00    +0.000 NA
ATOM     16  N   UNL     1       2.955   3.064  20.916  0.00  0.00    +0.000 NA
ATOM     17  N   UNL     1       4.109   3.445  20.405  0.00  0.00    +0.000 NA
ATOM     18  N   UNL     1       3.899   4.679  19.905  0.00  0.00    +0.000 N 
BRANCH  18  19
ATOM     19  C   UNL     1       5.021   5.405  19.320  0.00  0.00    +0.000 C 
BRANCH  19  20
ATOM     20  C   UNL     1       5.132   5.200  17.817  0.00  0.00    +0.000 A 
ATOM     21  C   UNL     1       5.212   3.905  17.269  0.00  0.00    +0.000 A 
ATOM     22  C   UNL     1       5.416   3.715  15.904  0.00  0.00    +0.000 A 
ATOM     23  C   UNL     1       5.502   4.813  15.065  0.00  0.00    +0.000 A 
ATOM     24  F   UNL     1       5.731   4.632  13.758  0.00  0.00    +0.000 F 
ATOM     25  C   UNL     1       5.358   6.101  15.565  0.00  0.00    +0.000 A 
ATOM     26  C   UNL     1       5.158   6.295  16.936  0.00  0.00    +0.000 A 
ENDBRANCH  19  20
ENDBRANCH  18  19
ENDBRANCH   1  14
BRANCH   1  28
ATOM     27  C   UNL     1       1.478   4.311  17.474  0.00  0.00    +0.000 C 
ATOM     28  C   UNL     1       1.694   5.783  17.825  0.00  0.00    +0.000 C 
ENDBRANCH   1  28
TORSDOF 6
ENDMDL
MODEL 5
REMARK VINA RESULT:      -6.5      4.239      6.662
REMARK  Name = 
REMARK  7 active torsions:
REMARK  status: ('A' for Active; 'I' for Inactive)
REMARK    1  A    between atoms: C_1  and  C_2
REMARK    2  A    between atoms: C_2  and  C_3
REMARK    3  A    between atoms: C_3  and  C_4
REMARK    4  A    between atoms: C_3  and  N_17
REMARK    5  A    between atoms: N_8  and  C_9
REMARK    6  A    between atoms: C_9  and  C_10
REMARK    7  A    between atoms: N_20  and  C_21
REMARK                            x       y       z     vdW  Elec       q    Type
REMARK                         _______ _______ _______ _____ _____    ______ ____
ROOT
ATOM      1  C   UNL     1       0.315  11.575  21.262  0.00  0.00    +0.000 C 
ENDROOT
BRANCH   1   2
ATOM      2  N   UNL     1       0.602  13.029  21.314  0.00  0.00    +0.000 NA
ATOM      3  C   UNL     1       1.967  13.375  20.826  0.00  0.00    +0.000 C 
ATOM      4  C   UNL     1       2.128  13.718  19.312  0.00  0.00    +0.000 C 
ATOM      5  N   UNL     1       1.143  14.692  18.770  0.00  0.00    +0.000 NA
ATOM      6  C   UNL     1      -0.176  14.114  19.094  0.00  0.00    +0.000 C 
ATOM      7  C   UNL     1      -0.388  13.877  20.603  0.00  0.00    +0.000 C 
BRANCH   5   8
ATOM      8  C   UNL     1       1.372  16.070  19.296  0.00  0.00    +0.000 C 
ATOM      9  C   UNL     1       2.645  16.703  18.687  0.00  0.00    +0.000 C 
ATOM     10  C   UNL     1       2.478  17.075  17.215  0.00  0.00    +0.000 C 
ATOM     11  C   UNL     1       1.328  18.050  17.000  0.00  0.00    +0.000 C 
ATOM     12  C   UNL     1       0.033  17.619  17.684  0.00  0.00    +0.000 C 
ATOM     13  C   UNL     1       0.227  17.100  19.108  0.00  0.00    +0.000 C 
ENDBRANCH   5   8
ENDBRANCH   1   2
BRANCH   1  14
ATOM     14  C   UNL     1      -0.408  11.086  20.025  0.00  0.00    +0.000 A 
ATOM     15  N   UNL     1      -1.717  11.167  19.863  0.00  0.00    +0.000 NA
ATOM     16  N   UNL     1      -1.975  10.828  18.566  0.00  0.00    +0.000 NA
ATOM     17  N   UNL     1      -0.859  10.554  17.919  0.00  0.00    +0.000 NA
ATOM     18  N   UNL     1       0.124  10.624  18.839  0.00  0.00    +0.000 N 
BRANCH  18  19
ATOM     19  C   UNL     1       1.490  10.305  18.439  0.00  0.00    +0.000 C 
BRANCH  19  20
ATOM     20  C   UNL     1       1.869   8.863  18.741  0.00  0.00    +0.000 A 
ATOM     21  C   UNL     1       1.550   8.278  19.982  0.00  0.00    +0.000 A 
ATOM     22  C   UNL     1       1.984   6.993  20.301  0.00  0.00    +0.000 A 
ATOM     23  C   UNL     1       2.704   6.262  19.372  0.00  0.00    +0.000 A 
ATOM     24  F   UNL     1       3.149   5.040  19.691  0.00  0.00    +0.000 F 
ATOM     25  C   UNL     1       2.975   6.785  18.114  0.00  0.00    +0.000 A 
ATOM     26  C   UNL     1       2.545   8.077  17.793  0.00  0.00    +0.000 A 
ENDBRANCH  19  20
ENDBRANCH  18  19
ENDBRANCH   1  14
BRANCH   1  28
ATOM     27  C   UNL     1      -0.044   9.650  23.000  0.00  0.00    +0.000 C 
ATOM     28  C   UNL     1      -0.475  11.028  22.497  0.00  0.00    +0.000 C 
ENDBRANCH   1  28
TORSDOF 6
ENDMDL
MODEL 6
REMARK VINA RESULT:      -6.3      3.854      8.758
REMARK  Name = 
REMARK  7 active torsions:
REMARK  status: ('A' for Active; 'I' for Inactive)
REMARK    1  A    between atoms: C_1  and  C_2
REMARK    2  A    between atoms: C_2  and  C_3
REMARK    3  A    between atoms: C_3  and  C_4
REMARK    4  A    between atoms: C_3  and  N_17
REMARK    5  A    between atoms: N_8  and  C_9
REMARK    6  A    between atoms: C_9  and  C_10
REMARK    7  A    between atoms: N_20  and  C_21
REMARK                            x       y       z     vdW  Elec       q    Type
REMARK                         _______ _______ _______ _____ _____    ______ ____
ROOT
ATOM      1  C   UNL     1       0.455   8.828  20.331  0.00  0.00    +0.000 C 
ENDROOT
BRANCH   1   2
ATOM      2  N   UNL     1       1.831   8.287  20.213  0.00  0.00    +0.000 NA
ATOM      3  C   UNL     1       1.915   6.830  20.514  0.00  0.00    +0.000 C 
ATOM      4  C   UNL     1       1.760   5.835  19.322  0.00  0.00    +0.000 C 
ATOM      5  N   UNL     1       2.583   6.145  18.122  0.00  0.00    +0.000 NA
ATOM      6  C   UNL     1       2.225   7.533  17.767  0.00  0.00    +0.000 C 
ATOM      7  C   UNL     1       2.482   8.542  18.903  0.00  0.00    +0.000 C 
BRANCH   5   8
ATOM      8  C   UNL     1       4.038   5.914  18.367  0.00  0.00    +0.000 C 
ATOM      9  C   UNL     1       4.370   4.404  18.412  0.00  0.00    +0.000 C 
ATOM     10  C   UNL     1       4.289   3.735  17.042  0.00  0.00    +0.000 C 
ATOM     11  C   UNL     1       5.226   4.385  16.034  0.00  0.00    +0.000 C 
ATOM     12  C   UNL     1       5.110   5.907  15.992  0.00  0.00    +0.000 C 
ATOM     13  C   UNL     1       5.036   6.562  17.370  0.00  0.00    +0.000 C 
ENDBRANCH   5   8
ENDBRANCH   1   2
BRANCH   1  14
ATOM     14  C   UNL     1       0.261  10.254  19.861  0.00  0.00    +0.000 A 
ATOM     15  N   UNL     1       0.745  11.306  20.498  0.00  0.00    +0.000 NA
ATOM     16  N   UNL     1       0.554  12.383  19.681  0.00  0.00    +0.000 NA
ATOM     17  N   UNL     1      -0.022  12.022  18.551  0.00  0.00    +0.000 NA
ATOM     18  N   UNL     1      -0.294  10.708  18.683  0.00  0.00    +0.000 N 
BRANCH  18  19
ATOM     19  C   UNL     1      -0.999  10.021  17.606  0.00  0.00    +0.000 C 
BRANCH  19  20
ATOM     20  C   UNL     1      -2.402  10.565  17.383  0.00  0.00    +0.000 A 
ATOM     21  C   UNL     1      -2.963  10.607  16.092  0.00  0.00    +0.000 A 
ATOM     22  C   UNL     1      -4.205  11.196  15.869  0.00  0.00    +0.000 A 
ATOM     23  C   UNL     1      -4.921  11.712  16.936  0.00  0.00    +0.000 A 
ATOM     24  F   UNL     1      -6.100  12.308  16.717  0.00  0.00    +0.000 F 
ATOM     25  C   UNL     1      -4.425  11.623  18.231  0.00  0.00    +0.000 A 
ATOM     26  C   UNL     1      -3.176  11.038  18.457  0.00  0.00    +0.000 A 
ENDBRANCH  19  20
ENDBRANCH  18  19
ENDBRANCH   1  14
BRANCH   1  28
ATOM     27  C   UNL     1       0.709   9.314  22.891  0.00  0.00    +0.000 C 
ATOM     28  C   UNL     1      -0.154   8.736  21.770  0.00  0.00    +0.000 C 
ENDBRANCH   1  28
TORSDOF 6
ENDMDL
MODEL 7
REMARK VINA RESULT:      -6.3      3.919      6.291
REMARK  Name = 
REMARK  7 active torsions:
REMARK  status: ('A' for Active; 'I' for Inactive)
REMARK    1  A    between atoms: C_1  and  C_2
REMARK    2  A    between atoms: C_2  and  C_3
REMARK    3  A    between atoms: C_3  and  C_4
REMARK    4  A    between atoms: C_3  and  N_17
REMARK    5  A    between atoms: N_8  and  C_9
REMARK    6  A    between atoms: C_9  and  C_10
REMARK    7  A    between atoms: N_20  and  C_21
REMARK                            x       y       z     vdW  Elec       q    Type
REMARK                         _______ _______ _______ _____ _____    ______ ____
ROOT
ATOM      1  C   UNL     1       0.417  11.043  20.856  0.00  0.00    +0.000 C 
ENDROOT
BRANCH   1   2
ATOM      2  N   UNL     1       0.313  12.509  21.054  0.00  0.00    +0.000 NA
ATOM      3  C   UNL     1       1.619  13.214  20.909  0.00  0.00    +0.000 C 
ATOM      4  C   UNL     1       1.998  13.749  19.494  0.00  0.00    +0.000 C 
ATOM      5  N   UNL     1       0.934  14.522  18.798  0.00  0.00    +0.000 NA
ATOM      6  C   UNL     1      -0.236  13.623  18.781  0.00  0.00    +0.000 C 
ATOM      7  C   UNL     1      -0.688  13.178  20.186  0.00  0.00    +0.000 C 
BRANCH   5   8
ATOM      8  C   UNL     1       0.697  15.850  19.440  0.00  0.00    +0.000 C 
ATOM      9  C   UNL     1       1.911  16.791  19.254  0.00  0.00    +0.000 C 
ATOM     10  C   UNL     1       2.065  17.287  17.818  0.00  0.00    +0.000 C 
ATOM     11  C   UNL     1       0.825  18.028  17.335  0.00  0.00    +0.000 C 
ATOM     12  C   UNL     1      -0.474  17.270  17.596  0.00  0.00    +0.000 C 
ATOM     13  C   UNL     1      -0.557  16.642  18.987  0.00  0.00    +0.000 C 
ENDBRANCH   5   8
ENDBRANCH   1   2
BRANCH   1  14
ATOM     14  C   UNL     1      -0.256  10.493  19.617  0.00  0.00    +0.000 A 
ATOM     15  N   UNL     1      -1.566  10.482  19.438  0.00  0.00    +0.000 NA
ATOM     16  N   UNL     1      -1.784  10.113  18.142  0.00  0.00    +0.000 NA
ATOM     17  N   UNL     1      -0.644   9.909  17.511  0.00  0.00    +0.000 NA
ATOM     18  N   UNL     1       0.321  10.056  18.442  0.00  0.00    +0.000 N 
BRANCH  18  19
ATOM     19  C   UNL     1       1.710   9.828  18.061  0.00  0.00    +0.000 C 
BRANCH  19  20
ATOM     20  C   UNL     1       2.211   8.450  18.465  0.00  0.00    +0.000 A 
ATOM     21  C   UNL     1       3.040   7.703  17.606  0.00  0.00    +0.000 A 
ATOM     22  C   UNL     1       3.418   6.401  17.928  0.00  0.00    +0.000 A 
ATOM     23  C   UNL     1       3.009   5.845  19.128  0.00  0.00    +0.000 A 
ATOM     24  F   UNL     1       3.345   4.583  19.422  0.00  0.00    +0.000 F 
ATOM     25  C   UNL     1       2.248   6.581  20.027  0.00  0.00    +0.000 A 
ATOM     26  C   UNL     1       1.862   7.886  19.704  0.00  0.00    +0.000 A 
ENDBRANCH  19  20
ENDBRANCH  18  19
ENDBRANCH   1  14
BRANCH   1  28
ATOM     27  C   UNL     1      -0.992  10.924  23.059  0.00  0.00    +0.000 C 
ATOM     28  C   UNL     1      -0.091  10.190  22.066  0.00  0.00    +0.000 C 
ENDBRANCH   1  28
TORSDOF 6
ENDMDL
MODEL 8
REMARK VINA RESULT:      -6.3      1.757      2.144
REMARK  Name = 
REMARK  7 active torsions:
REMARK  status: ('A' for Active; 'I' for Inactive)
REMARK    1  A    between atoms: C_1  and  C_2
REMARK    2  A    between atoms: C_2  and  C_3
REMARK    3  A    between atoms: C_3  and  C_4
REMARK    4  A    between atoms: C_3  and  N_17
REMARK    5  A    between atoms: N_8  and  C_9
REMARK    6  A    between atoms: C_9  and  C_10
REMARK    7  A    between atoms: N_20  and  C_21
REMARK                            x       y       z     vdW  Elec       q    Type
REMARK                         _______ _______ _______ _____ _____    ______ ____
ROOT
ATOM      1  C   UNL     1       1.988   5.779  19.331  0.00  0.00    +0.000 C 
ENDROOT
BRANCH   1   2
ATOM      2  N   UNL     1       2.456   7.152  19.639  0.00  0.00    +0.000 NA
ATOM      3  C   UNL     1       2.465   8.049  18.449  0.00  0.00    +0.000 C 
ATOM      4  C   UNL     1       1.180   8.889  18.166  0.00  0.00    +0.000 C 
ATOM      5  N   UNL     1       0.626   9.620  19.338  0.00  0.00    +0.000 NA
ATOM      6  C   UNL     1       0.423   8.582  20.369  0.00  0.00    +0.000 C 
ATOM      7  C   UNL     1       1.713   7.823  20.736  0.00  0.00    +0.000 C 
BRANCH   5   8
ATOM      8  C   UNL     1       1.501  10.756  19.753  0.00  0.00    +0.000 C 
ATOM      9  C   UNL     1       1.600  11.828  18.641  0.00  0.00    +0.000 C 
ATOM     10  C   UNL     1       0.309  12.623  18.465  0.00  0.00    +0.000 C 
ATOM     11  C   UNL     1      -0.108  13.326  19.750  0.00  0.00    +0.000 C 
ATOM     12  C   UNL     1      -0.104  12.409  20.970  0.00  0.00    +0.000 C 
ATOM     13  C   UNL     1       1.122  11.501  21.060  0.00  0.00    +0.000 C 
ENDBRANCH   5   8
ENDBRANCH   1   2
BRANCH   1  14
ATOM     14  C   UNL     1       2.725   4.656  20.029  0.00  0.00    +0.000 A 
ATOM     15  N   UNL     1       2.388   4.186  21.217  0.00  0.00    +0.000 NA
ATOM     16  N   UNL     1       3.133   3.060  21.422  0.00  0.00    +0.000 NA
ATOM     17  N   UNL     1       3.911   2.815  20.386  0.00  0.00    +0.000 NA
ATOM     18  N   UNL     1       3.735   3.851  19.542  0.00  0.00    +0.000 N 
BRANCH  18  19
ATOM     19  C   UNL     1       4.519   3.902  18.313  0.00  0.00    +0.000 C 
BRANCH  19  20
ATOM     20  C   UNL     1       5.562   5.009  18.327  0.00  0.00    +0.000 A 
ATOM     21  C   UNL     1       5.499   6.071  17.404  0.00  0.00    +0.000 A 
ATOM     22  C   UNL     1       6.507   7.031  17.347  0.00  0.00    +0.000 A 
ATOM     23  C   UNL     1       7.567   6.967  18.236  0.00  0.00    +0.000 A 
ATOM     24  F   UNL     1       8.551   7.871  18.159  0.00  0.00    +0.000 F 
ATOM     25  C   UNL     1       7.620   5.972  19.203  0.00  0.00    +0.000 A 
ATOM     26  C   UNL     1       6.613   5.003  19.260  0.00  0.00    +0.000 A 
ENDBRANCH  19  20
ENDBRANCH  18  19
ENDBRANCH   1  14
BRANCH   1  28
ATOM     27  C   UNL     1       1.162   4.189  17.422  0.00  0.00    +0.000 C 
ATOM     28  C   UNL     1       1.967   5.431  17.805  0.00  0.00    +0.000 C 
ENDBRANCH   1  28
TORSDOF 6
ENDMDL
MODEL 9
REMARK VINA RESULT:      -6.3      3.941      6.182
REMARK  Name = 
REMARK  7 active torsions:
REMARK  status: ('A' for Active; 'I' for Inactive)
REMARK    1  A    between atoms: C_1  and  C_2
REMARK    2  A    between atoms: C_2  and  C_3
REMARK    3  A    between atoms: C_3  and  C_4
REMARK    4  A    between atoms: C_3  and  N_17
REMARK    5  A    between atoms: N_8  and  C_9
REMARK    6  A    between atoms: C_9  and  C_10
REMARK    7  A    between atoms: N_20  and  C_21
REMARK                            x       y       z     vdW  Elec       q    Type
REMARK                         _______ _______ _______ _____ _____    ______ ____
ROOT
ATOM      1  C   UNL     1       0.385  10.873  21.157  0.00  0.00    +0.000 C 
ENDROOT
BRANCH   1   2
ATOM      2  N   UNL     1       0.696  12.320  21.252  0.00  0.00    +0.000 NA
ATOM      3  C   UNL     1       1.188  12.900  19.971  0.00  0.00    +0.000 C 
ATOM      4  C   UNL     1       0.130  13.513  19.001  0.00  0.00    +0.000 C 
ATOM      5  N   UNL     1      -0.845  14.445  19.628  0.00  0.00    +0.000 NA
ATOM      6  C   UNL     1      -1.451  13.672  20.730  0.00  0.00    +0.000 C 
ATOM      7  C   UNL     1      -0.422  13.157  21.756  0.00  0.00    +0.000 C 
BRANCH   5   8
ATOM      8  C   UNL     1      -0.205  15.730  20.039  0.00  0.00    +0.000 C 
ATOM      9  C   UNL     1       0.485  16.425  18.841  0.00  0.00    +0.000 C 
ATOM     10  C   UNL     1      -0.508  17.008  17.838  0.00  0.00    +0.000 C 
ATOM     11  C   UNL     1      -1.445  18.019  18.485  0.00  0.00    +0.000 C 
ATOM     12  C   UNL     1      -2.086  17.513  19.774  0.00  0.00    +0.000 C 
ATOM     13  C   UNL     1      -1.116  16.793  20.709  0.00  0.00    +0.000 C 
ENDBRANCH   5   8
ENDBRANCH   1   2
BRANCH   1  14
ATOM     14  C   UNL     1      -0.131  10.393  19.817  0.00  0.00    +0.000 A 
ATOM     15  N   UNL     1      -1.373  10.575  19.403  0.00  0.00    +0.000 NA
ATOM     16  N   UNL     1      -1.409  10.203  18.090  0.00  0.00    +0.000 NA
ATOM     17  N   UNL     1      -0.220   9.810  17.678  0.00  0.00    +0.000 NA
ATOM     18  N   UNL     1       0.573   9.838  18.769  0.00  0.00    +0.000 N 
BRANCH  18  19
ATOM     19  C   UNL     1       1.956   9.390  18.648  0.00  0.00    +0.000 C 
BRANCH  19  20
ATOM     20  C   UNL     1       2.126   7.914  18.972  0.00  0.00    +0.000 A 
ATOM     21  C   UNL     1       2.641   7.020  18.014  0.00  0.00    +0.000 A 
ATOM     22  C   UNL     1       2.703   5.652  18.270  0.00  0.00    +0.000 A 
ATOM     23  C   UNL     1       2.292   5.166  19.500  0.00  0.00    +0.000 A 
ATOM     24  F   UNL     1       2.321   3.848  19.734  0.00  0.00    +0.000 F 
ATOM     25  C   UNL     1       1.845   6.030  20.490  0.00  0.00    +0.000 A 
ATOM     26  C   UNL     1       1.776   7.404  20.234  0.00  0.00    +0.000 A 
ENDBRANCH  19  20
ENDBRANCH  18  19
ENDBRANCH   1  14
BRANCH   1  28
ATOM     27  C   UNL     1      -0.044   9.352  23.245  0.00  0.00    +0.000 C 
ATOM     28  C   UNL     1      -0.617  10.355  22.242  0.00  0.00    +0.000 C 
ENDBRANCH   1  28
TORSDOF 6
ENDMDL
