MODEL 1
REMARK VINA RESULT:      -7.9      0.000      0.000
REMARK  Name = 
REMARK  8 active torsions:
REMARK  status: ('A' for Active; 'I' for Inactive)
REMARK    1  A    between atoms: C_1  and  C_2
REMARK    2  A    between atoms: C_2  and  O_3
REMARK    3  A    between atoms: O_3  and  C_4
REMARK    4  A    between atoms: C_4  and  C_6
REMARK    5  A    between atoms: C_7  and  C_8
REMARK    6  A    between atoms: C_10  and  C_11
REMARK    7  A    between atoms: C_14  and  C_15
REMARK    8  A    between atoms: C_19  and  C_20
REMARK                            x       y       z     vdW  Elec       q    Type
REMARK                         _______ _______ _______ _____ _____    ______ ____
ROOT
ATOM      1  C   UNL     1       5.544   5.394  17.080  0.00  0.00    +0.000 C 
ATOM      2  C   UNL     1       5.750   6.720  17.279  0.00  0.00    +0.000 C 
ATOM      3  C   UNL     1       7.054   7.461  17.100  0.00  0.00    +0.000 C 
ATOM      4  N   UNL     1       4.682   7.524  17.653  0.00  0.00    +0.000 N 
ATOM      5  C   UNL     1       3.424   7.049  17.921  0.00  0.00    +0.000 C 
ATOM      6  C   UNL     1       3.107   5.763  17.716  0.00  0.00    +0.000 C 
ATOM      7  C   UNL     1       4.138   4.778  17.189  0.00  0.00    +0.000 C 
ATOM      8  H   UNL     1       4.862   8.504  17.855  0.00  0.00    +0.000 HD
ENDROOT
BRANCH   5   9
ATOM      9  C   UNL     1       2.446   7.968  18.508  0.00  0.00    +0.000 A 
ATOM     10  C   UNL     1       2.067   7.797  19.844  0.00  0.00    +0.000 A 
ATOM     11  C   UNL     1       1.107   8.631  20.421  0.00  0.00    +0.000 A 
ATOM     12  C   UNL     1       0.514   9.649  19.667  0.00  0.00    +0.000 A 
ATOM     13  C   UNL     1      -0.536  10.531  20.269  0.00  0.00    +0.000 C 
ATOM     14  C   UNL     1       0.903   9.824  18.331  0.00  0.00    +0.000 A 
ATOM     15  C   UNL     1       1.862   8.990  17.753  0.00  0.00    +0.000 A 
ENDBRANCH   5   9
BRANCH   7  16
ATOM     16  C   UNL     1       4.075   3.454  17.945  0.00  0.00    +0.000 A 
ATOM     17  C   UNL     1       3.580   2.234  17.519  0.00  0.00    +0.000 A 
ATOM     18  C   UNL     1       3.590   1.254  18.554  0.00  0.00    +0.000 A 
ATOM     19  C   UNL     1       4.131   1.742  19.721  0.00  0.00    +0.000 A 
ATOM     20  S   UNL     1       4.622   3.370  19.571  0.00  0.00    +0.000 S 
ENDBRANCH   7  16
BRANCH   1  21
ATOM     21  C   UNL     1       6.652   4.480  16.702  0.00  0.00    +0.000 C 
ATOM     22  O   UNL     1       7.710   4.357  17.291  0.00  0.00    +0.000 OA
BRANCH  21  23
ATOM     23  O   UNL     1       6.307   3.841  15.555  0.00  0.00    +0.000 OA
BRANCH  23  25
ATOM     24  C   UNL     1       5.980   3.742  13.236  0.00  0.00    +0.000 C 
ATOM     25  C   UNL     1       6.736   4.452  14.338  0.00  0.00    +0.000 C 
ENDBRANCH  23  25
ENDBRANCH  21  23
ENDBRANCH   1  21
TORSDOF 5
ENDMDL
MODEL 2
REMARK VINA RESULT:      -7.8      0.689      1.316
REMARK  Name = 
REMARK  8 active torsions:
REMARK  status: ('A' for Active; 'I' for Inactive)
REMARK    1  A    between atoms: C_1  and  C_2
REMARK    2  A    between atoms: C_2  and  O_3
REMARK    3  A    between atoms: O_3  and  C_4
REMARK    4  A    between atoms: C_4  and  C_6
REMARK    5  A    between atoms: C_7  and  C_8
REMARK    6  A    between atoms: C_10  and  C_11
REMARK    7  A    between atoms: C_14  and  C_15
REMARK    8  A    between atoms: C_19  and  C_20
REMARK                            x       y       z     vdW  Elec       q    Type
REMARK                         _______ _______ _______ _____ _____    ______ ____
ROOT
ATOM      1  C   UNL     1       5.415   5.402  17.269  0.00  0.00    +0.000 C 
ATOM      2  C   UNL     1       5.599   6.740  17.399  0.00  0.00    +0.000 C 
ATOM      3  C   UNL     1       6.890   7.492  17.177  0.00  0.00    +0.000 C 
ATOM      4  N   UNL     1       4.519   7.544  17.734  0.00  0.00    +0.000 N 
ATOM      5  C   UNL     1       3.270   7.064  18.031  0.00  0.00    +0.000 C 
ATOM      6  C   UNL     1       2.973   5.764  17.894  0.00  0.00    +0.000 C 
ATOM      7  C   UNL     1       4.019   4.769  17.415  0.00  0.00    +0.000 C 
ATOM      8  H   UNL     1       4.683   8.537  17.884  0.00  0.00    +0.000 HD
ENDROOT
BRANCH   5   9
ATOM      9  C   UNL     1       2.279   7.996  18.573  0.00  0.00    +0.000 A 
ATOM     10  C   UNL     1       1.732   8.973  17.734  0.00  0.00    +0.000 A 
ATOM     11  C   UNL     1       0.815   9.902  18.230  0.00  0.00    +0.000 A 
ATOM     12  C   UNL     1       0.432   9.864  19.575  0.00  0.00    +0.000 A 
ATOM     13  C   UNL     1      -0.530  10.872  20.123  0.00  0.00    +0.000 C 
ATOM     14  C   UNL     1       0.974   8.877  20.411  0.00  0.00    +0.000 A 
ATOM     15  C   UNL     1       1.893   7.949  19.916  0.00  0.00    +0.000 A 
ENDBRANCH   5   9
BRANCH   7  16
ATOM     16  C   UNL     1       3.980   3.486  18.239  0.00  0.00    +0.000 A 
ATOM     17  C   UNL     1       4.563   3.224  19.466  0.00  0.00    +0.000 A 
ATOM     18  C   UNL     1       4.398   1.866  19.865  0.00  0.00    +0.000 A 
ATOM     19  C   UNL     1       3.659   1.146  18.955  0.00  0.00    +0.000 A 
ATOM     20  S   UNL     1       3.168   2.101  17.628  0.00  0.00    +0.000 S 
ENDBRANCH   7  16
BRANCH   1  21
ATOM     21  C   UNL     1       6.536   4.488  16.936  0.00  0.00    +0.000 C 
ATOM     22  O   UNL     1       7.559   4.345  17.581  0.00  0.00    +0.000 OA
BRANCH  21  23
ATOM     23  O   UNL     1       6.253   3.875  15.758  0.00  0.00    +0.000 OA
BRANCH  23  25
ATOM     24  C   UNL     1       6.011   3.870  13.426  0.00  0.00    +0.000 C 
ATOM     25  C   UNL     1       6.753   4.509  14.580  0.00  0.00    +0.000 C 
ENDBRANCH  23  25
ENDBRANCH  21  23
ENDBRANCH   1  21
TORSDOF 5
ENDMDL
MODEL 3
REMARK VINA RESULT:      -7.5      2.132      3.737
REMARK  Name = 
REMARK  8 active torsions:
REMARK  status: ('A' for Active; 'I' for Inactive)
REMARK    1  A    between atoms: C_1  and  C_2
REMARK    2  A    between atoms: C_2  and  O_3
REMARK    3  A    between atoms: O_3  and  C_4
REMARK    4  A    between atoms: C_4  and  C_6
REMARK    5  A    between atoms: C_7  and  C_8
REMARK    6  A    between atoms: C_10  and  C_11
REMARK    7  A    between atoms: C_14  and  C_15
REMARK    8  A    between atoms: C_19  and  C_20
REMARK                            x       y       z     vdW  Elec       q    Type
REMARK                         _______ _______ _______ _____ _____    ______ ____
ROOT
ATOM      1  C   UNL     1       3.855   4.184  19.784  0.00  0.00    +0.000 C 
ATOM      2  C   UNL     1       2.670   4.413  20.402  0.00  0.00    +0.000 C 
ATOM      3  C   UNL     1       1.855   3.404  21.176  0.00  0.00    +0.000 C 
ATOM      4  N   UNL     1       2.127   5.690  20.379  0.00  0.00    +0.000 N 
ATOM      5  C   UNL     1       2.674   6.741  19.691  0.00  0.00    +0.000 C 
ATOM      6  C   UNL     1       3.863   6.631  19.081  0.00  0.00    +0.000 C 
ATOM      7  C   UNL     1       4.644   5.328  19.120  0.00  0.00    +0.000 C 
ATOM      8  H   UNL     1       1.211   5.834  20.797  0.00  0.00    +0.000 HD
ENDROOT
BRANCH   5   9
ATOM      9  C   UNL     1       1.894   7.975  19.574  0.00  0.00    +0.000 A 
ATOM     10  C   UNL     1       1.212   8.459  20.696  0.00  0.00    +0.000 A 
ATOM     11  C   UNL     1       0.427   9.610  20.607  0.00  0.00    +0.000 A 
ATOM     12  C   UNL     1       0.315  10.294  19.392  0.00  0.00    +0.000 A 
ATOM     13  C   UNL     1      -0.546  11.514  19.279  0.00  0.00    +0.000 C 
ATOM     14  C   UNL     1       1.007   9.812  18.271  0.00  0.00    +0.000 A 
ATOM     15  C   UNL     1       1.791   8.660  18.359  0.00  0.00    +0.000 A 
ENDBRANCH   5   9
BRANCH   7  16
ATOM     16  C   UNL     1       5.230   4.992  17.751  0.00  0.00    +0.000 A 
ATOM     17  C   UNL     1       4.575   4.823  16.545  0.00  0.00    +0.000 A 
ATOM     18  C   UNL     1       5.454   4.402  15.506  0.00  0.00    +0.000 A 
ATOM     19  C   UNL     1       6.757   4.307  15.938  0.00  0.00    +0.000 A 
ATOM     20  S   UNL     1       6.918   4.721  17.587  0.00  0.00    +0.000 S 
ENDBRANCH   7  16
BRANCH   1  21
ATOM     21  C   UNL     1       4.474   2.834  19.754  0.00  0.00    +0.000 C 
ATOM     22  O   UNL     1       5.084   2.307  20.667  0.00  0.00    +0.000 OA
BRANCH  21  23
ATOM     23  O   UNL     1       4.292   2.308  18.517  0.00  0.00    +0.000 OA
BRANCH  23  25
ATOM     24  C   UNL     1       2.140   2.202  17.593  0.00  0.00    +0.000 C 
ATOM     25  C   UNL     1       3.182   1.422  18.364  0.00  0.00    +0.000 C 
ENDBRANCH  23  25
ENDBRANCH  21  23
ENDBRANCH   1  21
TORSDOF 5
ENDMDL
MODEL 4
REMARK VINA RESULT:      -7.5      2.302      4.237
REMARK  Name = 
REMARK  8 active torsions:
REMARK  status: ('A' for Active; 'I' for Inactive)
REMARK    1  A    between atoms: C_1  and  C_2
REMARK    2  A    between atoms: C_2  and  O_3
REMARK    3  A    between atoms: O_3  and  C_4
REMARK    4  A    between atoms: C_4  and  C_6
REMARK    5  A    between atoms: C_7  and  C_8
REMARK    6  A    between atoms: C_10  and  C_11
REMARK    7  A    between atoms: C_14  and  C_15
REMARK    8  A    between atoms: C_19  and  C_20
REMARK                            x       y       z     vdW  Elec       q    Type
REMARK                         _______ _______ _______ _____ _____    ______ ____
ROOT
ATOM      1  C   UNL     1       3.627   3.607  19.612  0.00  0.00    +0.000 C 
ATOM      2  C   UNL     1       2.409   3.864  20.151  0.00  0.00    +0.000 C 
ATOM      3  C   UNL     1       1.446   2.845  20.713  0.00  0.00    +0.000 C 
ATOM      4  N   UNL     1       1.974   5.178  20.249  0.00  0.00    +0.000 N 
ATOM      5  C   UNL     1       2.666   6.252  19.754  0.00  0.00    +0.000 C 
ATOM      6  C   UNL     1       3.896   6.111  19.240  0.00  0.00    +0.000 C 
ATOM      7  C   UNL     1       4.565   4.747  19.175  0.00  0.00    +0.000 C 
ATOM      8  H   UNL     1       1.036   5.352  20.602  0.00  0.00    +0.000 HD
ENDROOT
BRANCH   5   9
ATOM      9  C   UNL     1       2.001   7.557  19.734  0.00  0.00    +0.000 A 
ATOM     10  C   UNL     1       1.368   8.017  20.894  0.00  0.00    +0.000 A 
ATOM     11  C   UNL     1       0.690   9.237  20.895  0.00  0.00    +0.000 A 
ATOM     12  C   UNL     1       0.639  10.016  19.734  0.00  0.00    +0.000 A 
ATOM     13  C   UNL     1      -0.108  11.313  19.717  0.00  0.00    +0.000 C 
ATOM     14  C   UNL     1       1.283   9.557  18.576  0.00  0.00    +0.000 A 
ATOM     15  C   UNL     1       1.959   8.335  18.573  0.00  0.00    +0.000 A 
ENDBRANCH   5   9
BRANCH   7  16
ATOM     16  C   UNL     1       5.252   4.532  17.829  0.00  0.00    +0.000 A 
ATOM     17  C   UNL     1       4.694   4.164  16.618  0.00  0.00    +0.000 A 
ATOM     18  C   UNL     1       5.678   3.951  15.610  0.00  0.00    +0.000 A 
ATOM     19  C   UNL     1       6.950   4.205  16.069  0.00  0.00    +0.000 A 
ATOM     20  S   UNL     1       6.957   4.696  17.704  0.00  0.00    +0.000 S 
ENDBRANCH   7  16
BRANCH   1  21
ATOM     21  C   UNL     1       4.138   2.220  19.459  0.00  0.00    +0.000 C 
ATOM     22  O   UNL     1       3.831   1.439  18.577  0.00  0.00    +0.000 OA
BRANCH  21  23
ATOM     23  O   UNL     1       4.965   1.952  20.501  0.00  0.00    +0.000 OA
BRANCH  23  25
ATOM     24  C   UNL     1       5.960   0.502  22.051  0.00  0.00    +0.000 C 
ATOM     25  C   UNL     1       5.341   0.585  20.673  0.00  0.00    +0.000 C 
ENDBRANCH  23  25
ENDBRANCH  21  23
ENDBRANCH   1  21
TORSDOF 5
ENDMDL
MODEL 5
REMARK VINA RESULT:      -7.3      1.909      2.335
REMARK  Name = 
REMARK  8 active torsions:
REMARK  status: ('A' for Active; 'I' for Inactive)
REMARK    1  A    between atoms: C_1  and  C_2
REMARK    2  A    between atoms: C_2  and  O_3
REMARK    3  A    between atoms: O_3  and  C_4
REMARK    4  A    between atoms: C_4  and  C_6
REMARK    5  A    between atoms: C_7  and  C_8
REMARK    6  A    between atoms: C_10  and  C_11
REMARK    7  A    between atoms: C_14  and  C_15
REMARK    8  A    between atoms: C_19  and  C_20
REMARK                            x       y       z     vdW  Elec       q    Type
REMARK                         _______ _______ _______ _____ _____    ______ ____
ROOT
ATOM      1  C   UNL     1       3.974   5.589  17.861  0.00  0.00    +0.000 C 
ATOM      2  C   UNL     1       4.542   6.791  17.595  0.00  0.00    +0.000 C 
ATOM      3  C   UNL     1       5.968   7.031  17.158  0.00  0.00    +0.000 C 
ATOM      4  N   UNL     1       3.770   7.941  17.685  0.00  0.00    +0.000 N 
ATOM      5  C   UNL     1       2.469   7.958  18.114  0.00  0.00    +0.000 C 
ATOM      6  C   UNL     1       1.803   6.821  18.364  0.00  0.00    +0.000 C 
ATOM      7  C   UNL     1       2.475   5.468  18.191  0.00  0.00    +0.000 C 
ATOM      8  H   UNL     1       4.223   8.840  17.538  0.00  0.00    +0.000 HD
ENDROOT
BRANCH   5   9
ATOM      9  C   UNL     1       1.837   9.255  18.364  0.00  0.00    +0.000 A 
ATOM     10  C   UNL     1       0.609   9.297  19.034  0.00  0.00    +0.000 A 
ATOM     11  C   UNL     1      -0.039  10.514  19.252  0.00  0.00    +0.000 A 
ATOM     12  C   UNL     1       0.536  11.708  18.803  0.00  0.00    +0.000 A 
ATOM     13  C   UNL     1      -0.164  13.016  19.008  0.00  0.00    +0.000 C 
ATOM     14  C   UNL     1       1.771  11.664  18.141  0.00  0.00    +0.000 A 
ATOM     15  C   UNL     1       2.419  10.446  17.921  0.00  0.00    +0.000 A 
ENDBRANCH   5   9
BRANCH   7  16
ATOM     16  C   UNL     1       2.147   4.535  19.354  0.00  0.00    +0.000 A 
ATOM     17  C   UNL     1       2.366   4.726  20.707  0.00  0.00    +0.000 A 
ATOM     18  C   UNL     1       2.027   3.576  21.477  0.00  0.00    +0.000 A 
ATOM     19  C   UNL     1       1.520   2.563  20.696  0.00  0.00    +0.000 A 
ATOM     20  S   UNL     1       1.454   2.995  19.046  0.00  0.00    +0.000 S 
ENDBRANCH   7  16
BRANCH   1  21
ATOM     21  C   UNL     1       4.754   4.326  17.805  0.00  0.00    +0.000 C 
ATOM     22  O   UNL     1       5.424   3.858  18.707  0.00  0.00    +0.000 OA
BRANCH  21  23
ATOM     23  O   UNL     1       4.637   3.807  16.556  0.00  0.00    +0.000 OA
BRANCH  23  25
ATOM     24  C   UNL     1       5.584   4.349  14.481  0.00  0.00    +0.000 C 
ATOM     25  C   UNL     1       5.848   3.677  15.811  0.00  0.00    +0.000 C 
ENDBRANCH  23  25
ENDBRANCH  21  23
ENDBRANCH   1  21
TORSDOF 5
ENDMDL
MODEL 6
REMARK VINA RESULT:      -7.2      1.856      2.293
REMARK  Name = 
REMARK  8 active torsions:
REMARK  status: ('A' for Active; 'I' for Inactive)
REMARK    1  A    between atoms: C_1  and  C_2
REMARK    2  A    between atoms: C_2  and  O_3
REMARK    3  A    between atoms: O_3  and  C_4
REMARK    4  A    between atoms: C_4  and  C_6
REMARK    5  A    between atoms: C_7  and  C_8
REMARK    6  A    between atoms: C_10  and  C_11
REMARK    7  A    between atoms: C_14  and  C_15
REMARK    8  A    between atoms: C_19  and  C_20
REMARK                            x       y       z     vdW  Elec       q    Type
REMARK                         _______ _______ _______ _____ _____    ______ ____
ROOT
ATOM      1  C   UNL     1       3.876   5.552  17.671  0.00  0.00    +0.000 C 
ATOM      2  C   UNL     1       4.481   6.757  17.535  0.00  0.00    +0.000 C 
ATOM      3  C   UNL     1       5.921   6.998  17.145  0.00  0.00    +0.000 C 
ATOM      4  N   UNL     1       3.741   7.915  17.729  0.00  0.00    +0.000 N 
ATOM      5  C   UNL     1       2.433   7.927  18.138  0.00  0.00    +0.000 C 
ATOM      6  C   UNL     1       1.732   6.791  18.263  0.00  0.00    +0.000 C 
ATOM      7  C   UNL     1       2.368   5.442  17.965  0.00  0.00    +0.000 C 
ATOM      8  H   UNL     1       4.220   8.810  17.680  0.00  0.00    +0.000 HD
ENDROOT
BRANCH   5   9
ATOM      9  C   UNL     1       1.833   9.210  18.509  0.00  0.00    +0.000 A 
ATOM     10  C   UNL     1       2.294  10.380  17.896  0.00  0.00    +0.000 A 
ATOM     11  C   UNL     1       1.771  11.623  18.257  0.00  0.00    +0.000 A 
ATOM     12  C   UNL     1       0.777  11.712  19.237  0.00  0.00    +0.000 A 
ATOM     13  C   UNL     1       0.229  13.043  19.650  0.00  0.00    +0.000 C 
ATOM     14  C   UNL     1       0.310  10.537  19.843  0.00  0.00    +0.000 A 
ATOM     15  C   UNL     1       0.834   9.293  19.484  0.00  0.00    +0.000 A 
ENDBRANCH   5   9
BRANCH   7  16
ATOM     16  C   UNL     1       1.994   4.408  19.023  0.00  0.00    +0.000 A 
ATOM     17  C   UNL     1       1.378   3.181  18.858  0.00  0.00    +0.000 A 
ATOM     18  C   UNL     1       1.091   2.547  20.101  0.00  0.00    +0.000 A 
ATOM     19  C   UNL     1       1.536   3.287  21.172  0.00  0.00    +0.000 A 
ATOM     20  S   UNL     1       2.293   4.736  20.683  0.00  0.00    +0.000 S 
ENDBRANCH   7  16
BRANCH   1  21
ATOM     21  C   UNL     1       4.621   4.278  17.499  0.00  0.00    +0.000 C 
ATOM     22  O   UNL     1       5.177   3.651  18.381  0.00  0.00    +0.000 OA
BRANCH  21  23
ATOM     23  O   UNL     1       4.624   3.960  16.179  0.00  0.00    +0.000 OA
BRANCH  23  25
ATOM     24  C   UNL     1       5.789   4.222  14.162  0.00  0.00    +0.000 C 
ATOM     25  C   UNL     1       5.903   3.728  15.588  0.00  0.00    +0.000 C 
ENDBRANCH  23  25
ENDBRANCH  21  23
ENDBRANCH   1  21
TORSDOF 5
ENDMDL
MODEL 7
REMARK VINA RESULT:      -6.9      1.200      1.400
REMARK  Name = 
REMARK  8 active torsions:
REMARK  status: ('A' for Active; 'I' for Inactive)
REMARK    1  A    between atoms: C_1  and  C_2
REMARK    2  A    between atoms: C_2  and  O_3
REMARK    3  A    between atoms: O_3  and  C_4
REMARK    4  A    between atoms: C_4  and  C_6
REMARK    5  A    between atoms: C_7  and  C_8
REMARK    6  A    between atoms: C_10  and  C_11
REMARK    7  A    between atoms: C_14  and  C_15
REMARK    8  A    between atoms: C_19  and  C_20
REMARK                            x       y       z     vdW  Elec       q    Type
REMARK                         _______ _______ _______ _____ _____    ______ ____
ROOT
ATOM      1  C   UNL     1       4.524   5.550  17.375  0.00  0.00    +0.000 C 
ATOM      2  C   UNL     1       4.864   6.862  17.423  0.00  0.00    +0.000 C 
ATOM      3  C   UNL     1       6.208   7.451  17.066  0.00  0.00    +0.000 C 
ATOM      4  N   UNL     1       3.911   7.798  17.798  0.00  0.00    +0.000 N 
ATOM      5  C   UNL     1       2.645   7.476  18.213  0.00  0.00    +0.000 C 
ATOM      6  C   UNL     1       2.196   6.213  18.165  0.00  0.00    +0.000 C 
ATOM      7  C   UNL     1       3.083   5.087  17.659  0.00  0.00    +0.000 C 
ATOM      8  H   UNL     1       4.195   8.770  17.885  0.00  0.00    +0.000 HD
ENDROOT
BRANCH   5   9
ATOM      9  C   UNL     1       1.810   8.536  18.781  0.00  0.00    +0.000 A 
ATOM     10  C   UNL     1       1.468   8.482  20.136  0.00  0.00    +0.000 A 
ATOM     11  C   UNL     1       0.640   9.456  20.698  0.00  0.00    +0.000 A 
ATOM     12  C   UNL     1       0.143  10.499  19.909  0.00  0.00    +0.000 A 
ATOM     13  C   UNL     1      -0.767  11.533  20.497  0.00  0.00    +0.000 C 
ATOM     14  C   UNL     1       0.495  10.556  18.553  0.00  0.00    +0.000 A 
ATOM     15  C   UNL     1       1.322   9.582  17.990  0.00  0.00    +0.000 A 
ENDBRANCH   5   9
BRANCH   7  16
ATOM     16  C   UNL     1       2.969   3.851  18.548  0.00  0.00    +0.000 A 
ATOM     17  C   UNL     1       3.234   3.728  19.900  0.00  0.00    +0.000 A 
ATOM     18  C   UNL     1       3.120   2.382  20.353  0.00  0.00    +0.000 A 
ATOM     19  C   UNL     1       2.730   1.529  19.346  0.00  0.00    +0.000 A 
ATOM     20  S   UNL     1       2.504   2.346  17.864  0.00  0.00    +0.000 S 
ENDBRANCH   7  16
BRANCH   1  21
ATOM     21  C   UNL     1       5.507   4.500  17.004  0.00  0.00    +0.000 C 
ATOM     22  O   UNL     1       6.436   4.116  17.691  0.00  0.00    +0.000 OA
BRANCH  21  23
ATOM     23  O   UNL     1       5.225   4.077  15.745  0.00  0.00    +0.000 OA
BRANCH  23  25
ATOM     24  C   UNL     1       6.822   4.953  14.269  0.00  0.00    +0.000 C 
ATOM     25  C   UNL     1       6.343   3.687  14.946  0.00  0.00    +0.000 C 
ENDBRANCH  23  25
ENDBRANCH  21  23
ENDBRANCH   1  21
TORSDOF 5
ENDMDL
MODEL 8
REMARK VINA RESULT:      -6.9      1.454      2.302
REMARK  Name = 
REMARK  8 active torsions:
REMARK  status: ('A' for Active; 'I' for Inactive)
REMARK    1  A    between atoms: C_1  and  C_2
REMARK    2  A    between atoms: C_2  and  O_3
REMARK    3  A    between atoms: O_3  and  C_4
REMARK    4  A    between atoms: C_4  and  C_6
REMARK    5  A    between atoms: C_7  and  C_8
REMARK    6  A    between atoms: C_10  and  C_11
REMARK    7  A    between atoms: C_14  and  C_15
REMARK    8  A    between atoms: C_19  and  C_20
REMARK                            x       y       z     vdW  Elec       q    Type
REMARK                         _______ _______ _______ _____ _____    ______ ____
ROOT
ATOM      1  C   UNL     1       4.519   5.578  17.282  0.00  0.00    +0.000 C 
ATOM      2  C   UNL     1       4.789   6.907  17.313  0.00  0.00    +0.000 C 
ATOM      3  C   UNL     1       6.079   7.568  16.890  0.00  0.00    +0.000 C 
ATOM      4  N   UNL     1       3.805   7.790  17.735  0.00  0.00    +0.000 N 
ATOM      5  C   UNL     1       2.581   7.400  18.212  0.00  0.00    +0.000 C 
ATOM      6  C   UNL     1       2.200   6.115  18.187  0.00  0.00    +0.000 C 
ATOM      7  C   UNL     1       3.121   5.038  17.637  0.00  0.00    +0.000 C 
ATOM      8  H   UNL     1       4.040   8.777  17.808  0.00  0.00    +0.000 HD
ENDROOT
BRANCH   5   9
ATOM      9  C   UNL     1       1.718   8.415  18.821  0.00  0.00    +0.000 A 
ATOM     10  C   UNL     1       1.177   9.423  18.014  0.00  0.00    +0.000 A 
ATOM     11  C   UNL     1       0.385  10.428  18.571  0.00  0.00    +0.000 A 
ATOM     12  C   UNL     1       0.121  10.438  19.945  0.00  0.00    +0.000 A 
ATOM     13  C   UNL     1      -0.706  11.526  20.556  0.00  0.00    +0.000 C 
ATOM     14  C   UNL     1       0.656   9.421  20.749  0.00  0.00    +0.000 A 
ATOM     15  C   UNL     1       1.451   8.416  20.193  0.00  0.00    +0.000 A 
ENDBRANCH   5   9
BRANCH   7  16
ATOM     16  C   UNL     1       3.120   3.800  18.530  0.00  0.00    +0.000 A 
ATOM     17  C   UNL     1       3.420   3.702  19.877  0.00  0.00    +0.000 A 
ATOM     18  C   UNL     1       3.418   2.353  20.335  0.00  0.00    +0.000 A 
ATOM     19  C   UNL     1       3.073   1.469  19.337  0.00  0.00    +0.000 A 
ATOM     20  S   UNL     1       2.756   2.262  17.859  0.00  0.00    +0.000 S 
ENDBRANCH   7  16
BRANCH   1  21
ATOM     21  C   UNL     1       5.538   4.582  16.863  0.00  0.00    +0.000 C 
ATOM     22  O   UNL     1       5.641   4.087  15.755  0.00  0.00    +0.000 OA
BRANCH  21  23
ATOM     23  O   UNL     1       6.305   4.276  17.940  0.00  0.00    +0.000 OA
BRANCH  23  25
ATOM     24  C   UNL     1       7.945   5.527  19.055  0.00  0.00    +0.000 C 
ATOM     25  C   UNL     1       7.684   4.639  17.858  0.00  0.00    +0.000 C 
ENDBRANCH  23  25
ENDBRANCH  21  23
ENDBRANCH   1  21
TORSDOF 5
ENDMDL
MODEL 9
REMARK VINA RESULT:      -6.9      1.429      1.980
REMARK  Name = 
REMARK  8 active torsions:
REMARK  status: ('A' for Active; 'I' for Inactive)
REMARK    1  A    between atoms: C_1  and  C_2
REMARK    2  A    between atoms: C_2  and  O_3
REMARK    3  A    between atoms: O_3  and  C_4
REMARK    4  A    between atoms: C_4  and  C_6
REMARK    5  A    between atoms: C_7  and  C_8
REMARK    6  A    between atoms: C_10  and  C_11
REMARK    7  A    between atoms: C_14  and  C_15
REMARK    8  A    between atoms: C_19  and  C_20
REMARK                            x       y       z     vdW  Elec       q    Type
REMARK                         _______ _______ _______ _____ _____    ______ ____
ROOT
ATOM      1  C   UNL     1       4.394   5.574  17.291  0.00  0.00    +0.000 C 
ATOM      2  C   UNL     1       4.721   6.889  17.339  0.00  0.00    +0.000 C 
ATOM      3  C   UNL     1       6.051   7.496  16.958  0.00  0.00    +0.000 C 
ATOM      4  N   UNL     1       3.765   7.812  17.740  0.00  0.00    +0.000 N 
ATOM      5  C   UNL     1       2.512   7.473  18.179  0.00  0.00    +0.000 C 
ATOM      6  C   UNL     1       2.076   6.206  18.133  0.00  0.00    +0.000 C 
ATOM      7  C   UNL     1       2.965   5.093  17.601  0.00  0.00    +0.000 C 
ATOM      8  H   UNL     1       4.040   8.787  17.827  0.00  0.00    +0.000 HD
ENDROOT
BRANCH   5   9
ATOM      9  C   UNL     1       1.677   8.521  18.770  0.00  0.00    +0.000 A 
ATOM     10  C   UNL     1       1.435   8.503  20.148  0.00  0.00    +0.000 A 
ATOM     11  C   UNL     1       0.610   9.464  20.736  0.00  0.00    +0.000 A 
ATOM     12  C   UNL     1       0.017  10.458  19.951  0.00  0.00    +0.000 A 
ATOM     13  C   UNL     1      -0.890  11.477  20.569  0.00  0.00    +0.000 C 
ATOM     14  C   UNL     1       0.269  10.480  18.572  0.00  0.00    +0.000 A 
ATOM     15  C   UNL     1       1.093   9.518  17.983  0.00  0.00    +0.000 A 
ENDBRANCH   5   9
BRANCH   7  16
ATOM     16  C   UNL     1       2.884   3.851  18.485  0.00  0.00    +0.000 A 
ATOM     17  C   UNL     1       2.642   2.539  18.117  0.00  0.00    +0.000 A 
ATOM     18  C   UNL     1       2.528   1.674  19.243  0.00  0.00    +0.000 A 
ATOM     19  C   UNL     1       2.729   2.341  20.429  0.00  0.00    +0.000 A 
ATOM     20  S   UNL     1       3.052   4.000  20.187  0.00  0.00    +0.000 S 
ENDBRANCH   7  16
BRANCH   1  21
ATOM     21  C   UNL     1       5.381   4.537  16.893  0.00  0.00    +0.000 C 
ATOM     22  O   UNL     1       5.433   3.976  15.814  0.00  0.00    +0.000 OA
BRANCH  21  23
ATOM     23  O   UNL     1       6.184   4.281  17.957  0.00  0.00    +0.000 OA
BRANCH  23  25
ATOM     24  C   UNL     1       7.953   5.426  18.985  0.00  0.00    +0.000 C 
ATOM     25  C   UNL     1       7.570   4.581  17.790  0.00  0.00    +0.000 C 
ENDBRANCH  23  25
ENDBRANCH  21  23
ENDBRANCH   1  21
TORSDOF 5
ENDMDL
