MODEL 1
REMARK VINA RESULT:      -8.7      0.000      0.000
REMARK  Name = 
REMARK  10 active torsions:
REMARK  status: ('A' for Active; 'I' for Inactive)
REMARK    1  A    between atoms: C_1  and  C_2
REMARK    2  A    between atoms: C_2  and  C_3
REMARK    3  A    between atoms: C_2  and  C_4
REMARK    4  A    between atoms: C_2  and  C_27
REMARK    5  A    between atoms: C_4  and  C_5
REMARK    6  A    between atoms: C_5  and  O_6
REMARK    7  A    between atoms: C_5  and  C_7
REMARK    8  A    between atoms: C_5  and  C_23
REMARK    9  A    between atoms: C_7  and  C_8
REMARK   10  A    between atoms: C_12  and  N_13
REMARK                            x       y       z     vdW  Elec       q    Type
REMARK                         _______ _______ _______ _____ _____    ______ ____
ROOT
ATOM      1  C   UNL     1       3.597   3.841  17.988  0.00  0.00    +0.000 C 
ENDROOT
BRANCH   1   2
ATOM      2  C   UNL     1       2.115   3.355  17.986  0.00  0.00    +0.000 C 
ATOM      3  F   UNL     1       1.297   4.168  17.280  0.00  0.00    +0.000 F 
ATOM      4  F   UNL     1       2.013   2.120  17.426  0.00  0.00    +0.000 F 
ATOM      5  F   UNL     1       1.616   3.242  19.237  0.00  0.00    +0.000 F 
ENDBRANCH   1   2
BRANCH   1   6
ATOM      6  O   UNL     1       4.440   2.640  18.074  0.00  0.00    +0.000 OA
ATOM      7  H   UNL     1       4.782   2.438  17.189  0.00  0.00    +0.000 HD
ENDBRANCH   1   6
BRANCH   1   8
ATOM      8  C   UNL     1       4.007   4.467  16.622  0.00  0.00    +0.000 C 
BRANCH   8  10
ATOM      9  C   UNL     1       6.221   3.579  15.725  0.00  0.00    +0.000 C 
ATOM     10  C   UNL     1       5.458   4.839  16.171  0.00  0.00    +0.000 C 
ATOM     11  C   UNL     1       5.314   5.650  14.840  0.00  0.00    +0.000 C 
BRANCH  10  12
ATOM     12  C   UNL     1       6.305   5.660  17.156  0.00  0.00    +0.000 A 
ATOM     13  C   UNL     1       7.033   5.038  18.194  0.00  0.00    +0.000 A 
ATOM     14  C   UNL     1       7.999   5.741  18.939  0.00  0.00    +0.000 A 
ATOM     15  C   UNL     1       8.218   7.085  18.681  0.00  0.00    +0.000 A 
ATOM     16  C   UNL     1       7.449   7.743  17.722  0.00  0.00    +0.000 A 
ATOM     17  C   UNL     1       6.493   7.045  16.981  0.00  0.00    +0.000 A 
ENDBRANCH  10  12
ENDBRANCH   8  10
ENDBRANCH   1   8
BRANCH   1  18
ATOM     18  C   UNL     1       3.820   4.673  19.295  0.00  0.00    +0.000 C 
BRANCH  18  19
ATOM     19  C   UNL     1       3.162   6.031  19.351  0.00  0.00    +0.000 A 
ATOM     20  C   UNL     1       2.899   7.006  18.399  0.00  0.00    +0.000 A 
ATOM     21  C   UNL     1       1.993   7.947  18.983  0.00  0.00    +0.000 A 
ATOM     22  C   UNL     1       1.242   9.035  18.516  0.00  0.00    +0.000 A 
ATOM     23  C   UNL     1       0.369   9.675  19.398  0.00  0.00    +0.000 A 
ATOM     24  N   UNL     1       0.255   9.267  20.683  0.00  0.00    +0.000 NA
ATOM     25  C   UNL     1       0.991   8.242  21.166  0.00  0.00    +0.000 A 
ATOM     26  C   UNL     1       1.874   7.602  20.320  0.00  0.00    +0.000 A 
ATOM     27  N   UNL     1       2.769   6.590  20.549  0.00  0.00    +0.000 N 
ATOM     28  H   UNL     1       2.966   6.215  21.467  0.00  0.00    +0.000 HD
BRANCH  23  29
ATOM     29  N   UNL     1      -0.422  10.730  19.006  0.00  0.00    +0.000 N 
ATOM     30  C   UNL     1      -0.419  11.967  19.796  0.00  0.00    +0.000 C 
ATOM     31  C   UNL     1      -1.859  12.397  20.101  0.00  0.00    +0.000 C 
ATOM     32  O   UNL     1      -2.634  12.515  18.895  0.00  0.00    +0.000 OA
ATOM     33  C   UNL     1      -2.693  11.246  18.226  0.00  0.00    +0.000 C 
ATOM     34  C   UNL     1      -1.296  10.728  17.839  0.00  0.00    +0.000 C 
ENDBRANCH  23  29
ENDBRANCH  18  19
ENDBRANCH   1  18
TORSDOF 8
ENDMDL
MODEL 2
REMARK VINA RESULT:      -8.5      0.536      1.249
REMARK  Name = 
REMARK  10 active torsions:
REMARK  status: ('A' for Active; 'I' for Inactive)
REMARK    1  A    between atoms: C_1  and  C_2
REMARK    2  A    between atoms: C_2  and  C_3
REMARK    3  A    between atoms: C_2  and  C_4
REMARK    4  A    between atoms: C_2  and  C_27
REMARK    5  A    between atoms: C_4  and  C_5
REMARK    6  A    between atoms: C_5  and  O_6
REMARK    7  A    between atoms: C_5  and  C_7
REMARK    8  A    between atoms: C_5  and  C_23
REMARK    9  A    between atoms: C_7  and  C_8
REMARK   10  A    between atoms: C_12  and  N_13
REMARK                            x       y       z     vdW  Elec       q    Type
REMARK                         _______ _______ _______ _____ _____    ______ ____
ROOT
ATOM      1  C   UNL     1       3.719   3.909  17.867  0.00  0.00    +0.000 C 
ENDROOT
BRANCH   1   2
ATOM      2  C   UNL     1       2.241   3.413  17.889  0.00  0.00    +0.000 C 
ATOM      3  F   UNL     1       1.731   3.335  19.138  0.00  0.00    +0.000 F 
ATOM      4  F   UNL     1       1.437   4.263  17.194  0.00  0.00    +0.000 F 
ATOM      5  F   UNL     1       2.102   2.203  17.303  0.00  0.00    +0.000 F 
ENDBRANCH   1   2
BRANCH   1   6
ATOM      6  O   UNL     1       4.572   2.713  17.912  0.00  0.00    +0.000 OA
ATOM      7  H   UNL     1       5.450   2.971  18.236  0.00  0.00    +0.000 HD
ENDBRANCH   1   6
BRANCH   1   8
ATOM      8  C   UNL     1       4.094   4.564  16.504  0.00  0.00    +0.000 C 
BRANCH   8  10
ATOM      9  C   UNL     1       6.095   3.417  15.419  0.00  0.00    +0.000 C 
ATOM     10  C   UNL     1       5.539   4.756  15.935  0.00  0.00    +0.000 C 
ATOM     11  C   UNL     1       5.390   5.601  14.625  0.00  0.00    +0.000 C 
BRANCH  10  12
ATOM     12  C   UNL     1       6.562   5.447  16.850  0.00  0.00    +0.000 A 
ATOM     13  C   UNL     1       6.708   6.851  16.859  0.00  0.00    +0.000 A 
ATOM     14  C   UNL     1       7.453   7.508  17.858  0.00  0.00    +0.000 A 
ATOM     15  C   UNL     1       8.094   6.763  18.835  0.00  0.00    +0.000 A 
ATOM     16  C   UNL     1       8.039   5.370  18.795  0.00  0.00    +0.000 A 
ATOM     17  C   UNL     1       7.297   4.719  17.806  0.00  0.00    +0.000 A 
ENDBRANCH  10  12
ENDBRANCH   8  10
ENDBRANCH   1   8
BRANCH   1  18
ATOM     18  C   UNL     1       3.965   4.718  19.185  0.00  0.00    +0.000 C 
BRANCH  18  19
ATOM     19  C   UNL     1       3.317   6.079  19.272  0.00  0.00    +0.000 A 
ATOM     20  C   UNL     1       3.162   7.124  18.372  0.00  0.00    +0.000 A 
ATOM     21  C   UNL     1       2.209   8.035  18.927  0.00  0.00    +0.000 A 
ATOM     22  C   UNL     1       1.520   9.165  18.467  0.00  0.00    +0.000 A 
ATOM     23  C   UNL     1       0.566   9.755  19.299  0.00  0.00    +0.000 A 
ATOM     24  N   UNL     1       0.317   9.257  20.533  0.00  0.00    +0.000 NA
ATOM     25  C   UNL     1       0.989   8.188  21.012  0.00  0.00    +0.000 A 
ATOM     26  C   UNL     1       1.949   7.597  20.216  0.00  0.00    +0.000 A 
ATOM     27  N   UNL     1       2.807   6.557  20.461  0.00  0.00    +0.000 N 
ATOM     28  H   UNL     1       2.905   6.114  21.364  0.00  0.00    +0.000 HD
BRANCH  23  29
ATOM     29  N   UNL     1      -0.171  10.848  18.907  0.00  0.00    +0.000 N 
ATOM     30  C   UNL     1       0.503  12.132  18.686  0.00  0.00    +0.000 C 
ATOM     31  C   UNL     1      -0.238  13.248  19.434  0.00  0.00    +0.000 C 
ATOM     32  O   UNL     1      -1.627  13.286  19.068  0.00  0.00    +0.000 OA
ATOM     33  C   UNL     1      -2.258  12.042  19.412  0.00  0.00    +0.000 C 
ATOM     34  C   UNL     1      -1.614  10.846  18.689  0.00  0.00    +0.000 C 
ENDBRANCH  23  29
ENDBRANCH  18  19
ENDBRANCH   1  18
TORSDOF 8
ENDMDL
MODEL 3
REMARK VINA RESULT:      -8.5      0.632      1.236
REMARK  Name = 
REMARK  10 active torsions:
REMARK  status: ('A' for Active; 'I' for Inactive)
REMARK    1  A    between atoms: C_1  and  C_2
REMARK    2  A    between atoms: C_2  and  C_3
REMARK    3  A    between atoms: C_2  and  C_4
REMARK    4  A    between atoms: C_2  and  C_27
REMARK    5  A    between atoms: C_4  and  C_5
REMARK    6  A    between atoms: C_5  and  O_6
REMARK    7  A    between atoms: C_5  and  C_7
REMARK    8  A    between atoms: C_5  and  C_23
REMARK    9  A    between atoms: C_7  and  C_8
REMARK   10  A    between atoms: C_12  and  N_13
REMARK                            x       y       z     vdW  Elec       q    Type
REMARK                         _______ _______ _______ _____ _____    ______ ____
ROOT
ATOM      1  C   UNL     1       3.524   3.785  17.992  0.00  0.00    +0.000 C 
ENDROOT
BRANCH   1   2
ATOM      2  C   UNL     1       2.027   3.350  17.971  0.00  0.00    +0.000 C 
ATOM      3  F   UNL     1       1.844   2.118  17.446  0.00  0.00    +0.000 F 
ATOM      4  F   UNL     1       1.517   3.314  19.232  0.00  0.00    +0.000 F 
ATOM      5  F   UNL     1       1.255   4.219  17.281  0.00  0.00    +0.000 F 
ENDBRANCH   1   2
BRANCH   1   6
ATOM      6  O   UNL     1       4.326   2.554  17.970  0.00  0.00    +0.000 OA
ATOM      7  H   UNL     1       4.883   2.532  18.765  0.00  0.00    +0.000 HD
ENDBRANCH   1   6
BRANCH   1   8
ATOM      8  C   UNL     1       3.940   4.504  16.674  0.00  0.00    +0.000 C 
BRANCH   8  10
ATOM      9  C   UNL     1       6.135   3.558  15.788  0.00  0.00    +0.000 C 
ATOM     10  C   UNL     1       5.400   4.839  16.222  0.00  0.00    +0.000 C 
ATOM     11  C   UNL     1       5.277   5.641  14.884  0.00  0.00    +0.000 C 
BRANCH  10  12
ATOM     12  C   UNL     1       6.264   5.649  17.201  0.00  0.00    +0.000 A 
ATOM     13  C   UNL     1       6.976   5.020  18.245  0.00  0.00    +0.000 A 
ATOM     14  C   UNL     1       7.958   5.708  18.985  0.00  0.00    +0.000 A 
ATOM     15  C   UNL     1       8.207   7.045  18.716  0.00  0.00    +0.000 A 
ATOM     16  C   UNL     1       7.454   7.711  17.750  0.00  0.00    +0.000 A 
ATOM     17  C   UNL     1       6.483   7.028  17.015  0.00  0.00    +0.000 A 
ENDBRANCH  10  12
ENDBRANCH   8  10
ENDBRANCH   1   8
BRANCH   1  18
ATOM     18  C   UNL     1       3.790   4.501  19.358  0.00  0.00    +0.000 C 
BRANCH  18  19
ATOM     19  C   UNL     1       3.173   5.869  19.533  0.00  0.00    +0.000 A 
ATOM     20  C   UNL     1       3.070   6.984  18.714  0.00  0.00    +0.000 A 
ATOM     21  C   UNL     1       2.124   7.874  19.312  0.00  0.00    +0.000 A 
ATOM     22  C   UNL     1       1.476   9.055  18.923  0.00  0.00    +0.000 A 
ATOM     23  C   UNL     1       0.513   9.603  19.772  0.00  0.00    +0.000 A 
ATOM     24  N   UNL     1       0.216   9.018  20.956  0.00  0.00    +0.000 NA
ATOM     25  C   UNL     1       0.847   7.898  21.369  0.00  0.00    +0.000 A 
ATOM     26  C   UNL     1       1.816   7.345  20.555  0.00  0.00    +0.000 A 
ATOM     27  N   UNL     1       2.640   6.266  20.742  0.00  0.00    +0.000 N 
ATOM     28  H   UNL     1       2.700   5.752  21.610  0.00  0.00    +0.000 HD
BRANCH  23  29
ATOM     29  N   UNL     1      -0.185  10.743  19.447  0.00  0.00    +0.000 N 
ATOM     30  C   UNL     1      -1.505  10.627  18.817  0.00  0.00    +0.000 C 
ATOM     31  C   UNL     1      -1.572  11.523  17.574  0.00  0.00    +0.000 C 
ATOM     32  O   UNL     1      -1.233  12.883  17.894  0.00  0.00    +0.000 OA
ATOM     33  C   UNL     1       0.110  12.946  18.400  0.00  0.00    +0.000 C 
ATOM     34  C   UNL     1       0.288  12.104  19.676  0.00  0.00    +0.000 C 
ENDBRANCH  23  29
ENDBRANCH  18  19
ENDBRANCH   1  18
TORSDOF 8
ENDMDL
MODEL 4
REMARK VINA RESULT:      -8.4      1.338      1.882
REMARK  Name = 
REMARK  10 active torsions:
REMARK  status: ('A' for Active; 'I' for Inactive)
REMARK    1  A    between atoms: C_1  and  C_2
REMARK    2  A    between atoms: C_2  and  C_3
REMARK    3  A    between atoms: C_2  and  C_4
REMARK    4  A    between atoms: C_2  and  C_27
REMARK    5  A    between atoms: C_4  and  C_5
REMARK    6  A    between atoms: C_5  and  O_6
REMARK    7  A    between atoms: C_5  and  C_7
REMARK    8  A    between atoms: C_5  and  C_23
REMARK    9  A    between atoms: C_7  and  C_8
REMARK   10  A    between atoms: C_12  and  N_13
REMARK                            x       y       z     vdW  Elec       q    Type
REMARK                         _______ _______ _______ _____ _____    ______ ____
ROOT
ATOM      1  C   UNL     1       3.677   3.994  18.243  0.00  0.00    +0.000 C 
ENDROOT
BRANCH   1   2
ATOM      2  C   UNL     1       2.237   3.402  18.330  0.00  0.00    +0.000 C 
ATOM      3  F   UNL     1       1.758   3.369  19.593  0.00  0.00    +0.000 F 
ATOM      4  F   UNL     1       1.363   4.148  17.602  0.00  0.00    +0.000 F 
ATOM      5  F   UNL     1       2.171   2.150  17.824  0.00  0.00    +0.000 F 
ENDBRANCH   1   2
BRANCH   1   6
ATOM      6  O   UNL     1       4.610   2.890  18.504  0.00  0.00    +0.000 OA
ATOM      7  H   UNL     1       4.099   2.104  18.755  0.00  0.00    +0.000 HD
ENDBRANCH   1   6
BRANCH   1   8
ATOM      8  C   UNL     1       4.040   4.432  16.792  0.00  0.00    +0.000 C 
BRANCH   8  10
ATOM      9  C   UNL     1       6.246   3.615  15.812  0.00  0.00    +0.000 C 
ATOM     10  C   UNL     1       5.457   4.851  16.278  0.00  0.00    +0.000 C 
ATOM     11  C   UNL     1       5.230   5.643  14.948  0.00  0.00    +0.000 C 
BRANCH  10  12
ATOM     12  C   UNL     1       6.314   5.712  17.220  0.00  0.00    +0.000 A 
ATOM     13  C   UNL     1       7.069   5.130  18.262  0.00  0.00    +0.000 A 
ATOM     14  C   UNL     1       8.042   5.866  18.965  0.00  0.00    +0.000 A 
ATOM     15  C   UNL     1       8.242   7.204  18.661  0.00  0.00    +0.000 A 
ATOM     16  C   UNL     1       7.446   7.824  17.697  0.00  0.00    +0.000 A 
ATOM     17  C   UNL     1       6.483   7.092  16.998  0.00  0.00    +0.000 A 
ENDBRANCH  10  12
ENDBRANCH   8  10
ENDBRANCH   1   8
BRANCH   1  18
ATOM     18  C   UNL     1       3.832   5.032  19.405  0.00  0.00    +0.000 C 
BRANCH  18  19
ATOM     19  C   UNL     1       2.899   6.219  19.377  0.00  0.00    +0.000 A 
ATOM     20  C   UNL     1       1.980   6.734  20.279  0.00  0.00    +0.000 A 
ATOM     21  C   UNL     1       1.611   8.039  19.823  0.00  0.00    +0.000 A 
ATOM     22  C   UNL     1       0.872   9.110  20.346  0.00  0.00    +0.000 A 
ATOM     23  C   UNL     1       0.808  10.300  19.618  0.00  0.00    +0.000 A 
ATOM     24  N   UNL     1       1.432  10.418  18.423  0.00  0.00    +0.000 NA
ATOM     25  C   UNL     1       2.123   9.391  17.883  0.00  0.00    +0.000 A 
ATOM     26  C   UNL     1       2.189   8.199  18.574  0.00  0.00    +0.000 A 
ATOM     27  N   UNL     1       2.761   6.997  18.246  0.00  0.00    +0.000 N 
ATOM     28  H   UNL     1       3.166   6.799  17.342  0.00  0.00    +0.000 HD
BRANCH  23  29
ATOM     29  N   UNL     1       0.128  11.403  20.078  0.00  0.00    +0.000 N 
ATOM     30  C   UNL     1       0.351  12.707  19.443  0.00  0.00    +0.000 C 
ATOM     31  C   UNL     1       0.633  13.769  20.512  0.00  0.00    +0.000 C 
ATOM     32  O   UNL     1      -0.415  13.808  21.496  0.00  0.00    +0.000 OA
ATOM     33  C   UNL     1      -0.509  12.538  22.161  0.00  0.00    +0.000 C 
ATOM     34  C   UNL     1      -0.825  11.393  21.183  0.00  0.00    +0.000 C 
ENDBRANCH  23  29
ENDBRANCH  18  19
ENDBRANCH   1  18
TORSDOF 8
ENDMDL
MODEL 5
REMARK VINA RESULT:      -8.4      1.782      3.000
REMARK  Name = 
REMARK  10 active torsions:
REMARK  status: ('A' for Active; 'I' for Inactive)
REMARK    1  A    between atoms: C_1  and  C_2
REMARK    2  A    between atoms: C_2  and  C_3
REMARK    3  A    between atoms: C_2  and  C_4
REMARK    4  A    between atoms: C_2  and  C_27
REMARK    5  A    between atoms: C_4  and  C_5
REMARK    6  A    between atoms: C_5  and  O_6
REMARK    7  A    between atoms: C_5  and  C_7
REMARK    8  A    between atoms: C_5  and  C_23
REMARK    9  A    between atoms: C_7  and  C_8
REMARK   10  A    between atoms: C_12  and  N_13
REMARK                            x       y       z     vdW  Elec       q    Type
REMARK                         _______ _______ _______ _____ _____    ______ ____
ROOT
ATOM      1  C   UNL     1       3.973   4.160  17.897  0.00  0.00    +0.000 C 
ENDROOT
BRANCH   1   2
ATOM      2  C   UNL     1       3.877   2.857  18.746  0.00  0.00    +0.000 C 
ATOM      3  F   UNL     1       4.889   2.732  19.634  0.00  0.00    +0.000 F 
ATOM      4  F   UNL     1       2.723   2.835  19.467  0.00  0.00    +0.000 F 
ATOM      5  F   UNL     1       3.857   1.747  17.975  0.00  0.00    +0.000 F 
ENDBRANCH   1   2
BRANCH   1   6
ATOM      6  O   UNL     1       4.830   5.094  18.642  0.00  0.00    +0.000 OA
ATOM      7  H   UNL     1       5.377   5.585  18.008  0.00  0.00    +0.000 HD
ENDBRANCH   1   6
BRANCH   1   8
ATOM      8  C   UNL     1       4.761   3.935  16.571  0.00  0.00    +0.000 C 
BRANCH   8  10
ATOM      9  C   UNL     1       5.380   6.344  16.016  0.00  0.00    +0.000 C 
ATOM     10  C   UNL     1       5.852   4.880  15.970  0.00  0.00    +0.000 C 
ATOM     11  C   UNL     1       7.052   4.868  16.975  0.00  0.00    +0.000 C 
BRANCH  10  12
ATOM     12  C   UNL     1       6.383   4.530  14.570  0.00  0.00    +0.000 A 
ATOM     13  C   UNL     1       5.719   3.596  13.746  0.00  0.00    +0.000 A 
ATOM     14  C   UNL     1       6.046   3.453  12.383  0.00  0.00    +0.000 A 
ATOM     15  C   UNL     1       7.070   4.214  11.841  0.00  0.00    +0.000 A 
ATOM     16  C   UNL     1       7.800   5.078  12.657  0.00  0.00    +0.000 A 
ATOM     17  C   UNL     1       7.473   5.222  14.007  0.00  0.00    +0.000 A 
ENDBRANCH  10  12
ENDBRANCH   8  10
ENDBRANCH   1   8
BRANCH   1  18
ATOM     18  C   UNL     1       2.540   4.785  17.825  0.00  0.00    +0.000 C 
BRANCH  18  19
ATOM     19  C   UNL     1       2.394   6.199  18.336  0.00  0.00    +0.000 A 
ATOM     20  C   UNL     1       2.375   7.442  17.719  0.00  0.00    +0.000 A 
ATOM     21  C   UNL     1       1.914   8.395  18.680  0.00  0.00    +0.000 A 
ATOM     22  C   UNL     1       1.532   9.743  18.649  0.00  0.00    +0.000 A 
ATOM     23  C   UNL     1       1.032  10.327  19.815  0.00  0.00    +0.000 A 
ATOM     24  N   UNL     1       0.930   9.613  20.961  0.00  0.00    +0.000 NA
ATOM     25  C   UNL     1       1.321   8.322  21.026  0.00  0.00    +0.000 A 
ATOM     26  C   UNL     1       1.834   7.726  19.892  0.00  0.00    +0.000 A 
ATOM     27  N   UNL     1       2.350   6.473  19.687  0.00  0.00    +0.000 N 
ATOM     28  H   UNL     1       2.509   5.806  20.429  0.00  0.00    +0.000 HD
BRANCH  23  29
ATOM     29  N   UNL     1       0.610  11.635  19.856  0.00  0.00    +0.000 N 
ATOM     30  C   UNL     1      -0.215  12.094  20.979  0.00  0.00    +0.000 C 
ATOM     31  C   UNL     1      -1.449  12.838  20.453  0.00  0.00    +0.000 C 
ATOM     32  O   UNL     1      -1.074  13.909  19.571  0.00  0.00    +0.000 OA
ATOM     33  C   UNL     1      -0.369  13.384  18.436  0.00  0.00    +0.000 C 
ATOM     34  C   UNL     1       0.915  12.641  18.844  0.00  0.00    +0.000 C 
ENDBRANCH  23  29
ENDBRANCH  18  19
ENDBRANCH   1  18
TORSDOF 8
ENDMDL
MODEL 6
REMARK VINA RESULT:      -8.3      1.055      1.804
REMARK  Name = 
REMARK  10 active torsions:
REMARK  status: ('A' for Active; 'I' for Inactive)
REMARK    1  A    between atoms: C_1  and  C_2
REMARK    2  A    between atoms: C_2  and  C_3
REMARK    3  A    between atoms: C_2  and  C_4
REMARK    4  A    between atoms: C_2  and  C_27
REMARK    5  A    between atoms: C_4  and  C_5
REMARK    6  A    between atoms: C_5  and  O_6
REMARK    7  A    between atoms: C_5  and  C_7
REMARK    8  A    between atoms: C_5  and  C_23
REMARK    9  A    between atoms: C_7  and  C_8
REMARK   10  A    between atoms: C_12  and  N_13
REMARK                            x       y       z     vdW  Elec       q    Type
REMARK                         _______ _______ _______ _____ _____    ______ ____
ROOT
ATOM      1  C   UNL     1       3.916   4.024  18.170  0.00  0.00    +0.000 C 
ENDROOT
BRANCH   1   2
ATOM      2  C   UNL     1       2.506   3.383  18.348  0.00  0.00    +0.000 C 
ATOM      3  F   UNL     1       2.119   3.316  19.641  0.00  0.00    +0.000 F 
ATOM      4  F   UNL     1       1.559   4.110  17.696  0.00  0.00    +0.000 F 
ATOM      5  F   UNL     1       2.445   2.137  17.827  0.00  0.00    +0.000 F 
ENDBRANCH   1   2
BRANCH   1   6
ATOM      6  O   UNL     1       4.903   2.963  18.416  0.00  0.00    +0.000 OA
ATOM      7  H   UNL     1       5.792   3.345  18.350  0.00  0.00    +0.000 HD
ENDBRANCH   1   6
BRANCH   1   8
ATOM      8  C   UNL     1       4.190   4.429  16.691  0.00  0.00    +0.000 C 
BRANCH   8  10
ATOM      9  C   UNL     1       6.190   3.441  15.460  0.00  0.00    +0.000 C 
ATOM     10  C   UNL     1       5.588   4.726  16.055  0.00  0.00    +0.000 C 
ATOM     11  C   UNL     1       5.321   5.606  14.788  0.00  0.00    +0.000 C 
BRANCH  10  12
ATOM     12  C   UNL     1       6.619   5.443  16.941  0.00  0.00    +0.000 A 
ATOM     13  C   UNL     1       6.776   6.845  16.895  0.00  0.00    +0.000 A 
ATOM     14  C   UNL     1       7.528   7.534  17.866  0.00  0.00    +0.000 A 
ATOM     15  C   UNL     1       8.165   6.822  18.871  0.00  0.00    +0.000 A 
ATOM     16  C   UNL     1       8.098   5.429  18.885  0.00  0.00    +0.000 A 
ATOM     17  C   UNL     1       7.350   4.747  17.923  0.00  0.00    +0.000 A 
ENDBRANCH  10  12
ENDBRANCH   8  10
ENDBRANCH   1   8
BRANCH   1  18
ATOM     18  C   UNL     1       4.090   5.102  19.291  0.00  0.00    +0.000 C 
BRANCH  18  19
ATOM     19  C   UNL     1       3.088   6.232  19.301  0.00  0.00    +0.000 A 
ATOM     20  C   UNL     1       2.171   6.690  20.236  0.00  0.00    +0.000 A 
ATOM     21  C   UNL     1       1.710   7.972  19.798  0.00  0.00    +0.000 A 
ATOM     22  C   UNL     1       0.928   8.996  20.350  0.00  0.00    +0.000 A 
ATOM     23  C   UNL     1       0.768  10.181  19.629  0.00  0.00    +0.000 A 
ATOM     24  N   UNL     1       1.342  10.338  18.414  0.00  0.00    +0.000 NA
ATOM     25  C   UNL     1       2.073   9.355  17.846  0.00  0.00    +0.000 A 
ATOM     26  C   UNL     1       2.234   8.167  18.530  0.00  0.00    +0.000 A 
ATOM     27  N   UNL     1       2.864   7.002  18.178  0.00  0.00    +0.000 N 
ATOM     28  H   UNL     1       3.248   6.830  17.259  0.00  0.00    +0.000 HD
BRANCH  23  29
ATOM     29  N   UNL     1       0.040  11.241  20.117  0.00  0.00    +0.000 N 
ATOM     30  C   UNL     1       0.048  11.521  21.558  0.00  0.00    +0.000 C 
ATOM     31  C   UNL     1      -1.389  11.689  22.066  0.00  0.00    +0.000 C 
ATOM     32  O   UNL     1      -2.094  12.692  21.314  0.00  0.00    +0.000 OA
ATOM     33  C   UNL     1      -2.166  12.306  19.933  0.00  0.00    +0.000 C 
ATOM     34  C   UNL     1      -0.772  12.140  19.303  0.00  0.00    +0.000 C 
ENDBRANCH  23  29
ENDBRANCH  18  19
ENDBRANCH   1  18
TORSDOF 8
ENDMDL
MODEL 7
REMARK VINA RESULT:      -8.3      1.824      3.064
REMARK  Name = 
REMARK  10 active torsions:
REMARK  status: ('A' for Active; 'I' for Inactive)
REMARK    1  A    between atoms: C_1  and  C_2
REMARK    2  A    between atoms: C_2  and  C_3
REMARK    3  A    between atoms: C_2  and  C_4
REMARK    4  A    between atoms: C_2  and  C_27
REMARK    5  A    between atoms: C_4  and  C_5
REMARK    6  A    between atoms: C_5  and  O_6
REMARK    7  A    between atoms: C_5  and  C_7
REMARK    8  A    between atoms: C_5  and  C_23
REMARK    9  A    between atoms: C_7  and  C_8
REMARK   10  A    between atoms: C_12  and  N_13
REMARK                            x       y       z     vdW  Elec       q    Type
REMARK                         _______ _______ _______ _____ _____    ______ ____
ROOT
ATOM      1  C   UNL     1       4.030   4.255  18.060  0.00  0.00    +0.000 C 
ENDROOT
BRANCH   1   2
ATOM      2  C   UNL     1       3.877   3.004  18.978  0.00  0.00    +0.000 C 
ATOM      3  F   UNL     1       4.929   2.830  19.809  0.00  0.00    +0.000 F 
ATOM      4  F   UNL     1       2.774   3.116  19.766  0.00  0.00    +0.000 F 
ATOM      5  F   UNL     1       3.714   1.867  18.265  0.00  0.00    +0.000 F 
ENDBRANCH   1   2
BRANCH   1   6
ATOM      6  O   UNL     1       4.857   5.224  18.793  0.00  0.00    +0.000 OA
ATOM      7  H   UNL     1       4.863   6.061  18.301  0.00  0.00    +0.000 HD
ENDBRANCH   1   6
BRANCH   1   8
ATOM      8  C   UNL     1       4.882   3.946  16.792  0.00  0.00    +0.000 C 
BRANCH   8  10
ATOM      9  C   UNL     1       5.637   6.357  16.455  0.00  0.00    +0.000 C 
ATOM     10  C   UNL     1       5.956   4.883  16.147  0.00  0.00    +0.000 C 
ATOM     11  C   UNL     1       7.286   4.641  16.935  0.00  0.00    +0.000 C 
BRANCH  10  12
ATOM     12  C   UNL     1       6.234   4.695  14.647  0.00  0.00    +0.000 A 
ATOM     13  C   UNL     1       7.352   5.295  14.027  0.00  0.00    +0.000 A 
ATOM     14  C   UNL     1       7.755   4.932  12.727  0.00  0.00    +0.000 A 
ATOM     15  C   UNL     1       7.019   3.996  12.018  0.00  0.00    +0.000 A 
ATOM     16  C   UNL     1       5.860   3.456  12.575  0.00  0.00    +0.000 A 
ATOM     17  C   UNL     1       5.463   3.814  13.865  0.00  0.00    +0.000 A 
ENDBRANCH  10  12
ENDBRANCH   8  10
ENDBRANCH   1   8
BRANCH   1  18
ATOM     18  C   UNL     1       2.609   4.885  17.878  0.00  0.00    +0.000 C 
BRANCH  18  19
ATOM     19  C   UNL     1       2.429   6.298  18.380  0.00  0.00    +0.000 A 
ATOM     20  C   UNL     1       2.359   7.534  17.754  0.00  0.00    +0.000 A 
ATOM     21  C   UNL     1       1.886   8.481  18.717  0.00  0.00    +0.000 A 
ATOM     22  C   UNL     1       1.461   9.816  18.682  0.00  0.00    +0.000 A 
ATOM     23  C   UNL     1       0.965  10.393  19.852  0.00  0.00    +0.000 A 
ATOM     24  N   UNL     1       0.906   9.687  21.005  0.00  0.00    +0.000 NA
ATOM     25  C   UNL     1       1.338   8.409  21.073  0.00  0.00    +0.000 A 
ATOM     26  C   UNL     1       1.849   7.820  19.934  0.00  0.00    +0.000 A 
ATOM     27  N   UNL     1       2.400   6.582  19.730  0.00  0.00    +0.000 N 
ATOM     28  H   UNL     1       2.593   5.926  20.474  0.00  0.00    +0.000 HD
BRANCH  23  29
ATOM     29  N   UNL     1       0.503  11.688  19.890  0.00  0.00    +0.000 N 
ATOM     30  C   UNL     1       1.215  12.687  20.695  0.00  0.00    +0.000 C 
ATOM     31  C   UNL     1       0.224  13.444  21.587  0.00  0.00    +0.000 C 
ATOM     32  O   UNL     1      -0.840  14.021  20.810  0.00  0.00    +0.000 OA
ATOM     33  C   UNL     1      -1.570  12.984  20.135  0.00  0.00    +0.000 C 
ATOM     34  C   UNL     1      -0.676  12.173  19.180  0.00  0.00    +0.000 C 
ENDBRANCH  23  29
ENDBRANCH  18  19
ENDBRANCH   1  18
TORSDOF 8
ENDMDL
MODEL 8
REMARK VINA RESULT:      -8.2      1.346      2.663
REMARK  Name = 
REMARK  10 active torsions:
REMARK  status: ('A' for Active; 'I' for Inactive)
REMARK    1  A    between atoms: C_1  and  C_2
REMARK    2  A    between atoms: C_2  and  C_3
REMARK    3  A    between atoms: C_2  and  C_4
REMARK    4  A    between atoms: C_2  and  C_27
REMARK    5  A    between atoms: C_4  and  C_5
REMARK    6  A    between atoms: C_5  and  O_6
REMARK    7  A    between atoms: C_5  and  C_7
REMARK    8  A    between atoms: C_5  and  C_23
REMARK    9  A    between atoms: C_7  and  C_8
REMARK   10  A    between atoms: C_12  and  N_13
REMARK                            x       y       z     vdW  Elec       q    Type
REMARK                         _______ _______ _______ _____ _____    ______ ____
ROOT
ATOM      1  C   UNL     1       3.775   3.741  17.748  0.00  0.00    +0.000 C 
ENDROOT
BRANCH   1   2
ATOM      2  C   UNL     1       2.288   3.271  17.763  0.00  0.00    +0.000 C 
ATOM      3  F   UNL     1       2.110   2.072  17.165  0.00  0.00    +0.000 F 
ATOM      4  F   UNL     1       1.836   3.139  19.039  0.00  0.00    +0.000 F 
ATOM      5  F   UNL     1       1.467   4.163  17.166  0.00  0.00    +0.000 F 
ENDBRANCH   1   2
BRANCH   1   6
ATOM      6  O   UNL     1       4.606   2.531  17.815  0.00  0.00    +0.000 OA
ATOM      7  H   UNL     1       4.850   2.373  18.741  0.00  0.00    +0.000 HD
ENDBRANCH   1   6
BRANCH   1   8
ATOM      8  C   UNL     1       4.173   4.372  16.380  0.00  0.00    +0.000 C 
BRANCH   8  10
ATOM      9  C   UNL     1       5.623   6.454  16.143  0.00  0.00    +0.000 C 
ATOM     10  C   UNL     1       5.584   4.923  15.989  0.00  0.00    +0.000 C 
ATOM     11  C   UNL     1       6.573   4.435  17.100  0.00  0.00    +0.000 C 
BRANCH  10  12
ATOM     12  C   UNL     1       6.141   4.505  14.619  0.00  0.00    +0.000 A 
ATOM     13  C   UNL     1       5.421   3.639  13.768  0.00  0.00    +0.000 A 
ATOM     14  C   UNL     1       5.795   3.449  12.423  0.00  0.00    +0.000 A 
ATOM     15  C   UNL     1       6.920   4.091  11.928  0.00  0.00    +0.000 A 
ATOM     16  C   UNL     1       7.698   4.881  12.775  0.00  0.00    +0.000 A 
ATOM     17  C   UNL     1       7.324   5.071  14.107  0.00  0.00    +0.000 A 
ENDBRANCH  10  12
ENDBRANCH   8  10
ENDBRANCH   1   8
BRANCH   1  18
ATOM     18  C   UNL     1       4.024   4.562  19.058  0.00  0.00    +0.000 C 
BRANCH  18  19
ATOM     19  C   UNL     1       3.402   5.937  19.120  0.00  0.00    +0.000 A 
ATOM     20  C   UNL     1       3.230   6.952  18.191  0.00  0.00    +0.000 A 
ATOM     21  C   UNL     1       2.314   7.898  18.749  0.00  0.00    +0.000 A 
ATOM     22  C   UNL     1       1.626   9.024  18.275  0.00  0.00    +0.000 A 
ATOM     23  C   UNL     1       0.715   9.659  19.122  0.00  0.00    +0.000 A 
ATOM     24  N   UNL     1       0.505   9.209  20.381  0.00  0.00    +0.000 NA
ATOM     25  C   UNL     1       1.178   8.146  20.872  0.00  0.00    +0.000 A 
ATOM     26  C   UNL     1       2.097   7.511  20.062  0.00  0.00    +0.000 A 
ATOM     27  N   UNL     1       2.946   6.464  20.311  0.00  0.00    +0.000 N 
ATOM     28  H   UNL     1       3.072   6.052  21.225  0.00  0.00    +0.000 HD
BRANCH  23  29
ATOM     29  N   UNL     1      -0.019  10.751  18.719  0.00  0.00    +0.000 N 
ATOM     30  C   UNL     1       0.587  12.087  18.769  0.00  0.00    +0.000 C 
ATOM     31  C   UNL     1      -0.357  13.063  19.481  0.00  0.00    +0.000 C 
ATOM     32  O   UNL     1      -1.657  13.071  18.867  0.00  0.00    +0.000 OA
ATOM     33  C   UNL     1      -2.245  11.763  18.950  0.00  0.00    +0.000 C 
ATOM     34  C   UNL     1      -1.394  10.699  18.235  0.00  0.00    +0.000 C 
ENDBRANCH  23  29
ENDBRANCH  18  19
ENDBRANCH   1  18
TORSDOF 8
ENDMDL
MODEL 9
REMARK VINA RESULT:      -8.1      1.323      2.607
REMARK  Name = 
REMARK  10 active torsions:
REMARK  status: ('A' for Active; 'I' for Inactive)
REMARK    1  A    between atoms: C_1  and  C_2
REMARK    2  A    between atoms: C_2  and  C_3
REMARK    3  A    between atoms: C_2  and  C_4
REMARK    4  A    between atoms: C_2  and  C_27
REMARK    5  A    between atoms: C_4  and  C_5
REMARK    6  A    between atoms: C_5  and  O_6
REMARK    7  A    between atoms: C_5  and  C_7
REMARK    8  A    between atoms: C_5  and  C_23
REMARK    9  A    between atoms: C_7  and  C_8
REMARK   10  A    between atoms: C_12  and  N_13
REMARK                            x       y       z     vdW  Elec       q    Type
REMARK                         _______ _______ _______ _____ _____    ______ ____
ROOT
ATOM      1  C   UNL     1       3.770   4.058  17.869  0.00  0.00    +0.000 C 
ENDROOT
BRANCH   1   2
ATOM      2  C   UNL     1       2.236   3.807  17.991  0.00  0.00    +0.000 C 
ATOM      3  F   UNL     1       1.503   4.664  17.246  0.00  0.00    +0.000 F 
ATOM      4  F   UNL     1       1.917   2.554  17.568  0.00  0.00    +0.000 F 
ATOM      5  F   UNL     1       1.807   3.890  19.270  0.00  0.00    +0.000 F 
ENDBRANCH   1   2
BRANCH   1   6
ATOM      6  O   UNL     1       4.438   2.790  18.193  0.00  0.00    +0.000 OA
ATOM      7  H   UNL     1       5.049   2.941  18.932  0.00  0.00    +0.000 HD
ENDBRANCH   1   6
BRANCH   1   8
ATOM      8  C   UNL     1       4.202   4.322  16.395  0.00  0.00    +0.000 C 
BRANCH   8  10
ATOM      9  C   UNL     1       5.549   6.478  16.218  0.00  0.00    +0.000 C 
ATOM     10  C   UNL     1       5.548   4.968  15.926  0.00  0.00    +0.000 C 
ATOM     11  C   UNL     1       6.658   4.425  16.886  0.00  0.00    +0.000 C 
BRANCH  10  12
ATOM     12  C   UNL     1       5.981   4.699  14.476  0.00  0.00    +0.000 A 
ATOM     13  C   UNL     1       7.181   5.233  13.957  0.00  0.00    +0.000 A 
ATOM     14  C   UNL     1       7.710   4.797  12.728  0.00  0.00    +0.000 A 
ATOM     15  C   UNL     1       7.022   3.851  11.983  0.00  0.00    +0.000 A 
ATOM     16  C   UNL     1       5.790   3.375  12.431  0.00  0.00    +0.000 A 
ATOM     17  C   UNL     1       5.268   3.806  13.653  0.00  0.00    +0.000 A 
ENDBRANCH  10  12
ENDBRANCH   8  10
ENDBRANCH   1   8
BRANCH   1  18
ATOM     18  C   UNL     1       4.168   5.098  18.969  0.00  0.00    +0.000 C 
BRANCH  18  19
ATOM     19  C   UNL     1       3.359   6.374  19.014  0.00  0.00    +0.000 A 
ATOM     20  C   UNL     1       2.986   7.304  18.055  0.00  0.00    +0.000 A 
ATOM     21  C   UNL     1       1.980   8.140  18.633  0.00  0.00    +0.000 A 
ATOM     22  C   UNL     1       1.109   9.132  18.159  0.00  0.00    +0.000 A 
ATOM     23  C   UNL     1       0.170   9.676  19.036  0.00  0.00    +0.000 A 
ATOM     24  N   UNL     1       0.104   9.268  20.325  0.00  0.00    +0.000 NA
ATOM     25  C   UNL     1       0.952   8.338  20.815  0.00  0.00    +0.000 A 
ATOM     26  C   UNL     1       1.901   7.796  19.973  0.00  0.00    +0.000 A 
ATOM     27  N   UNL     1       2.906   6.894  20.209  0.00  0.00    +0.000 N 
ATOM     28  H   UNL     1       3.145   6.552  21.129  0.00  0.00    +0.000 HD
BRANCH  23  29
ATOM     29  N   UNL     1      -0.736  10.631  18.638  0.00  0.00    +0.000 N 
ATOM     30  C   UNL     1      -0.778  11.922  19.333  0.00  0.00    +0.000 C 
ATOM     31  C   UNL     1      -2.222  12.259  19.726  0.00  0.00    +0.000 C 
ATOM     32  O   UNL     1      -3.095  12.220  18.585  0.00  0.00    +0.000 OA
ATOM     33  C   UNL     1      -3.097  10.902  18.015  0.00  0.00    +0.000 C 
ATOM     34  C   UNL     1      -1.696  10.468  17.551  0.00  0.00    +0.000 C 
ENDBRANCH  23  29
ENDBRANCH  18  19
ENDBRANCH   1  18
TORSDOF 8
ENDMDL
