MODEL 1
REMARK VINA RESULT:      -8.2      0.000      0.000
REMARK  Name = 
REMARK  2 active torsions:
REMARK  status: ('A' for Active; 'I' for Inactive)
REMARK    1  A    between atoms: C_5  and  C_6
REMARK    2  A    between atoms: C_15  and  N_16
REMARK                            x       y       z     vdW  Elec       q    Type
REMARK                         _______ _______ _______ _____ _____    ______ ____
ROOT
ATOM      1  C   UNL     1       9.346  12.715  18.464  0.00  0.00    +0.000 A 
ATOM      2  C   UNL     1      10.068  12.100  19.511  0.00  0.00    +0.000 A 
ATOM      3  N   UNL     1      10.066  10.782  19.856  0.00  0.00    +0.000 NA
ATOM      4  C   UNL     1       9.270  10.023  19.071  0.00  0.00    +0.000 A 
ATOM      5  N   UNL     1       9.021   8.684  19.176  0.00  0.00    +0.000 NA
ATOM      6  C   UNL     1       8.168   8.452  18.197  0.00  0.00    +0.000 A 
ATOM      7  N   UNL     1       7.565   7.299  17.829  0.00  0.00    +0.000 N 
ATOM      8  C   UNL     1       7.646   6.185  18.767  0.00  0.00    +0.000 C 
ATOM      9  C   UNL     1       7.432   4.878  18.013  0.00  0.00    +0.000 C 
ATOM     10  C   UNL     1       6.148   4.836  17.156  0.00  0.00    +0.000 C 
ATOM     11  C   UNL     1       6.039   6.118  16.311  0.00  0.00    +0.000 C 
ATOM     12  C   UNL     1       6.315   7.405  17.075  0.00  0.00    +0.000 C 
ATOM     13  O   UNL     1       7.855   9.550  17.441  0.00  0.00    +0.000 OA
ATOM     14  C   UNL     1       8.553  10.550  18.019  0.00  0.00    +0.000 A 
ATOM     15  C   UNL     1       8.554  11.881  17.662  0.00  0.00    +0.000 A 
ENDROOT
BRANCH   1  20
ATOM     16  F   UNL     1       9.636  18.220  17.645  0.00  0.00    +0.000 F 
ATOM     17  C   UNL     1       9.542  16.894  17.827  0.00  0.00    +0.000 A 
ATOM     18  C   UNL     1       8.465  16.401  18.531  0.00  0.00    +0.000 A 
ATOM     19  C   UNL     1       8.375  15.022  18.719  0.00  0.00    +0.000 A 
ATOM     20  C   UNL     1       9.370  14.167  18.217  0.00  0.00    +0.000 A 
ATOM     21  C   UNL     1      10.412  14.790  17.524  0.00  0.00    +0.000 A 
ATOM     22  N   UNL     1      10.519  16.125  17.308  0.00  0.00    +0.000 NA
ENDBRANCH   1  20
BRANCH  10  23
ATOM     23  N   UNL     1       4.878   4.436  17.814  0.00  0.00    +0.000 NA
ATOM     24  C   UNL     1       3.983   3.735  16.879  0.00  0.00    +0.000 C 
ATOM     25  C   UNL     1       2.613   3.435  17.484  0.00  0.00    +0.000 C 
ATOM     26  C   UNL     1       2.759   2.642  18.774  0.00  0.00    +0.000 C 
ATOM     27  C   UNL     1       3.641   3.416  19.738  0.00  0.00    +0.000 C 
ATOM     28  C   UNL     1       4.992   3.754  19.103  0.00  0.00    +0.000 C 
ENDBRANCH  10  23
TORSDOF 2
ENDMDL
MODEL 2
REMARK VINA RESULT:      -8.2      0.667      1.083
REMARK  Name = 
REMARK  2 active torsions:
REMARK  status: ('A' for Active; 'I' for Inactive)
REMARK    1  A    between atoms: C_5  and  C_6
REMARK    2  A    between atoms: C_15  and  N_16
REMARK                            x       y       z     vdW  Elec       q    Type
REMARK                         _______ _______ _______ _____ _____    ______ ____
ROOT
ATOM      1  C   UNL     1       9.052  12.378  18.313  0.00  0.00    +0.000 A 
ATOM      2  C   UNL     1       9.818  11.745  19.317  0.00  0.00    +0.000 A 
ATOM      3  N   UNL     1       9.839  10.419  19.630  0.00  0.00    +0.000 NA
ATOM      4  C   UNL     1       9.020   9.672  18.856  0.00  0.00    +0.000 A 
ATOM      5  N   UNL     1       8.786   8.329  18.939  0.00  0.00    +0.000 NA
ATOM      6  C   UNL     1       7.898   8.113  17.987  0.00  0.00    +0.000 A 
ATOM      7  N   UNL     1       7.291   6.964  17.613  0.00  0.00    +0.000 N 
ATOM      8  C   UNL     1       7.415   5.829  18.520  0.00  0.00    +0.000 C 
ATOM      9  C   UNL     1       7.183   4.539  17.744  0.00  0.00    +0.000 C 
ATOM     10  C   UNL     1       5.868   4.506  16.934  0.00  0.00    +0.000 C 
ATOM     11  C   UNL     1       5.718   5.807  16.125  0.00  0.00    +0.000 C 
ATOM     12  C   UNL     1       6.012   7.078  16.910  0.00  0.00    +0.000 C 
ATOM     13  O   UNL     1       7.549   9.227  17.270  0.00  0.00    +0.000 OA
ATOM     14  C   UNL     1       8.260  10.218  17.845  0.00  0.00    +0.000 A 
ATOM     15  C   UNL     1       8.237  11.557  17.521  0.00  0.00    +0.000 A 
ENDROOT
BRANCH   1  20
ATOM     16  F   UNL     1       9.196  17.916  17.699  0.00  0.00    +0.000 F 
ATOM     17  C   UNL     1       9.146  16.581  17.823  0.00  0.00    +0.000 A 
ATOM     18  C   UNL     1       7.918  15.982  18.000  0.00  0.00    +0.000 A 
ATOM     19  C   UNL     1       7.874  14.595  18.131  0.00  0.00    +0.000 A 
ATOM     20  C   UNL     1       9.056  13.837  18.101  0.00  0.00    +0.000 A 
ATOM     21  C   UNL     1      10.237  14.562  17.918  0.00  0.00    +0.000 A 
ATOM     22  N   UNL     1      10.312  15.908  17.769  0.00  0.00    +0.000 NA
ENDBRANCH   1  20
BRANCH  10  23
ATOM     23  N   UNL     1       4.626   4.079  17.629  0.00  0.00    +0.000 NA
ATOM     24  C   UNL     1       4.896   3.684  19.020  0.00  0.00    +0.000 C 
ATOM     25  C   UNL     1       3.666   3.107  19.720  0.00  0.00    +0.000 C 
ATOM     26  C   UNL     1       2.507   4.090  19.663  0.00  0.00    +0.000 C 
ATOM     27  C   UNL     1       2.217   4.435  18.212  0.00  0.00    +0.000 C 
ATOM     28  C   UNL     1       3.468   4.966  17.509  0.00  0.00    +0.000 C 
ENDBRANCH  10  23
TORSDOF 2
ENDMDL
MODEL 3
REMARK VINA RESULT:      -8.1      9.069     11.824
REMARK  Name = 
REMARK  2 active torsions:
REMARK  status: ('A' for Active; 'I' for Inactive)
REMARK    1  A    between atoms: C_5  and  C_6
REMARK    2  A    between atoms: C_15  and  N_16
REMARK                            x       y       z     vdW  Elec       q    Type
REMARK                         _______ _______ _______ _____ _____    ______ ____
ROOT
ATOM      1  C   UNL     1       2.637   6.542  19.428  0.00  0.00    +0.000 A 
ATOM      2  C   UNL     1       2.592   7.192  18.175  0.00  0.00    +0.000 A 
ATOM      3  N   UNL     1       2.021   8.397  17.887  0.00  0.00    +0.000 NA
ATOM      4  C   UNL     1       1.455   8.992  18.961  0.00  0.00    +0.000 A 
ATOM      5  N   UNL     1       0.776  10.177  18.999  0.00  0.00    +0.000 NA
ATOM      6  C   UNL     1       0.413  10.282  20.263  0.00  0.00    +0.000 A 
ATOM      7  N   UNL     1      -0.297  11.252  20.882  0.00  0.00    +0.000 N 
ATOM      8  C   UNL     1      -0.992  12.207  20.026  0.00  0.00    +0.000 C 
ATOM      9  C   UNL     1      -1.256  13.484  20.812  0.00  0.00    +0.000 C 
ATOM     10  C   UNL     1      -1.975  13.270  22.163  0.00  0.00    +0.000 C 
ATOM     11  C   UNL     1      -1.290  12.135  22.946  0.00  0.00    +0.000 C 
ATOM     12  C   UNL     1      -0.986  10.892  22.123  0.00  0.00    +0.000 C 
ATOM     13  O   UNL     1       0.829   9.251  21.063  0.00  0.00    +0.000 OA
ATOM     14  C   UNL     1       1.479   8.427  20.216  0.00  0.00    +0.000 A 
ATOM     15  C   UNL     1       2.058   7.212  20.514  0.00  0.00    +0.000 A 
ENDROOT
BRANCH   1  20
ATOM     16  F   UNL     1       4.891   1.468  19.913  0.00  0.00    +0.000 F 
ATOM     17  C   UNL     1       4.346   2.690  19.825  0.00  0.00    +0.000 A 
ATOM     18  C   UNL     1       3.048   2.865  20.254  0.00  0.00    +0.000 A 
ATOM     19  C   UNL     1       2.487   4.137  20.156  0.00  0.00    +0.000 A 
ATOM     20  C   UNL     1       3.225   5.204  19.616  0.00  0.00    +0.000 A 
ATOM     21  C   UNL     1       4.528   4.897  19.215  0.00  0.00    +0.000 A 
ATOM     22  N   UNL     1       5.109   3.676  19.313  0.00  0.00    +0.000 NA
ENDBRANCH   1  20
BRANCH  10  23
ATOM     23  N   UNL     1      -3.458  13.197  22.165  0.00  0.00    +0.000 NA
ATOM     24  C   UNL     1      -4.016  13.577  23.472  0.00  0.00    +0.000 C 
ATOM     25  C   UNL     1      -5.528  13.378  23.550  0.00  0.00    +0.000 C 
ATOM     26  C   UNL     1      -6.228  14.138  22.434  0.00  0.00    +0.000 C 
ATOM     27  C   UNL     1      -5.670  13.683  21.096  0.00  0.00    +0.000 C 
ATOM     28  C   UNL     1      -4.149  13.842  21.048  0.00  0.00    +0.000 C 
ENDBRANCH  10  23
TORSDOF 2
ENDMDL
MODEL 4
REMARK VINA RESULT:      -8.0      7.168     10.587
REMARK  Name = 
REMARK  2 active torsions:
REMARK  status: ('A' for Active; 'I' for Inactive)
REMARK    1  A    between atoms: C_5  and  C_6
REMARK    2  A    between atoms: C_15  and  N_16
REMARK                            x       y       z     vdW  Elec       q    Type
REMARK                         _______ _______ _______ _____ _____    ______ ____
ROOT
ATOM      1  C   UNL     1       3.675   6.164  18.044  0.00  0.00    +0.000 A 
ATOM      2  C   UNL     1       3.455   5.495  19.268  0.00  0.00    +0.000 A 
ATOM      3  N   UNL     1       2.703   5.922  20.322  0.00  0.00    +0.000 NA
ATOM      4  C   UNL     1       2.124   7.125  20.115  0.00  0.00    +0.000 A 
ATOM      5  N   UNL     1       1.347   7.840  20.981  0.00  0.00    +0.000 NA
ATOM      6  C   UNL     1       1.065   8.938  20.307  0.00  0.00    +0.000 A 
ATOM      7  N   UNL     1       0.335  10.016  20.673  0.00  0.00    +0.000 N 
ATOM      8  C   UNL     1       0.003  10.136  22.088  0.00  0.00    +0.000 C 
ATOM      9  C   UNL     1      -1.220  11.031  22.241  0.00  0.00    +0.000 C 
ATOM     10  C   UNL     1      -1.102  12.404  21.544  0.00  0.00    +0.000 C 
ATOM     11  C   UNL     1      -0.588  12.219  20.105  0.00  0.00    +0.000 C 
ATOM     12  C   UNL     1       0.598  11.274  19.973  0.00  0.00    +0.000 C 
ATOM     13  O   UNL     1       1.591   8.982  19.043  0.00  0.00    +0.000 OA
ATOM     14  C   UNL     1       2.277   7.825  18.938  0.00  0.00    +0.000 A 
ATOM     15  C   UNL     1       3.032   7.397  17.868  0.00  0.00    +0.000 A 
ENDROOT
BRANCH   1  20
ATOM     16  F   UNL     1       6.893   4.271  13.906  0.00  0.00    +0.000 F 
ATOM     17  C   UNL     1       6.138   4.716  14.921  0.00  0.00    +0.000 A 
ATOM     18  C   UNL     1       5.581   3.794  15.780  0.00  0.00    +0.000 A 
ATOM     19  C   UNL     1       4.793   4.264  16.831  0.00  0.00    +0.000 A 
ATOM     20  C   UNL     1       4.564   5.640  16.991  0.00  0.00    +0.000 A 
ATOM     21  C   UNL     1       5.182   6.472  16.053  0.00  0.00    +0.000 A 
ATOM     22  N   UNL     1       5.968   6.048  15.032  0.00  0.00    +0.000 NA
ENDBRANCH   1  20
BRANCH  10  23
ATOM     23  N   UNL     1      -0.444  13.512  22.283  0.00  0.00    +0.000 NA
ATOM     24  C   UNL     1       0.360  14.356  21.386  0.00  0.00    +0.000 C 
ATOM     25  C   UNL     1       1.162  15.419  22.135  0.00  0.00    +0.000 C 
ATOM     26  C   UNL     1       0.244  16.279  22.991  0.00  0.00    +0.000 C 
ATOM     27  C   UNL     1      -0.530  15.384  23.945  0.00  0.00    +0.000 C 
ATOM     28  C   UNL     1      -1.290  14.294  23.186  0.00  0.00    +0.000 C 
ENDBRANCH  10  23
TORSDOF 2
ENDMDL
MODEL 5
REMARK VINA RESULT:      -8.0      8.558     11.559
REMARK  Name = 
REMARK  2 active torsions:
REMARK  status: ('A' for Active; 'I' for Inactive)
REMARK    1  A    between atoms: C_5  and  C_6
REMARK    2  A    between atoms: C_15  and  N_16
REMARK                            x       y       z     vdW  Elec       q    Type
REMARK                         _______ _______ _______ _____ _____    ______ ____
ROOT
ATOM      1  C   UNL     1       2.560   6.196  18.707  0.00  0.00    +0.000 A 
ATOM      2  C   UNL     1       2.842   7.083  17.645  0.00  0.00    +0.000 A 
ATOM      3  N   UNL     1       2.545   8.412  17.575  0.00  0.00    +0.000 NA
ATOM      4  C   UNL     1       1.913   8.879  18.674  0.00  0.00    +0.000 A 
ATOM      5  N   UNL     1       1.451  10.144  18.899  0.00  0.00    +0.000 NA
ATOM      6  C   UNL     1       0.899  10.061  20.095  0.00  0.00    +0.000 A 
ATOM      7  N   UNL     1       0.270  11.009  20.826  0.00  0.00    +0.000 N 
ATOM      8  C   UNL     1      -0.094  12.240  20.134  0.00  0.00    +0.000 C 
ATOM      9  C   UNL     1      -0.266  13.357  21.155  0.00  0.00    +0.000 C 
ATOM     10  C   UNL     1      -1.232  13.024  22.314  0.00  0.00    +0.000 C 
ATOM     11  C   UNL     1      -0.897  11.637  22.892  0.00  0.00    +0.000 C 
ATOM     12  C   UNL     1      -0.673  10.553  21.848  0.00  0.00    +0.000 C 
ATOM     13  O   UNL     1       0.988   8.826  20.680  0.00  0.00    +0.000 OA
ATOM     14  C   UNL     1       1.624   8.076  19.756  0.00  0.00    +0.000 A 
ATOM     15  C   UNL     1       1.926   6.734  19.835  0.00  0.00    +0.000 A 
ENDROOT
BRANCH   1  20
ATOM     16  F   UNL     1       3.941   0.803  18.436  0.00  0.00    +0.000 F 
ATOM     17  C   UNL     1       3.583   2.093  18.510  0.00  0.00    +0.000 A 
ATOM     18  C   UNL     1       2.569   2.543  17.692  0.00  0.00    +0.000 A 
ATOM     19  C   UNL     1       2.204   3.886  17.772  0.00  0.00    +0.000 A 
ATOM     20  C   UNL     1       2.868   4.755  18.652  0.00  0.00    +0.000 A 
ATOM     21  C   UNL     1       3.880   4.179  19.427  0.00  0.00    +0.000 A 
ATOM     22  N   UNL     1       4.246   2.873  19.386  0.00  0.00    +0.000 NA
ENDBRANCH   1  20
BRANCH  10  23
ATOM     23  N   UNL     1      -2.684  13.258  22.106  0.00  0.00    +0.000 NA
ATOM     24  C   UNL     1      -3.075  13.015  20.709  0.00  0.00    +0.000 C 
ATOM     25  C   UNL     1      -4.532  13.382  20.430  0.00  0.00    +0.000 C 
ATOM     26  C   UNL     1      -5.462  12.640  21.377  0.00  0.00    +0.000 C 
ATOM     27  C   UNL     1      -5.069  12.956  22.811  0.00  0.00    +0.000 C 
ATOM     28  C   UNL     1      -3.595  12.629  23.064  0.00  0.00    +0.000 C 
ENDBRANCH  10  23
TORSDOF 2
ENDMDL
MODEL 6
REMARK VINA RESULT:      -8.0      8.692     11.438
REMARK  Name = 
REMARK  2 active torsions:
REMARK  status: ('A' for Active; 'I' for Inactive)
REMARK    1  A    between atoms: C_5  and  C_6
REMARK    2  A    between atoms: C_15  and  N_16
REMARK                            x       y       z     vdW  Elec       q    Type
REMARK                         _______ _______ _______ _____ _____    ______ ____
ROOT
ATOM      1  C   UNL     1       2.795   6.621  19.174  0.00  0.00    +0.000 A 
ATOM      2  C   UNL     1       2.885   7.253  17.914  0.00  0.00    +0.000 A 
ATOM      3  N   UNL     1       2.369   8.463  17.555  0.00  0.00    +0.000 NA
ATOM      4  C   UNL     1       1.713   9.085  18.559  0.00  0.00    +0.000 A 
ATOM      5  N   UNL     1       1.057  10.282  18.515  0.00  0.00    +0.000 NA
ATOM      6  C   UNL     1       0.574  10.414  19.736  0.00  0.00    +0.000 A 
ATOM      7  N   UNL     1      -0.174  11.406  20.269  0.00  0.00    +0.000 N 
ATOM      8  C   UNL     1      -0.763  12.360  19.337  0.00  0.00    +0.000 C 
ATOM      9  C   UNL     1      -1.077  13.655  20.076  0.00  0.00    +0.000 C 
ATOM     10  C   UNL     1      -1.928  13.474  21.352  0.00  0.00    +0.000 C 
ATOM     11  C   UNL     1      -1.346  12.339  22.214  0.00  0.00    +0.000 C 
ATOM     12  C   UNL     1      -0.987  11.078  21.441  0.00  0.00    +0.000 C 
ATOM     13  O   UNL     1       0.889   9.388  20.586  0.00  0.00    +0.000 OA
ATOM     14  C   UNL     1       1.603   8.539  19.819  0.00  0.00    +0.000 A 
ATOM     15  C   UNL     1       2.125   7.319  20.189  0.00  0.00    +0.000 A 
ENDROOT
BRANCH   1  20
ATOM     16  F   UNL     1       4.891   1.516  19.946  0.00  0.00    +0.000 F 
ATOM     17  C   UNL     1       4.381   2.746  19.788  0.00  0.00    +0.000 A 
ATOM     18  C   UNL     1       3.049   2.949  20.078  0.00  0.00    +0.000 A 
ATOM     19  C   UNL     1       2.525   4.229  19.909  0.00  0.00    +0.000 A 
ATOM     20  C   UNL     1       3.335   5.275  19.437  0.00  0.00    +0.000 A 
ATOM     21  C   UNL     1       4.667   4.942  19.176  0.00  0.00    +0.000 A 
ATOM     22  N   UNL     1       5.212   3.711  19.348  0.00  0.00    +0.000 NA
ENDBRANCH   1  20
BRANCH  10  23
ATOM     23  N   UNL     1      -3.406  13.428  21.210  0.00  0.00    +0.000 NA
ATOM     24  C   UNL     1      -3.809  12.677  20.011  0.00  0.00    +0.000 C 
ATOM     25  C   UNL     1      -5.315  12.730  19.758  0.00  0.00    +0.000 C 
ATOM     26  C   UNL     1      -6.081  12.236  20.976  0.00  0.00    +0.000 C 
ATOM     27  C   UNL     1      -5.684  13.068  22.185  0.00  0.00    +0.000 C 
ATOM     28  C   UNL     1      -4.169  13.046  22.398  0.00  0.00    +0.000 C 
ENDBRANCH  10  23
TORSDOF 2
ENDMDL
MODEL 7
REMARK VINA RESULT:      -8.0      7.293     10.804
REMARK  Name = 
REMARK  2 active torsions:
REMARK  status: ('A' for Active; 'I' for Inactive)
REMARK    1  A    between atoms: C_5  and  C_6
REMARK    2  A    between atoms: C_15  and  N_16
REMARK                            x       y       z     vdW  Elec       q    Type
REMARK                         _______ _______ _______ _____ _____    ______ ____
ROOT
ATOM      1  C   UNL     1       3.470   6.584  17.937  0.00  0.00    +0.000 A 
ATOM      2  C   UNL     1       3.128   6.097  19.218  0.00  0.00    +0.000 A 
ATOM      3  N   UNL     1       2.335   6.700  20.149  0.00  0.00    +0.000 NA
ATOM      4  C   UNL     1       1.845   7.893  19.744  0.00  0.00    +0.000 A 
ATOM      5  N   UNL     1       1.057   8.756  20.450  0.00  0.00    +0.000 NA
ATOM      6  C   UNL     1       0.889   9.767  19.619  0.00  0.00    +0.000 A 
ATOM      7  N   UNL     1       0.203  10.921  19.786  0.00  0.00    +0.000 N 
ATOM      8  C   UNL     1      -0.216  11.247  21.145  0.00  0.00    +0.000 C 
ATOM      9  C   UNL     1      -1.389  12.216  21.089  0.00  0.00    +0.000 C 
ATOM     10  C   UNL     1      -1.141  13.475  20.229  0.00  0.00    +0.000 C 
ATOM     11  C   UNL     1      -0.545  13.072  18.869  0.00  0.00    +0.000 C 
ATOM     12  C   UNL     1       0.588  12.059  18.950  0.00  0.00    +0.000 C 
ATOM     13  O   UNL     1       1.499   9.614  18.403  0.00  0.00    +0.000 OA
ATOM     14  C   UNL     1       2.120   8.420  18.501  0.00  0.00    +0.000 A 
ATOM     15  C   UNL     1       2.917   7.814  17.555  0.00  0.00    +0.000 A 
ENDROOT
BRANCH   1  20
ATOM     16  F   UNL     1       6.840   3.993  14.332  0.00  0.00    +0.000 F 
ATOM     17  C   UNL     1       6.045   4.607  15.221  0.00  0.00    +0.000 A 
ATOM     18  C   UNL     1       5.356   3.835  16.131  0.00  0.00    +0.000 A 
ATOM     19  C   UNL     1       4.529   4.480  17.050  0.00  0.00    +0.000 A 
ATOM     20  C   UNL     1       4.393   5.878  17.031  0.00  0.00    +0.000 A 
ATOM     21  C   UNL     1       5.143   6.547  16.058  0.00  0.00    +0.000 A 
ATOM     22  N   UNL     1       5.969   5.951  15.163  0.00  0.00    +0.000 NA
ENDBRANCH   1  20
BRANCH  10  23
ATOM     23  N   UNL     1      -0.468  14.637  20.865  0.00  0.00    +0.000 NA
ATOM     24  C   UNL     1      -0.684  15.873  20.096  0.00  0.00    +0.000 C 
ATOM     25  C   UNL     1       0.111  17.057  20.645  0.00  0.00    +0.000 C 
ATOM     26  C   UNL     1      -0.210  17.283  22.114  0.00  0.00    +0.000 C 
ATOM     27  C   UNL     1       0.077  16.008  22.889  0.00  0.00    +0.000 C 
ATOM     28  C   UNL     1      -0.687  14.819  22.300  0.00  0.00    +0.000 C 
ENDBRANCH  10  23
TORSDOF 2
ENDMDL
MODEL 8
REMARK VINA RESULT:      -8.0      8.730     11.761
REMARK  Name = 
REMARK  2 active torsions:
REMARK  status: ('A' for Active; 'I' for Inactive)
REMARK    1  A    between atoms: C_5  and  C_6
REMARK    2  A    between atoms: C_15  and  N_16
REMARK                            x       y       z     vdW  Elec       q    Type
REMARK                         _______ _______ _______ _____ _____    ______ ____
ROOT
ATOM      1  C   UNL     1       2.693   6.040  18.799  0.00  0.00    +0.000 A 
ATOM      2  C   UNL     1       2.907   6.964  17.753  0.00  0.00    +0.000 A 
ATOM      3  N   UNL     1       2.541   8.277  17.719  0.00  0.00    +0.000 NA
ATOM      4  C   UNL     1       1.910   8.686  18.842  0.00  0.00    +0.000 A 
ATOM      5  N   UNL     1       1.388   9.921  19.105  0.00  0.00    +0.000 NA
ATOM      6  C   UNL     1       0.867   9.784  20.309  0.00  0.00    +0.000 A 
ATOM      7  N   UNL     1       0.206  10.682  21.074  0.00  0.00    +0.000 N 
ATOM      8  C   UNL     1      -0.235  11.907  20.418  0.00  0.00    +0.000 C 
ATOM      9  C   UNL     1      -0.442  12.991  21.468  0.00  0.00    +0.000 C 
ATOM     10  C   UNL     1      -1.365  12.583  22.638  0.00  0.00    +0.000 C 
ATOM     11  C   UNL     1      -0.948  11.203  23.177  0.00  0.00    +0.000 C 
ATOM     12  C   UNL     1      -0.691  10.155  22.105  0.00  0.00    +0.000 C 
ATOM     13  O   UNL     1       1.031   8.542  20.863  0.00  0.00    +0.000 OA
ATOM     14  C   UNL     1       1.684   7.846  19.910  0.00  0.00    +0.000 A 
ATOM     15  C   UNL     1       2.056   6.520  19.952  0.00  0.00    +0.000 A 
ENDROOT
BRANCH   1  20
ATOM     16  F   UNL     1       3.909   0.612  18.452  0.00  0.00    +0.000 F 
ATOM     17  C   UNL     1       3.644   1.924  18.533  0.00  0.00    +0.000 A 
ATOM     18  C   UNL     1       4.132   2.629  19.613  0.00  0.00    +0.000 A 
ATOM     19  C   UNL     1       3.850   3.991  19.693  0.00  0.00    +0.000 A 
ATOM     20  C   UNL     1       3.073   4.619  18.705  0.00  0.00    +0.000 A 
ATOM     21  C   UNL     1       2.635   3.796  17.664  0.00  0.00    +0.000 A 
ATOM     22  N   UNL     1       2.908   2.472  17.547  0.00  0.00    +0.000 NA
ENDBRANCH   1  20
BRANCH  10  23
ATOM     23  N   UNL     1      -2.831  12.747  22.464  0.00  0.00    +0.000 NA
ATOM     24  C   UNL     1      -3.527  12.782  23.760  0.00  0.00    +0.000 C 
ATOM     25  C   UNL     1      -5.048  12.808  23.615  0.00  0.00    +0.000 C 
ATOM     26  C   UNL     1      -5.483  13.978  22.747  0.00  0.00    +0.000 C 
ATOM     27  C   UNL     1      -4.791  13.883  21.397  0.00  0.00    +0.000 C 
ATOM     28  C   UNL     1      -3.271  13.808  21.559  0.00  0.00    +0.000 C 
ENDBRANCH  10  23
TORSDOF 2
ENDMDL
MODEL 9
REMARK VINA RESULT:      -7.9      9.029     11.807
REMARK  Name = 
REMARK  2 active torsions:
REMARK  status: ('A' for Active; 'I' for Inactive)
REMARK    1  A    between atoms: C_5  and  C_6
REMARK    2  A    between atoms: C_15  and  N_16
REMARK                            x       y       z     vdW  Elec       q    Type
REMARK                         _______ _______ _______ _____ _____    ______ ____
ROOT
ATOM      1  C   UNL     1       2.420   6.913  18.627  0.00  0.00    +0.000 A 
ATOM      2  C   UNL     1       2.593   7.833  17.570  0.00  0.00    +0.000 A 
ATOM      3  N   UNL     1       2.208   9.141  17.538  0.00  0.00    +0.000 NA
ATOM      4  C   UNL     1       1.603   9.549  18.676  0.00  0.00    +0.000 A 
ATOM      5  N   UNL     1       1.073  10.778  18.946  0.00  0.00    +0.000 NA
ATOM      6  C   UNL     1       0.587  10.642  20.165  0.00  0.00    +0.000 A 
ATOM      7  N   UNL     1      -0.065  11.535  20.943  0.00  0.00    +0.000 N 
ATOM      8  C   UNL     1      -0.540  12.751  20.293  0.00  0.00    +0.000 C 
ATOM      9  C   UNL     1      -0.732  13.839  21.342  0.00  0.00    +0.000 C 
ATOM     10  C   UNL     1      -1.617  13.425  22.539  0.00  0.00    +0.000 C 
ATOM     11  C   UNL     1      -1.167  12.055  23.075  0.00  0.00    +0.000 C 
ATOM     12  C   UNL     1      -0.925  11.003  22.001  0.00  0.00    +0.000 C 
ATOM     13  O   UNL     1       0.783   9.406  20.722  0.00  0.00    +0.000 OA
ATOM     14  C   UNL     1       1.419   8.713  19.755  0.00  0.00    +0.000 A 
ATOM     15  C   UNL     1       1.809   7.392  19.794  0.00  0.00    +0.000 A 
ENDROOT
BRANCH   1  20
ATOM     16  F   UNL     1       4.111   1.624  18.153  0.00  0.00    +0.000 F 
ATOM     17  C   UNL     1       3.681   2.888  18.282  0.00  0.00    +0.000 A 
ATOM     18  C   UNL     1       2.487   3.240  17.690  0.00  0.00    +0.000 A 
ATOM     19  C   UNL     1       2.048   4.557  17.825  0.00  0.00    +0.000 A 
ATOM     20  C   UNL     1       2.817   5.497  18.531  0.00  0.00    +0.000 A 
ATOM     21  C   UNL     1       4.008   5.016  19.081  0.00  0.00    +0.000 A 
ATOM     22  N   UNL     1       4.454   3.739  18.984  0.00  0.00    +0.000 NA
ENDBRANCH   1  20
BRANCH  10  23
ATOM     23  N   UNL     1      -3.089  13.569  22.406  0.00  0.00    +0.000 NA
ATOM     24  C   UNL     1      -3.788  13.116  23.619  0.00  0.00    +0.000 C 
ATOM     25  C   UNL     1      -5.307  13.117  23.462  0.00  0.00    +0.000 C 
ATOM     26  C   UNL     1      -5.802  14.495  23.049  0.00  0.00    +0.000 C 
ATOM     27  C   UNL     1      -5.104  14.910  21.764  0.00  0.00    +0.000 C 
ATOM     28  C   UNL     1      -3.583  14.858  21.919  0.00  0.00    +0.000 C 
ENDBRANCH  10  23
TORSDOF 2
ENDMDL
