MODEL 1
REMARK VINA RESULT:      -7.4      0.000      0.000
REMARK  Name = 
REMARK  6 active torsions:
REMARK  status: ('A' for Active; 'I' for Inactive)
REMARK    1  A    between atoms: C_1  and  O_2
REMARK    2  A    between atoms: O_2  and  C_3
REMARK    3  A    between atoms: C_6  and  N_7
REMARK    4  A    between atoms: C_8  and  C_10
REMARK    5  A    between atoms: C_13  and  O_14
REMARK    6  A    between atoms: O_14  and  C_15
REMARK                            x       y       z     vdW  Elec       q    Type
REMARK                         _______ _______ _______ _____ _____    ______ ____
ROOT
ATOM      1  C   UNL     1       7.731   7.759  18.061  0.00  0.00    +0.000 A 
ATOM      2  C   UNL     1       6.699   7.570  17.129  0.00  0.00    +0.000 A 
ATOM      3  C   UNL     1       6.124   6.312  16.951  0.00  0.00    +0.000 A 
ATOM      4  C   UNL     1       6.586   5.227  17.694  0.00  0.00    +0.000 A 
ATOM      5  C   UNL     1       7.609   5.410  18.630  0.00  0.00    +0.000 A 
ATOM      6  C   UNL     1       8.198   6.666  18.799  0.00  0.00    +0.000 A 
ENDROOT
BRANCH   1   8
ATOM      7  N   UNL     1       9.164   9.361  19.240  0.00  0.00    +0.000 N 
ATOM      8  C   UNL     1       8.271   9.140  18.202  0.00  0.00    +0.000 C 
ATOM      9  O   UNL     1       7.883   9.979  17.398  0.00  0.00    +0.000 OA
ATOM     10  H   UNL     1       9.494   8.572  19.775  0.00  0.00    +0.000 HD
BRANCH   7  14
ATOM     11  C   UNL     1      10.772  13.143  20.228  0.00  0.00    +0.000 A 
ATOM     12  C   UNL     1       9.897  12.512  21.108  0.00  0.00    +0.000 A 
ATOM     13  C   UNL     1       9.368  11.257  20.805  0.00  0.00    +0.000 A 
ATOM     14  C   UNL     1       9.693  10.617  19.609  0.00  0.00    +0.000 A 
ATOM     15  C   UNL     1      10.592  11.241  18.735  0.00  0.00    +0.000 A 
ATOM     16  C   UNL     1      11.118  12.506  19.036  0.00  0.00    +0.000 A 
BRANCH  11  18
ATOM     17  C   UNL     1      11.122  15.404  19.637  0.00  0.00    +0.000 C 
ATOM     18  O   UNL     1      11.183  14.384  20.623  0.00  0.00    +0.000 OA
ENDBRANCH  11  18
ENDBRANCH   7  14
ENDBRANCH   1   8
BRANCH   4  19
ATOM     19  O   UNL     1       5.918   4.042  17.501  0.00  0.00    +0.000 OA
BRANCH  19  20
ATOM     20  C   UNL     1       4.610   3.938  17.948  0.00  0.00    +0.000 A 
ATOM     21  N   UNL     1       3.703   3.689  16.989  0.00  0.00    +0.000 NA
ATOM     22  C   UNL     1       2.429   3.574  17.400  0.00  0.00    +0.000 A 
ATOM     23  C   UNL     1       2.041   3.693  18.714  0.00  0.00    +0.000 A 
ATOM     24  C   UNL     1       3.053   3.926  19.615  0.00  0.00    +0.000 A 
ATOM     25  N   UNL     1       4.344   4.043  19.263  0.00  0.00    +0.000 NA
ENDBRANCH  19  20
ENDBRANCH   4  19
TORSDOF 5
ENDMDL
MODEL 2
REMARK VINA RESULT:      -7.3      0.615      1.501
REMARK  Name = 
REMARK  6 active torsions:
REMARK  status: ('A' for Active; 'I' for Inactive)
REMARK    1  A    between atoms: C_1  and  O_2
REMARK    2  A    between atoms: O_2  and  C_3
REMARK    3  A    between atoms: C_6  and  N_7
REMARK    4  A    between atoms: C_8  and  C_10
REMARK    5  A    between atoms: C_13  and  O_14
REMARK    6  A    between atoms: O_14  and  C_15
REMARK                            x       y       z     vdW  Elec       q    Type
REMARK                         _______ _______ _______ _____ _____    ______ ____
ROOT
ATOM      1  C   UNL     1       7.438   7.428  17.955  0.00  0.00    +0.000 A 
ATOM      2  C   UNL     1       6.299   7.277  17.149  0.00  0.00    +0.000 A 
ATOM      3  C   UNL     1       5.637   6.053  17.077  0.00  0.00    +0.000 A 
ATOM      4  C   UNL     1       6.115   4.961  17.800  0.00  0.00    +0.000 A 
ATOM      5  C   UNL     1       7.245   5.107  18.612  0.00  0.00    +0.000 A 
ATOM      6  C   UNL     1       7.921   6.329  18.673  0.00  0.00    +0.000 A 
ENDROOT
BRANCH   1   8
ATOM      7  N   UNL     1       8.958   9.027  19.025  0.00  0.00    +0.000 N 
ATOM      8  C   UNL     1       8.069   8.777  17.991  0.00  0.00    +0.000 C 
ATOM      9  O   UNL     1       7.752   9.567  17.110  0.00  0.00    +0.000 OA
ATOM     10  H   UNL     1       9.226   8.266  19.632  0.00  0.00    +0.000 HD
BRANCH   7  14
ATOM     11  C   UNL     1      10.768  12.730  19.956  0.00  0.00    +0.000 A 
ATOM     12  C   UNL     1      10.940  12.175  18.691  0.00  0.00    +0.000 A 
ATOM     13  C   UNL     1      10.338  10.961  18.361  0.00  0.00    +0.000 A 
ATOM     14  C   UNL     1       9.566  10.272  19.297  0.00  0.00    +0.000 A 
ATOM     15  C   UNL     1       9.373  10.843  20.560  0.00  0.00    +0.000 A 
ATOM     16  C   UNL     1       9.984  12.061  20.895  0.00  0.00    +0.000 A 
BRANCH  11  18
ATOM     17  C   UNL     1      10.712  14.939  20.793  0.00  0.00    +0.000 C 
ATOM     18  O   UNL     1      11.445  13.899  20.163  0.00  0.00    +0.000 OA
ENDBRANCH  11  18
ENDBRANCH   7  14
ENDBRANCH   1   8
BRANCH   4  19
ATOM     19  O   UNL     1       5.363   3.815  17.721  0.00  0.00    +0.000 OA
BRANCH  19  20
ATOM     20  C   UNL     1       4.065   3.838  18.208  0.00  0.00    +0.000 A 
ATOM     21  N   UNL     1       3.963   4.007  19.536  0.00  0.00    +0.000 NA
ATOM     22  C   UNL     1       2.714   4.042  20.031  0.00  0.00    +0.000 A 
ATOM     23  C   UNL     1       1.586   3.921  19.253  0.00  0.00    +0.000 A 
ATOM     24  C   UNL     1       1.805   3.774  17.904  0.00  0.00    +0.000 A 
ATOM     25  N   UNL     1       3.030   3.739  17.354  0.00  0.00    +0.000 NA
ENDBRANCH  19  20
ENDBRANCH   4  19
TORSDOF 5
ENDMDL
MODEL 3
REMARK VINA RESULT:      -7.2      5.724      7.695
REMARK  Name = 
REMARK  6 active torsions:
REMARK  status: ('A' for Active; 'I' for Inactive)
REMARK    1  A    between atoms: C_1  and  O_2
REMARK    2  A    between atoms: O_2  and  C_3
REMARK    3  A    between atoms: C_6  and  N_7
REMARK    4  A    between atoms: C_8  and  C_10
REMARK    5  A    between atoms: C_13  and  O_14
REMARK    6  A    between atoms: O_14  and  C_15
REMARK                            x       y       z     vdW  Elec       q    Type
REMARK                         _______ _______ _______ _____ _____    ______ ____
ROOT
ATOM      1  C   UNL     1       3.899   6.188  17.995  0.00  0.00    +0.000 A 
ATOM      2  C   UNL     1       4.769   7.008  17.260  0.00  0.00    +0.000 A 
ATOM      3  C   UNL     1       5.888   6.470  16.628  0.00  0.00    +0.000 A 
ATOM      4  C   UNL     1       6.158   5.107  16.735  0.00  0.00    +0.000 A 
ATOM      5  C   UNL     1       5.291   4.282  17.459  0.00  0.00    +0.000 A 
ATOM      6  C   UNL     1       4.176   4.822  18.108  0.00  0.00    +0.000 A 
ENDROOT
BRANCH   1   8
ATOM      7  N   UNL     1       2.483   8.168  18.286  0.00  0.00    +0.000 N 
ATOM      8  C   UNL     1       2.715   6.842  18.619  0.00  0.00    +0.000 C 
ATOM      9  O   UNL     1       2.038   6.165  19.383  0.00  0.00    +0.000 OA
ATOM     10  H   UNL     1       3.044   8.594  17.563  0.00  0.00    +0.000 HD
BRANCH   7  14
ATOM     11  C   UNL     1      -0.554  10.629  19.892  0.00  0.00    +0.000 A 
ATOM     12  C   UNL     1       0.304   9.943  20.746  0.00  0.00    +0.000 A 
ATOM     13  C   UNL     1       1.322   9.138  20.234  0.00  0.00    +0.000 A 
ATOM     14  C   UNL     1       1.489   8.992  18.857  0.00  0.00    +0.000 A 
ATOM     15  C   UNL     1       0.641   9.702  17.998  0.00  0.00    +0.000 A 
ATOM     16  C   UNL     1      -0.387  10.506  18.513  0.00  0.00    +0.000 A 
BRANCH  11  18
ATOM     17  C   UNL     1      -2.108  12.405  19.769  0.00  0.00    +0.000 C 
ATOM     18  O   UNL     1      -1.532  11.347  20.520  0.00  0.00    +0.000 OA
ENDBRANCH  11  18
ENDBRANCH   7  14
ENDBRANCH   1   8
BRANCH   4  19
ATOM     19  O   UNL     1       7.243   4.654  16.026  0.00  0.00    +0.000 OA
BRANCH  19  20
ATOM     20  C   UNL     1       7.145   4.568  14.646  0.00  0.00    +0.000 A 
ATOM     21  N   UNL     1       7.959   5.395  13.969  0.00  0.00    +0.000 NA
ATOM     22  C   UNL     1       7.889   5.322  12.629  0.00  0.00    +0.000 A 
ATOM     23  C   UNL     1       7.050   4.463  11.957  0.00  0.00    +0.000 A 
ATOM     24  C   UNL     1       6.276   3.647  12.748  0.00  0.00    +0.000 A 
ATOM     25  N   UNL     1       6.310   3.671  14.091  0.00  0.00    +0.000 NA
ENDBRANCH  19  20
ENDBRANCH   4  19
TORSDOF 5
ENDMDL
MODEL 4
REMARK VINA RESULT:      -7.2      5.918      7.752
REMARK  Name = 
REMARK  6 active torsions:
REMARK  status: ('A' for Active; 'I' for Inactive)
REMARK    1  A    between atoms: C_1  and  O_2
REMARK    2  A    between atoms: O_2  and  C_3
REMARK    3  A    between atoms: C_6  and  N_7
REMARK    4  A    between atoms: C_8  and  C_10
REMARK    5  A    between atoms: C_13  and  O_14
REMARK    6  A    between atoms: O_14  and  C_15
REMARK                            x       y       z     vdW  Elec       q    Type
REMARK                         _______ _______ _______ _____ _____    ______ ____
ROOT
ATOM      1  C   UNL     1       3.643   6.183  18.310  0.00  0.00    +0.000 A 
ATOM      2  C   UNL     1       4.090   4.875  18.553  0.00  0.00    +0.000 A 
ATOM      3  C   UNL     1       5.149   4.339  17.823  0.00  0.00    +0.000 A 
ATOM      4  C   UNL     1       5.764   5.101  16.831  0.00  0.00    +0.000 A 
ATOM      5  C   UNL     1       5.330   6.408  16.589  0.00  0.00    +0.000 A 
ATOM      6  C   UNL     1       4.256   6.943  17.309  0.00  0.00    +0.000 A 
ENDROOT
BRANCH   1   8
ATOM      7  N   UNL     1       2.331   8.056  19.194  0.00  0.00    +0.000 N 
ATOM      8  C   UNL     1       2.521   6.683  19.153  0.00  0.00    +0.000 C 
ATOM      9  O   UNL     1       1.855   5.848  19.753  0.00  0.00    +0.000 OA
ATOM     10  H   UNL     1       2.872   8.642  18.575  0.00  0.00    +0.000 HD
BRANCH   7  14
ATOM     11  C   UNL     1      -0.380  10.038  21.759  0.00  0.00    +0.000 A 
ATOM     12  C   UNL     1      -0.363  10.345  20.401  0.00  0.00    +0.000 A 
ATOM     13  C   UNL     1       0.515   9.690  19.537  0.00  0.00    +0.000 A 
ATOM     14  C   UNL     1       1.403   8.728  20.019  0.00  0.00    +0.000 A 
ATOM     15  C   UNL     1       1.367   8.402  21.380  0.00  0.00    +0.000 A 
ATOM     16  C   UNL     1       0.489   9.066  22.250  0.00  0.00    +0.000 A 
BRANCH  11  18
ATOM     17  C   UNL     1      -1.054  12.186  22.479  0.00  0.00    +0.000 C 
ATOM     18  O   UNL     1      -1.256  10.780  22.500  0.00  0.00    +0.000 OA
ENDBRANCH  11  18
ENDBRANCH   7  14
ENDBRANCH   1   8
BRANCH   4  19
ATOM     19  O   UNL     1       6.840   4.517  16.208  0.00  0.00    +0.000 OA
BRANCH  19  20
ATOM     20  C   UNL     1       6.860   4.472  14.823  0.00  0.00    +0.000 A 
ATOM     21  N   UNL     1       7.791   5.250  14.246  0.00  0.00    +0.000 NA
ATOM     22  C   UNL     1       7.835   5.216  12.903  0.00  0.00    +0.000 A 
ATOM     23  C   UNL     1       6.999   4.441  12.134  0.00  0.00    +0.000 A 
ATOM     24  C   UNL     1       6.099   3.668  12.828  0.00  0.00    +0.000 A 
ATOM     25  N   UNL     1       6.013   3.656  14.168  0.00  0.00    +0.000 NA
ENDBRANCH  19  20
ENDBRANCH   4  19
TORSDOF 5
ENDMDL
MODEL 5
REMARK VINA RESULT:      -7.2      5.920      7.697
REMARK  Name = 
REMARK  6 active torsions:
REMARK  status: ('A' for Active; 'I' for Inactive)
REMARK    1  A    between atoms: C_1  and  O_2
REMARK    2  A    between atoms: O_2  and  C_3
REMARK    3  A    between atoms: C_6  and  N_7
REMARK    4  A    between atoms: C_8  and  C_10
REMARK    5  A    between atoms: C_13  and  O_14
REMARK    6  A    between atoms: O_14  and  C_15
REMARK                            x       y       z     vdW  Elec       q    Type
REMARK                         _______ _______ _______ _____ _____    ______ ____
ROOT
ATOM      1  C   UNL     1       3.691   6.136  18.462  0.00  0.00    +0.000 A 
ATOM      2  C   UNL     1       4.193   4.859  18.756  0.00  0.00    +0.000 A 
ATOM      3  C   UNL     1       5.248   4.323  18.020  0.00  0.00    +0.000 A 
ATOM      4  C   UNL     1       5.803   5.054  16.970  0.00  0.00    +0.000 A 
ATOM      5  C   UNL     1       5.313   6.330  16.677  0.00  0.00    +0.000 A 
ATOM      6  C   UNL     1       4.244   6.864  17.403  0.00  0.00    +0.000 A 
ENDROOT
BRANCH   1   8
ATOM      7  N   UNL     1       2.397   8.014  19.362  0.00  0.00    +0.000 N 
ATOM      8  C   UNL     1       2.578   6.640  19.315  0.00  0.00    +0.000 C 
ATOM      9  O   UNL     1       1.911   5.806  19.916  0.00  0.00    +0.000 OA
ATOM     10  H   UNL     1       2.937   8.598  18.742  0.00  0.00    +0.000 HD
BRANCH   7  14
ATOM     11  C   UNL     1      -0.417  10.057  21.764  0.00  0.00    +0.000 A 
ATOM     12  C   UNL     1       0.440   9.126  22.344  0.00  0.00    +0.000 A 
ATOM     13  C   UNL     1       1.385   8.453  21.569  0.00  0.00    +0.000 A 
ATOM     14  C   UNL     1       1.478   8.688  20.197  0.00  0.00    +0.000 A 
ATOM     15  C   UNL     1       0.633   9.642  19.619  0.00  0.00    +0.000 A 
ATOM     16  C   UNL     1      -0.323  10.314  20.396  0.00  0.00    +0.000 A 
BRANCH  11  18
ATOM     17  C   UNL     1      -1.263  12.025  22.763  0.00  0.00    +0.000 C 
ATOM     18  O   UNL     1      -1.322  10.613  22.624  0.00  0.00    +0.000 OA
ENDBRANCH  11  18
ENDBRANCH   7  14
ENDBRANCH   1   8
BRANCH   4  19
ATOM     19  O   UNL     1       6.879   4.476  16.343  0.00  0.00    +0.000 OA
BRANCH  19  20
ATOM     20  C   UNL     1       6.912   4.465  14.957  0.00  0.00    +0.000 A 
ATOM     21  N   UNL     1       6.034   3.630  14.378  0.00  0.00    +0.000 NA
ATOM     22  C   UNL     1       6.041   3.609  13.034  0.00  0.00    +0.000 A 
ATOM     23  C   UNL     1       6.877   4.385  12.266  0.00  0.00    +0.000 A 
ATOM     24  C   UNL     1       7.720   5.220  12.961  0.00  0.00    +0.000 A 
ATOM     25  N   UNL     1       7.752   5.288  14.302  0.00  0.00    +0.000 NA
ENDBRANCH  19  20
ENDBRANCH   4  19
TORSDOF 5
ENDMDL
MODEL 6
REMARK VINA RESULT:      -7.1      5.658      7.647
REMARK  Name = 
REMARK  6 active torsions:
REMARK  status: ('A' for Active; 'I' for Inactive)
REMARK    1  A    between atoms: C_1  and  O_2
REMARK    2  A    between atoms: O_2  and  C_3
REMARK    3  A    between atoms: C_6  and  N_7
REMARK    4  A    between atoms: C_8  and  C_10
REMARK    5  A    between atoms: C_13  and  O_14
REMARK    6  A    between atoms: O_14  and  C_15
REMARK                            x       y       z     vdW  Elec       q    Type
REMARK                         _______ _______ _______ _____ _____    ______ ____
ROOT
ATOM      1  C   UNL     1       3.669   6.636  17.824  0.00  0.00    +0.000 A 
ATOM      2  C   UNL     1       4.892   7.210  17.445  0.00  0.00    +0.000 A 
ATOM      3  C   UNL     1       5.908   6.425  16.902  0.00  0.00    +0.000 A 
ATOM      4  C   UNL     1       5.716   5.053  16.746  0.00  0.00    +0.000 A 
ATOM      5  C   UNL     1       4.497   4.475  17.115  0.00  0.00    +0.000 A 
ATOM      6  C   UNL     1       3.482   5.258  17.675  0.00  0.00    +0.000 A 
ENDROOT
BRANCH   1   8
ATOM      7  N   UNL     1       2.275   8.639  17.588  0.00  0.00    +0.000 N 
ATOM      8  C   UNL     1       2.632   7.554  18.374  0.00  0.00    +0.000 C 
ATOM      9  O   UNL     1       2.176   7.286  19.479  0.00  0.00    +0.000 OA
ATOM     10  H   UNL     1       2.638   8.701  16.648  0.00  0.00    +0.000 HD
BRANCH   7  14
ATOM     11  C   UNL     1      -0.424  11.669  18.770  0.00  0.00    +0.000 A 
ATOM     12  C   UNL     1       0.947  11.885  18.874  0.00  0.00    +0.000 A 
ATOM     13  C   UNL     1       1.853  10.902  18.475  0.00  0.00    +0.000 A 
ATOM     14  C   UNL     1       1.403   9.678  17.979  0.00  0.00    +0.000 A 
ATOM     15  C   UNL     1       0.024   9.471  17.850  0.00  0.00    +0.000 A 
ATOM     16  C   UNL     1      -0.887  10.457  18.259  0.00  0.00    +0.000 A 
BRANCH  11  18
ATOM     17  C   UNL     1      -2.077  12.375  20.304  0.00  0.00    +0.000 C 
ATOM     18  O   UNL     1      -1.200  12.693  19.233  0.00  0.00    +0.000 OA
ENDBRANCH  11  18
ENDBRANCH   7  14
ENDBRANCH   1   8
BRANCH   4  19
ATOM     19  O   UNL     1       6.744   4.370  16.144  0.00  0.00    +0.000 OA
BRANCH  19  20
ATOM     20  C   UNL     1       6.850   4.414  14.763  0.00  0.00    +0.000 A 
ATOM     21  N   UNL     1       7.764   5.278  14.293  0.00  0.00    +0.000 NA
ATOM     22  C   UNL     1       7.891   5.332  12.956  0.00  0.00    +0.000 A 
ATOM     23  C   UNL     1       7.151   4.560  12.091  0.00  0.00    +0.000 A 
ATOM     24  C   UNL     1       6.260   3.694  12.680  0.00  0.00    +0.000 A 
ATOM     25  N   UNL     1       6.095   3.593  14.009  0.00  0.00    +0.000 NA
ENDBRANCH  19  20
ENDBRANCH   4  19
TORSDOF 5
ENDMDL
MODEL 7
REMARK VINA RESULT:      -7.1      5.765      7.800
REMARK  Name = 
REMARK  6 active torsions:
REMARK  status: ('A' for Active; 'I' for Inactive)
REMARK    1  A    between atoms: C_1  and  O_2
REMARK    2  A    between atoms: O_2  and  C_3
REMARK    3  A    between atoms: C_6  and  N_7
REMARK    4  A    between atoms: C_8  and  C_10
REMARK    5  A    between atoms: C_13  and  O_14
REMARK    6  A    between atoms: O_14  and  C_15
REMARK                            x       y       z     vdW  Elec       q    Type
REMARK                         _______ _______ _______ _____ _____    ______ ____
ROOT
ATOM      1  C   UNL     1       3.892   6.511  18.085  0.00  0.00    +0.000 A 
ATOM      2  C   UNL     1       4.492   7.140  16.984  0.00  0.00    +0.000 A 
ATOM      3  C   UNL     1       5.645   6.612  16.406  0.00  0.00    +0.000 A 
ATOM      4  C   UNL     1       6.219   5.456  16.933  0.00  0.00    +0.000 A 
ATOM      5  C   UNL     1       5.621   4.820  18.026  0.00  0.00    +0.000 A 
ATOM      6  C   UNL     1       4.474   5.356  18.618  0.00  0.00    +0.000 A 
ENDROOT
BRANCH   1   8
ATOM      7  N   UNL     1       2.328   8.399  18.163  0.00  0.00    +0.000 N 
ATOM      8  C   UNL     1       2.649   7.131  18.625  0.00  0.00    +0.000 C 
ATOM      9  O   UNL     1       2.006   6.480  19.441  0.00  0.00    +0.000 OA
ATOM     10  H   UNL     1       2.873   8.795  17.411  0.00  0.00    +0.000 HD
BRANCH   7  14
ATOM     11  C   UNL     1      -0.789  10.821  19.671  0.00  0.00    +0.000 A 
ATOM     12  C   UNL     1      -0.817  10.406  18.343  0.00  0.00    +0.000 A 
ATOM     13  C   UNL     1       0.196   9.594  17.832  0.00  0.00    +0.000 A 
ATOM     14  C   UNL     1       1.264   9.196  18.637  0.00  0.00    +0.000 A 
ATOM     15  C   UNL     1       1.278   9.592  19.979  0.00  0.00    +0.000 A 
ATOM     16  C   UNL     1       0.263  10.415  20.492  0.00  0.00    +0.000 A 
BRANCH  11  18
ATOM     17  C   UNL     1      -2.822  11.854  19.053  0.00  0.00    +0.000 C 
ATOM     18  O   UNL     1      -1.816  11.646  20.033  0.00  0.00    +0.000 OA
ENDBRANCH  11  18
ENDBRANCH   7  14
ENDBRANCH   1   8
BRANCH   4  19
ATOM     19  O   UNL     1       7.314   4.971  16.261  0.00  0.00    +0.000 OA
BRANCH  19  20
ATOM     20  C   UNL     1       7.215   4.767  14.893  0.00  0.00    +0.000 A 
ATOM     21  N   UNL     1       6.307   3.850  14.522  0.00  0.00    +0.000 NA
ATOM     22  C   UNL     1       6.187   3.642  13.200  0.00  0.00    +0.000 A 
ATOM     23  C   UNL     1       6.929   4.312  12.255  0.00  0.00    +0.000 A 
ATOM     24  C   UNL     1       7.813   5.244  12.744  0.00  0.00    +0.000 A 
ATOM     25  N   UNL     1       7.970   5.499  14.053  0.00  0.00    +0.000 NA
ENDBRANCH  19  20
ENDBRANCH   4  19
TORSDOF 5
ENDMDL
MODEL 8
REMARK VINA RESULT:      -7.1      7.032      9.882
REMARK  Name = 
REMARK  6 active torsions:
REMARK  status: ('A' for Active; 'I' for Inactive)
REMARK    1  A    between atoms: C_1  and  O_2
REMARK    2  A    between atoms: O_2  and  C_3
REMARK    3  A    between atoms: C_6  and  N_7
REMARK    4  A    between atoms: C_8  and  C_10
REMARK    5  A    between atoms: C_13  and  O_14
REMARK    6  A    between atoms: O_14  and  C_15
REMARK                            x       y       z     vdW  Elec       q    Type
REMARK                         _______ _______ _______ _____ _____    ______ ____
ROOT
ATOM      1  C   UNL     1       1.305   8.929  19.839  0.00  0.00    +0.000 A 
ATOM      2  C   UNL     1       1.466   8.413  21.134  0.00  0.00    +0.000 A 
ATOM      3  C   UNL     1       0.880   9.048  22.228  0.00  0.00    +0.000 A 
ATOM      4  C   UNL     1       0.139  10.213  22.041  0.00  0.00    +0.000 A 
ATOM      5  C   UNL     1      -0.032  10.728  20.752  0.00  0.00    +0.000 A 
ATOM      6  C   UNL     1       0.568  10.103  19.654  0.00  0.00    +0.000 A 
ENDROOT
BRANCH   1   8
ATOM      7  N   UNL     1       2.632   7.018  19.064  0.00  0.00    +0.000 N 
ATOM      8  C   UNL     1       1.946   8.174  18.725  0.00  0.00    +0.000 C 
ATOM      9  O   UNL     1       1.825   8.632  17.595  0.00  0.00    +0.000 OA
ATOM     10  H   UNL     1       2.576   6.678  20.013  0.00  0.00    +0.000 HD
BRANCH   7  14
ATOM     11  C   UNL     1       4.835   4.592  16.396  0.00  0.00    +0.000 A 
ATOM     12  C   UNL     1       5.195   5.924  16.576  0.00  0.00    +0.000 A 
ATOM     13  C   UNL     1       4.488   6.736  17.464  0.00  0.00    +0.000 A 
ATOM     14  C   UNL     1       3.399   6.233  18.176  0.00  0.00    +0.000 A 
ATOM     15  C   UNL     1       3.053   4.886  18.013  0.00  0.00    +0.000 A 
ATOM     16  C   UNL     1       3.759   4.072  17.114  0.00  0.00    +0.000 A 
BRANCH  11  18
ATOM     17  C   UNL     1       6.437   4.717  14.662  0.00  0.00    +0.000 C 
ATOM     18  O   UNL     1       5.580   3.920  15.468  0.00  0.00    +0.000 OA
ENDBRANCH  11  18
ENDBRANCH   7  14
ENDBRANCH   1   8
BRANCH   4  19
ATOM     19  O   UNL     1      -0.454  10.732  23.165  0.00  0.00    +0.000 OA
BRANCH  19  20
ATOM     20  C   UNL     1      -1.130  11.938  23.061  0.00  0.00    +0.000 A 
ATOM     21  N   UNL     1      -2.469  11.835  23.030  0.00  0.00    +0.000 NA
ATOM     22  C   UNL     1      -3.146  12.992  22.939  0.00  0.00    +0.000 A 
ATOM     23  C   UNL     1      -2.540  14.225  22.884  0.00  0.00    +0.000 A 
ATOM     24  C   UNL     1      -1.166  14.216  22.945  0.00  0.00    +0.000 A 
ATOM     25  N   UNL     1      -0.438  13.092  23.043  0.00  0.00    +0.000 NA
ENDBRANCH  19  20
ENDBRANCH   4  19
TORSDOF 5
ENDMDL
MODEL 9
REMARK VINA RESULT:      -7.1      5.827      7.865
REMARK  Name = 
REMARK  6 active torsions:
REMARK  status: ('A' for Active; 'I' for Inactive)
REMARK    1  A    between atoms: C_1  and  O_2
REMARK    2  A    between atoms: O_2  and  C_3
REMARK    3  A    between atoms: C_6  and  N_7
REMARK    4  A    between atoms: C_8  and  C_10
REMARK    5  A    between atoms: C_13  and  O_14
REMARK    6  A    between atoms: O_14  and  C_15
REMARK                            x       y       z     vdW  Elec       q    Type
REMARK                         _______ _______ _______ _____ _____    ______ ____
ROOT
ATOM      1  C   UNL     1       3.622   6.533  17.903  0.00  0.00    +0.000 A 
ATOM      2  C   UNL     1       3.698   5.133  17.950  0.00  0.00    +0.000 A 
ATOM      3  C   UNL     1       4.726   4.455  17.296  0.00  0.00    +0.000 A 
ATOM      4  C   UNL     1       5.680   5.170  16.575  0.00  0.00    +0.000 A 
ATOM      5  C   UNL     1       5.615   6.566  16.530  0.00  0.00    +0.000 A 
ATOM      6  C   UNL     1       4.576   7.248  17.172  0.00  0.00    +0.000 A 
ENDROOT
BRANCH   1   8
ATOM      7  N   UNL     1       2.111   8.437  18.226  0.00  0.00    +0.000 N 
ATOM      8  C   UNL     1       2.505   7.176  18.650  0.00  0.00    +0.000 C 
ATOM      9  O   UNL     1       2.022   6.549  19.585  0.00  0.00    +0.000 OA
ATOM     10  H   UNL     1       2.508   8.811  17.378  0.00  0.00    +0.000 HD
BRANCH   7  14
ATOM     11  C   UNL     1      -0.672  10.886  20.254  0.00  0.00    +0.000 A 
ATOM     12  C   UNL     1      -0.711  10.799  18.866  0.00  0.00    +0.000 A 
ATOM     13  C   UNL     1       0.190   9.983  18.180  0.00  0.00    +0.000 A 
ATOM     14  C   UNL     1       1.158   9.254  18.872  0.00  0.00    +0.000 A 
ATOM     15  C   UNL     1       1.180   9.323  20.270  0.00  0.00    +0.000 A 
ATOM     16  C   UNL     1       0.278  10.148  20.958  0.00  0.00    +0.000 A 
BRANCH  11  18
ATOM     17  C   UNL     1      -2.522  12.312  19.894  0.00  0.00    +0.000 C 
ATOM     18  O   UNL     1      -1.580  11.750  20.797  0.00  0.00    +0.000 OA
ENDBRANCH  11  18
ENDBRANCH   7  14
ENDBRANCH   1   8
BRANCH   4  19
ATOM     19  O   UNL     1       6.691   4.425  16.018  0.00  0.00    +0.000 OA
BRANCH  19  20
ATOM     20  C   UNL     1       6.837   4.432  14.640  0.00  0.00    +0.000 A 
ATOM     21  N   UNL     1       7.752   5.298  14.173  0.00  0.00    +0.000 NA
ATOM     22  C   UNL     1       7.918   5.316  12.839  0.00  0.00    +0.000 A 
ATOM     23  C   UNL     1       7.217   4.508  11.975  0.00  0.00    +0.000 A 
ATOM     24  C   UNL     1       6.322   3.645  12.562  0.00  0.00    +0.000 A 
ATOM     25  N   UNL     1       6.119   3.578  13.888  0.00  0.00    +0.000 NA
ENDBRANCH  19  20
ENDBRANCH   4  19
TORSDOF 5
ENDMDL
