MODEL 1
REMARK VINA RESULT:      -6.0      0.000      0.000
REMARK  Name = 
REMARK  6 active torsions:
REMARK  status: ('A' for Active; 'I' for Inactive)
REMARK    1  A    between atoms: C_1  and  C_2
REMARK    2  A    between atoms: C_2  and  C_3
REMARK    3  A    between atoms: C_3  and  C_4
REMARK    4  A    between atoms: C_12  and  C_13
REMARK    5  A    between atoms: C_18  and  C_19
REMARK    6  A    between atoms: C_18  and  C_21
REMARK                            x       y       z     vdW  Elec       q    Type
REMARK                         _______ _______ _______ _____ _____    ______ ____
ROOT
ATOM      1  C   UNL     1       3.503   6.833  18.889  0.00  0.00    +0.000 C 
ATOM      2  O   UNL     1       2.996   6.222  20.089  0.00  0.00    +0.000 OA
ATOM      3  C   UNL     1       2.540   4.862  20.015  0.00  0.00    +0.000 C 
ATOM      4  C   UNL     1       2.086   4.487  21.426  0.00  0.00    +0.000 C 
ATOM      5  C   UNL     1       1.646   3.036  21.548  0.00  0.00    +0.000 C 
ATOM      6  C   UNL     1       2.731   2.078  21.069  0.00  0.00    +0.000 C 
ATOM      7  C   UNL     1       3.240   2.426  19.671  0.00  0.00    +0.000 C 
ATOM      8  C   UNL     1       3.625   3.925  19.524  0.00  0.00    +0.000 C 
ATOM      9  C   UNL     1       3.699   4.476  18.028  0.00  0.00    +0.000 C 
ATOM     10  C   UNL     1       2.222   4.406  17.841  0.00  0.00    +0.000 C 
ATOM     11  N   UNL     1       1.577   4.064  16.792  0.00  0.00    +0.000 NA
ATOM     12  O   UNL     1       1.547   4.686  19.003  0.00  0.00    +0.000 OA
ATOM     13  C   UNL     1       4.423   5.821  18.118  0.00  0.00    +0.000 C 
ATOM     14  H   UNL     1       0.578   4.037  17.031  0.00  0.00    +0.000 HD
ENDROOT
BRANCH   9  15
ATOM     15  C   UNL     1       4.576   3.476  17.292  0.00  0.00    +0.000 C 
ATOM     16  N   UNL     1       5.303   2.646  16.681  0.00  0.00    +0.000 NA
ENDBRANCH   9  15
BRANCH  13  17
ATOM     17  C   UNL     1       4.726   6.346  16.774  0.00  0.00    +0.000 C 
ATOM     18  N   UNL     1       4.983   6.750  15.726  0.00  0.00    +0.000 NA
ENDBRANCH  13  17
BRANCH  13  19
ATOM     19  C   UNL     1       5.731   5.642  18.872  0.00  0.00    +0.000 C 
ATOM     20  N   UNL     1       6.816   5.494  19.497  0.00  0.00    +0.000 NA
ENDBRANCH  13  19
BRANCH   1  21
ATOM     21  C   UNL     1       2.327   7.450  18.057  0.00  0.00    +0.000 C 
BRANCH  21  23
ATOM     22  C   UNL     1       0.988   9.666  18.209  0.00  0.00    +0.000 C 
ATOM     23  C   UNL     1       2.294   8.973  17.869  0.00  0.00    +0.000 C 
ENDBRANCH  21  23
ENDBRANCH   1  21
TORSDOF 5
ENDMDL
MODEL 2
REMARK VINA RESULT:      -5.6      2.098      4.474
REMARK  Name = 
REMARK  6 active torsions:
REMARK  status: ('A' for Active; 'I' for Inactive)
REMARK    1  A    between atoms: C_1  and  C_2
REMARK    2  A    between atoms: C_2  and  C_3
REMARK    3  A    between atoms: C_3  and  C_4
REMARK    4  A    between atoms: C_12  and  C_13
REMARK    5  A    between atoms: C_18  and  C_19
REMARK    6  A    between atoms: C_18  and  C_21
REMARK                            x       y       z     vdW  Elec       q    Type
REMARK                         _______ _______ _______ _____ _____    ______ ____
ROOT
ATOM      1  C   UNL     1       2.552   5.912  18.498  0.00  0.00    +0.000 C 
ATOM      2  O   UNL     1       3.140   6.086  17.196  0.00  0.00    +0.000 OA
ATOM      3  C   UNL     1       4.467   5.581  16.980  0.00  0.00    +0.000 C 
ATOM      4  C   UNL     1       4.809   5.890  15.523  0.00  0.00    +0.000 C 
ATOM      5  C   UNL     1       6.163   5.343  15.096  0.00  0.00    +0.000 C 
ATOM      6  C   UNL     1       6.273   3.845  15.360  0.00  0.00    +0.000 C 
ATOM      7  C   UNL     1       5.914   3.480  16.800  0.00  0.00    +0.000 C 
ATOM      8  C   UNL     1       4.563   4.096  17.261  0.00  0.00    +0.000 C 
ATOM      9  C   UNL     1       4.344   4.178  18.840  0.00  0.00    +0.000 C 
ATOM     10  C   UNL     1       5.368   5.248  19.009  0.00  0.00    +0.000 C 
ATOM     11  N   UNL     1       6.207   5.390  19.962  0.00  0.00    +0.000 NA
ATOM     12  O   UNL     1       5.397   6.100  17.933  0.00  0.00    +0.000 OA
ATOM     13  C   UNL     1       2.855   4.468  19.036  0.00  0.00    +0.000 C 
ATOM     14  H   UNL     1       6.824   6.177  19.724  0.00  0.00    +0.000 HD
ENDROOT
BRANCH   9  15
ATOM     15  C   UNL     1       4.659   2.780  19.346  0.00  0.00    +0.000 C 
ATOM     16  N   UNL     1       4.921   1.620  19.766  0.00  0.00    +0.000 NA
ENDBRANCH   9  15
BRANCH  13  17
ATOM     17  C   UNL     1       2.485   4.380  20.460  0.00  0.00    +0.000 C 
ATOM     18  N   UNL     1       2.216   4.301  21.578  0.00  0.00    +0.000 NA
ENDBRANCH  13  17
BRANCH  13  19
ATOM     19  C   UNL     1       2.034   3.451  18.260  0.00  0.00    +0.000 C 
ATOM     20  N   UNL     1       1.353   2.607  17.617  0.00  0.00    +0.000 NA
ENDBRANCH  13  19
BRANCH   1  21
ATOM     21  C   UNL     1       2.971   7.090  19.443  0.00  0.00    +0.000 C 
BRANCH  21  23
ATOM     22  C   UNL     1       1.254   8.018  21.151  0.00  0.00    +0.000 C 
ATOM     23  C   UNL     1       1.916   8.149  19.791  0.00  0.00    +0.000 C 
ENDBRANCH  21  23
ENDBRANCH   1  21
TORSDOF 5
ENDMDL
MODEL 3
REMARK VINA RESULT:      -5.2      9.660     12.733
REMARK  Name = 
REMARK  6 active torsions:
REMARK  status: ('A' for Active; 'I' for Inactive)
REMARK    1  A    between atoms: C_1  and  C_2
REMARK    2  A    between atoms: C_2  and  C_3
REMARK    3  A    between atoms: C_3  and  C_4
REMARK    4  A    between atoms: C_12  and  C_13
REMARK    5  A    between atoms: C_18  and  C_19
REMARK    6  A    between atoms: C_18  and  C_21
REMARK                            x       y       z     vdW  Elec       q    Type
REMARK                         _______ _______ _______ _____ _____    ______ ____
ROOT
ATOM      1  C   UNL     1      -2.405  13.102  22.078  0.00  0.00    +0.000 C 
ATOM      2  O   UNL     1      -3.587  12.709  21.357  0.00  0.00    +0.000 OA
ATOM      3  C   UNL     1      -4.855  12.829  22.022  0.00  0.00    +0.000 C 
ATOM      4  C   UNL     1      -5.908  12.364  21.017  0.00  0.00    +0.000 C 
ATOM      5  C   UNL     1      -7.332  12.506  21.533  0.00  0.00    +0.000 C 
ATOM      6  C   UNL     1      -7.626  13.931  21.987  0.00  0.00    +0.000 C 
ATOM      7  C   UNL     1      -6.584  14.455  22.975  0.00  0.00    +0.000 C 
ATOM      8  C   UNL     1      -5.125  14.248  22.480  0.00  0.00    +0.000 C 
ATOM      9  C   UNL     1      -3.997  14.310  23.607  0.00  0.00    +0.000 C 
ATOM     10  C   UNL     1      -4.417  13.016  24.215  0.00  0.00    +0.000 C 
ATOM     11  N   UNL     1      -4.457  12.705  25.454  0.00  0.00    +0.000 NA
ATOM     12  O   UNL     1      -4.871  12.131  23.269  0.00  0.00    +0.000 OA
ATOM     13  C   UNL     1      -2.670  14.439  22.858  0.00  0.00    +0.000 C 
ATOM     14  H   UNL     1      -4.878  11.770  25.532  0.00  0.00    +0.000 HD
ENDROOT
BRANCH   9  15
ATOM     15  C   UNL     1      -4.280  15.598  24.364  0.00  0.00    +0.000 C 
ATOM     16  N   UNL     1      -4.514  16.665  24.992  0.00  0.00    +0.000 NA
ENDBRANCH   9  15
BRANCH  13  17
ATOM     17  C   UNL     1      -1.561  14.698  23.794  0.00  0.00    +0.000 C 
ATOM     18  N   UNL     1      -0.679  14.895  24.510  0.00  0.00    +0.000 NA
ENDBRANCH  13  17
BRANCH  13  19
ATOM     19  C   UNL     1      -2.753  15.596  21.876  0.00  0.00    +0.000 C 
ATOM     20  N   UNL     1      -2.823  16.557  21.062  0.00  0.00    +0.000 NA
ENDBRANCH  13  19
BRANCH   1  21
ATOM     21  C   UNL     1      -1.874  11.906  22.940  0.00  0.00    +0.000 C 
BRANCH  21  23
ATOM     22  C   UNL     1      -0.346   9.818  23.104  0.00  0.00    +0.000 C 
ATOM     23  C   UNL     1      -0.625  11.159  22.451  0.00  0.00    +0.000 C 
ENDBRANCH  21  23
ENDBRANCH   1  21
TORSDOF 5
ENDMDL
MODEL 4
REMARK VINA RESULT:      -5.2      7.976     10.017
REMARK  Name = 
REMARK  6 active torsions:
REMARK  status: ('A' for Active; 'I' for Inactive)
REMARK    1  A    between atoms: C_1  and  C_2
REMARK    2  A    between atoms: C_2  and  C_3
REMARK    3  A    between atoms: C_3  and  C_4
REMARK    4  A    between atoms: C_12  and  C_13
REMARK    5  A    between atoms: C_18  and  C_19
REMARK    6  A    between atoms: C_18  and  C_21
REMARK                            x       y       z     vdW  Elec       q    Type
REMARK                         _______ _______ _______ _____ _____    ______ ____
ROOT
ATOM      1  C   UNL     1      -1.542  11.431  19.974  0.00  0.00    +0.000 C 
ATOM      2  O   UNL     1      -0.235  11.469  19.375  0.00  0.00    +0.000 OA
ATOM      3  C   UNL     1       0.524  12.684  19.482  0.00  0.00    +0.000 C 
ATOM      4  C   UNL     1       1.856  12.419  18.781  0.00  0.00    +0.000 C 
ATOM      5  C   UNL     1       2.824  13.588  18.874  0.00  0.00    +0.000 C 
ATOM      6  C   UNL     1       3.062  14.009  20.320  0.00  0.00    +0.000 C 
ATOM      7  C   UNL     1       1.757  14.260  21.075  0.00  0.00    +0.000 C 
ATOM      8  C   UNL     1       0.737  13.096  20.924  0.00  0.00    +0.000 C 
ATOM      9  C   UNL     1      -0.781  13.459  21.253  0.00  0.00    +0.000 C 
ATOM     10  C   UNL     1      -0.930  14.303  20.034  0.00  0.00    +0.000 C 
ATOM     11  N   UNL     1      -1.571  15.402  19.910  0.00  0.00    +0.000 NA
ATOM     12  O   UNL     1      -0.200  13.810  18.981  0.00  0.00    +0.000 OA
ATOM     13  C   UNL     1      -1.509  12.121  21.384  0.00  0.00    +0.000 C 
ATOM     14  H   UNL     1      -1.395  15.765  18.965  0.00  0.00    +0.000 HD
ENDROOT
BRANCH   9  15
ATOM     15  C   UNL     1      -0.728  14.143  22.611  0.00  0.00    +0.000 C 
ATOM     16  N   UNL     1      -0.684  14.709  23.736  0.00  0.00    +0.000 NA
ENDBRANCH   9  15
BRANCH  13  17
ATOM     17  C   UNL     1      -2.884  12.315  21.877  0.00  0.00    +0.000 C 
ATOM     18  N   UNL     1      -3.967  12.458  22.244  0.00  0.00    +0.000 NA
ENDBRANCH  13  17
BRANCH  13  19
ATOM     19  C   UNL     1      -0.764  11.234  22.369  0.00  0.00    +0.000 C 
ATOM     20  N   UNL     1      -0.145  10.499  23.186  0.00  0.00    +0.000 NA
ENDBRANCH  13  19
BRANCH   1  21
ATOM     21  C   UNL     1      -2.612  11.986  18.972  0.00  0.00    +0.000 C 
BRANCH  21  23
ATOM     22  C   UNL     1      -2.805   9.887  17.463  0.00  0.00    +0.000 C 
ATOM     23  C   UNL     1      -2.656  11.394  17.557  0.00  0.00    +0.000 C 
ENDBRANCH  21  23
ENDBRANCH   1  21
TORSDOF 5
ENDMDL
MODEL 5
REMARK VINA RESULT:      -5.1      7.617      9.510
REMARK  Name = 
REMARK  6 active torsions:
REMARK  status: ('A' for Active; 'I' for Inactive)
REMARK    1  A    between atoms: C_1  and  C_2
REMARK    2  A    between atoms: C_2  and  C_3
REMARK    3  A    between atoms: C_3  and  C_4
REMARK    4  A    between atoms: C_12  and  C_13
REMARK    5  A    between atoms: C_18  and  C_19
REMARK    6  A    between atoms: C_18  and  C_21
REMARK                            x       y       z     vdW  Elec       q    Type
REMARK                         _______ _______ _______ _____ _____    ______ ____
ROOT
ATOM      1  C   UNL     1      -0.993  12.505  18.713  0.00  0.00    +0.000 C 
ATOM      2  O   UNL     1      -2.166  12.604  19.541  0.00  0.00    +0.000 OA
ATOM      3  C   UNL     1      -1.996  12.532  20.965  0.00  0.00    +0.000 C 
ATOM      4  C   UNL     1      -3.392  12.685  21.569  0.00  0.00    +0.000 C 
ATOM      5  C   UNL     1      -3.386  12.715  23.090  0.00  0.00    +0.000 C 
ATOM      6  C   UNL     1      -2.456  13.796  23.628  0.00  0.00    +0.000 C 
ATOM      7  C   UNL     1      -1.051  13.704  23.033  0.00  0.00    +0.000 C 
ATOM      8  C   UNL     1      -1.057  13.603  21.481  0.00  0.00    +0.000 C 
ATOM      9  C   UNL     1       0.278  13.030  20.820  0.00  0.00    +0.000 C 
ATOM     10  C   UNL     1       0.036  11.650  21.328  0.00  0.00    +0.000 C 
ATOM     11  N   UNL     1       0.894  10.812  21.770  0.00  0.00    +0.000 NA
ATOM     12  O   UNL     1      -1.303  11.346  21.360  0.00  0.00    +0.000 OA
ATOM     13  C   UNL     1       0.174  13.355  19.329  0.00  0.00    +0.000 C 
ATOM     14  H   UNL     1       0.382   9.993  22.122  0.00  0.00    +0.000 HD
ENDROOT
BRANCH   9  15
ATOM     15  C   UNL     1       1.397  13.850  21.442  0.00  0.00    +0.000 C 
ATOM     16  N   UNL     1       2.326  14.530  21.957  0.00  0.00    +0.000 NA
ENDBRANCH   9  15
BRANCH  13  17
ATOM     17  C   UNL     1       1.437  13.047  18.635  0.00  0.00    +0.000 C 
ATOM     18  N   UNL     1       2.434  12.802  18.111  0.00  0.00    +0.000 NA
ENDBRANCH  13  17
BRANCH  13  19
ATOM     19  C   UNL     1      -0.124  14.835  19.154  0.00  0.00    +0.000 C 
ATOM     20  N   UNL     1      -0.372  16.063  19.008  0.00  0.00    +0.000 NA
ENDBRANCH  13  19
BRANCH   1  21
ATOM     21  C   UNL     1      -0.659  11.001  18.426  0.00  0.00    +0.000 C 
BRANCH  21  23
ATOM     22  C   UNL     1      -2.289  10.062  16.641  0.00  0.00    +0.000 C 
ATOM     23  C   UNL     1      -1.817  10.054  18.083  0.00  0.00    +0.000 C 
ENDBRANCH  21  23
ENDBRANCH   1  21
TORSDOF 5
ENDMDL
MODEL 6
REMARK VINA RESULT:      -5.1     10.220     11.977
REMARK  Name = 
REMARK  6 active torsions:
REMARK  status: ('A' for Active; 'I' for Inactive)
REMARK    1  A    between atoms: C_1  and  C_2
REMARK    2  A    between atoms: C_2  and  C_3
REMARK    3  A    between atoms: C_3  and  C_4
REMARK    4  A    between atoms: C_12  and  C_13
REMARK    5  A    between atoms: C_18  and  C_19
REMARK    6  A    between atoms: C_18  and  C_21
REMARK                            x       y       z     vdW  Elec       q    Type
REMARK                         _______ _______ _______ _____ _____    ______ ____
ROOT
ATOM      1  C   UNL     1       7.788  14.874  19.395  0.00  0.00    +0.000 C 
ATOM      2  O   UNL     1       8.286  13.539  19.593  0.00  0.00    +0.000 OA
ATOM      3  C   UNL     1       9.615  13.239  19.138  0.00  0.00    +0.000 C 
ATOM      4  C   UNL     1       9.868  11.775  19.498  0.00  0.00    +0.000 C 
ATOM      5  C   UNL     1      11.276  11.310  19.159  0.00  0.00    +0.000 C 
ATOM      6  C   UNL     1      12.333  12.203  19.799  0.00  0.00    +0.000 C 
ATOM      7  C   UNL     1      12.109  13.684  19.491  0.00  0.00    +0.000 C 
ATOM      8  C   UNL     1      10.650  14.145  19.772  0.00  0.00    +0.000 C 
ATOM      9  C   UNL     1      10.201  15.495  19.049  0.00  0.00    +0.000 C 
ATOM     10  C   UNL     1      10.186  14.864  17.699  0.00  0.00    +0.000 C 
ATOM     11  N   UNL     1      10.549  15.376  16.586  0.00  0.00    +0.000 NA
ATOM     12  O   UNL     1       9.788  13.551  17.754  0.00  0.00    +0.000 OA
ATOM     13  C   UNL     1       8.905  15.922  19.739  0.00  0.00    +0.000 C 
ATOM     14  H   UNL     1      10.495  14.643  15.868  0.00  0.00    +0.000 HD
ENDROOT
BRANCH   9  15
ATOM     15  C   UNL     1      11.302  16.491  19.375  0.00  0.00    +0.000 C 
ATOM     16  N   UNL     1      12.216  17.317  19.645  0.00  0.00    +0.000 NA
ENDBRANCH   9  15
BRANCH  13  17
ATOM     17  C   UNL     1       8.487  17.262  19.289  0.00  0.00    +0.000 C 
ATOM     18  N   UNL     1       8.143  18.301  18.927  0.00  0.00    +0.000 NA
ENDBRANCH  13  17
BRANCH  13  19
ATOM     19  C   UNL     1       9.122  15.963  21.243  0.00  0.00    +0.000 C 
ATOM     20  N   UNL     1       9.302  15.996  22.490  0.00  0.00    +0.000 NA
ENDBRANCH  13  19
BRANCH   1  21
ATOM     21  C   UNL     1       7.147  15.008  17.971  0.00  0.00    +0.000 C 
BRANCH  21  23
ATOM     22  C   UNL     1       4.771  15.798  18.643  0.00  0.00    +0.000 C 
ATOM     23  C   UNL     1       5.627  14.836  17.841  0.00  0.00    +0.000 C 
ENDBRANCH  21  23
ENDBRANCH   1  21
TORSDOF 5
ENDMDL
MODEL 7
REMARK VINA RESULT:      -5.0      6.137      8.658
REMARK  Name = 
REMARK  6 active torsions:
REMARK  status: ('A' for Active; 'I' for Inactive)
REMARK    1  A    between atoms: C_1  and  C_2
REMARK    2  A    between atoms: C_2  and  C_3
REMARK    3  A    between atoms: C_3  and  C_4
REMARK    4  A    between atoms: C_12  and  C_13
REMARK    5  A    between atoms: C_18  and  C_19
REMARK    6  A    between atoms: C_18  and  C_21
REMARK                            x       y       z     vdW  Elec       q    Type
REMARK                         _______ _______ _______ _____ _____    ______ ____
ROOT
ATOM      1  C   UNL     1       1.360  11.787  20.505  0.00  0.00    +0.000 C 
ATOM      2  O   UNL     1       0.578  12.556  21.436  0.00  0.00    +0.000 OA
ATOM      3  C   UNL     1      -0.701  13.044  21.003  0.00  0.00    +0.000 C 
ATOM      4  C   UNL     1      -1.297  13.795  22.193  0.00  0.00    +0.000 C 
ATOM      5  C   UNL     1      -2.704  14.312  21.933  0.00  0.00    +0.000 C 
ATOM      6  C   UNL     1      -3.641  13.194  21.490  0.00  0.00    +0.000 C 
ATOM      7  C   UNL     1      -3.078  12.393  20.315  0.00  0.00    +0.000 C 
ATOM      8  C   UNL     1      -1.614  11.923  20.551  0.00  0.00    +0.000 C 
ATOM      9  C   UNL     1      -0.798  11.519  19.241  0.00  0.00    +0.000 C 
ATOM     10  C   UNL     1      -0.711  12.927  18.761  0.00  0.00    +0.000 C 
ATOM     11  N   UNL     1      -0.793  13.356  17.560  0.00  0.00    +0.000 NA
ATOM     12  O   UNL     1      -0.600  13.814  19.803  0.00  0.00    +0.000 OA
ATOM     13  C   UNL     1       0.440  10.772  19.738  0.00  0.00    +0.000 C 
ATOM     14  H   UNL     1      -0.782  14.383  17.591  0.00  0.00    +0.000 HD
ENDROOT
BRANCH   9  15
ATOM     15  C   UNL     1      -1.711  10.552  18.502  0.00  0.00    +0.000 C 
ATOM     16  N   UNL     1      -2.468   9.751  17.890  0.00  0.00    +0.000 NA
ENDBRANCH   9  15
BRANCH  13  17
ATOM     17  C   UNL     1       1.183  10.177  18.613  0.00  0.00    +0.000 C 
ATOM     18  N   UNL     1       1.756   9.692  17.738  0.00  0.00    +0.000 NA
ENDBRANCH  13  17
BRANCH  13  19
ATOM     19  C   UNL     1       0.015   9.656  20.679  0.00  0.00    +0.000 C 
ATOM     20  N   UNL     1      -0.337   8.731  21.460  0.00  0.00    +0.000 NA
ENDBRANCH  13  19
BRANCH   1  21
ATOM     21  C   UNL     1       2.219  12.739  19.603  0.00  0.00    +0.000 C 
BRANCH  21  23
ATOM     22  C   UNL     1       2.588  15.305  19.655  0.00  0.00    +0.000 C 
ATOM     23  C   UNL     1       2.893  13.950  20.264  0.00  0.00    +0.000 C 
ENDBRANCH  21  23
ENDBRANCH   1  21
TORSDOF 5
ENDMDL
MODEL 8
REMARK VINA RESULT:      -4.9      9.539     12.056
REMARK  Name = 
REMARK  6 active torsions:
REMARK  status: ('A' for Active; 'I' for Inactive)
REMARK    1  A    between atoms: C_1  and  C_2
REMARK    2  A    between atoms: C_2  and  C_3
REMARK    3  A    between atoms: C_3  and  C_4
REMARK    4  A    between atoms: C_12  and  C_13
REMARK    5  A    between atoms: C_18  and  C_19
REMARK    6  A    between atoms: C_18  and  C_21
REMARK                            x       y       z     vdW  Elec       q    Type
REMARK                         _______ _______ _______ _____ _____    ______ ____
ROOT
ATOM      1  C   UNL     1       9.819  12.822  20.840  0.00  0.00    +0.000 C 
ATOM      2  O   UNL     1      10.978  12.929  19.994  0.00  0.00    +0.000 OA
ATOM      3  C   UNL     1      10.871  13.716  18.797  0.00  0.00    +0.000 C 
ATOM      4  C   UNL     1      12.243  13.660  18.126  0.00  0.00    +0.000 C 
ATOM      5  C   UNL     1      12.333  14.518  16.874  0.00  0.00    +0.000 C 
ATOM      6  C   UNL     1      11.938  15.964  17.153  0.00  0.00    +0.000 C 
ATOM      7  C   UNL     1      10.582  16.074  17.849  0.00  0.00    +0.000 C 
ATOM      8  C   UNL     1      10.463  15.145  19.091  0.00  0.00    +0.000 C 
ATOM      9  C   UNL     1       8.977  14.830  19.579  0.00  0.00    +0.000 C 
ATOM     10  C   UNL     1       8.679  13.979  18.393  0.00  0.00    +0.000 C 
ATOM     11  N   UNL     1       7.584  13.897  17.738  0.00  0.00    +0.000 NA
ATOM     12  O   UNL     1       9.786  13.286  17.972  0.00  0.00    +0.000 OA
ATOM     13  C   UNL     1       9.120  14.222  20.975  0.00  0.00    +0.000 C 
ATOM     14  H   UNL     1       7.747  13.287  16.927  0.00  0.00    +0.000 HD
ENDROOT
BRANCH   9  15
ATOM     15  C   UNL     1       8.310  16.193  19.686  0.00  0.00    +0.000 C 
ATOM     16  N   UNL     1       7.757  17.322  19.773  0.00  0.00    +0.000 NA
ENDBRANCH   9  15
BRANCH  13  17
ATOM     17  C   UNL     1       7.803  14.062  21.617  0.00  0.00    +0.000 C 
ATOM     18  N   UNL     1       6.764  13.931  22.099  0.00  0.00    +0.000 NA
ENDBRANCH  13  17
BRANCH  13  19
ATOM     19  C   UNL     1       9.971  15.137  21.841  0.00  0.00    +0.000 C 
ATOM     20  N   UNL     1      10.677  15.896  22.558  0.00  0.00    +0.000 NA
ENDBRANCH  13  19
BRANCH   1  21
ATOM     21  C   UNL     1       8.900  11.649  20.354  0.00  0.00    +0.000 C 
BRANCH  21  23
ATOM     22  C   UNL     1       8.851   9.875  18.464  0.00  0.00    +0.000 C 
ATOM     23  C   UNL     1       9.564  10.442  19.678  0.00  0.00    +0.000 C 
ENDBRANCH  21  23
ENDBRANCH   1  21
TORSDOF 5
ENDMDL
MODEL 9
REMARK VINA RESULT:      -4.8      9.507     11.692
REMARK  Name = 
REMARK  6 active torsions:
REMARK  status: ('A' for Active; 'I' for Inactive)
REMARK    1  A    between atoms: C_1  and  C_2
REMARK    2  A    between atoms: C_2  and  C_3
REMARK    3  A    between atoms: C_3  and  C_4
REMARK    4  A    between atoms: C_12  and  C_13
REMARK    5  A    between atoms: C_18  and  C_19
REMARK    6  A    between atoms: C_18  and  C_21
REMARK                            x       y       z     vdW  Elec       q    Type
REMARK                         _______ _______ _______ _____ _____    ______ ____
ROOT
ATOM      1  C   UNL     1      10.639  14.629  20.774  0.00  0.00    +0.000 C 
ATOM      2  O   UNL     1       9.537  15.546  20.657  0.00  0.00    +0.000 OA
ATOM      3  C   UNL     1       8.758  15.516  19.451  0.00  0.00    +0.000 C 
ATOM      4  C   UNL     1       7.664  16.570  19.624  0.00  0.00    +0.000 C 
ATOM      5  C   UNL     1       6.686  16.615  18.460  0.00  0.00    +0.000 C 
ATOM      6  C   UNL     1       6.067  15.248  18.191  0.00  0.00    +0.000 C 
ATOM      7  C   UNL     1       7.121  14.151  18.037  0.00  0.00    +0.000 C 
ATOM      8  C   UNL     1       8.163  14.148  19.192  0.00  0.00    +0.000 C 
ATOM      9  C   UNL     1       9.533  13.391  18.883  0.00  0.00    +0.000 C 
ATOM     10  C   UNL     1       9.986  14.432  17.917  0.00  0.00    +0.000 C 
ATOM     11  N   UNL     1      10.619  14.265  16.820  0.00  0.00    +0.000 NA
ATOM     12  O   UNL     1       9.570  15.687  18.288  0.00  0.00    +0.000 OA
ATOM     13  C   UNL     1      10.222  13.214  20.237  0.00  0.00    +0.000 C 
ATOM     14  H   UNL     1      10.694  15.179  16.357  0.00  0.00    +0.000 HD
ENDROOT
BRANCH   9  15
ATOM     15  C   UNL     1       9.111  12.033  18.347  0.00  0.00    +0.000 C 
ATOM     16  N   UNL     1       8.761  10.906  17.902  0.00  0.00    +0.000 NA
ENDBRANCH   9  15
BRANCH  13  17
ATOM     17  C   UNL     1      11.414  12.356  20.113  0.00  0.00    +0.000 C 
ATOM     18  N   UNL     1      12.333  11.667  20.013  0.00  0.00    +0.000 NA
ENDBRANCH  13  17
BRANCH  13  19
ATOM     19  C   UNL     1       9.257  12.560  21.213  0.00  0.00    +0.000 C 
ATOM     20  N   UNL     1       8.458  12.018  22.024  0.00  0.00    +0.000 NA
ENDBRANCH  13  19
BRANCH   1  21
ATOM     21  C   UNL     1      11.927  15.247  20.129  0.00  0.00    +0.000 C 
BRANCH  21  23
ATOM     22  C   UNL     1      12.064  17.766  19.529  0.00  0.00    +0.000 C 
ATOM     23  C   UNL     1      12.333  16.669  20.541  0.00  0.00    +0.000 C 
ENDBRANCH  21  23
ENDBRANCH   1  21
TORSDOF 5
ENDMDL
