MODEL 1
REMARK VINA RESULT:      -7.7      0.000      0.000
REMARK  Name = 
REMARK  6 active torsions:
REMARK  status: ('A' for Active; 'I' for Inactive)
REMARK    1  A    between atoms: C_1  and  C_2
REMARK    2  A    between atoms: C_7  and  N_8
REMARK    3  A    between atoms: N_11  and  C_12
REMARK    4  A    between atoms: C_12  and  C_13
REMARK    5  A    between atoms: C_12  and  C_14
REMARK    6  A    between atoms: C_12  and  C_15
REMARK                            x       y       z     vdW  Elec       q    Type
REMARK                         _______ _______ _______ _____ _____    ______ ____
ROOT
ATOM      1  C   UNL     1       6.903   5.668  18.984  0.00  0.00    +0.000 C 
ATOM      2  C   UNL     1       6.546   5.168  17.614  0.00  0.00    +0.000 A 
ATOM      3  C   UNL     1       7.347   5.592  16.526  0.00  0.00    +0.000 A 
ATOM      4  C   UNL     1       7.045   5.138  15.261  0.00  0.00    +0.000 A 
ATOM      5  C   UNL     1       5.943   4.361  15.028  0.00  0.00    +0.000 A 
ATOM      6  C   UNL     1       5.133   3.937  16.050  0.00  0.00    +0.000 A 
ATOM      7  C   UNL     1       5.489   4.246  17.374  0.00  0.00    +0.000 A 
ATOM      8  O   UNL     1       5.800   4.026  13.717  0.00  0.00    +0.000 OA
ATOM      9  C   UNL     1       7.070   4.480  13.209  0.00  0.00    +0.000 C 
ATOM     10  O   UNL     1       7.753   5.368  14.120  0.00  0.00    +0.000 OA
ENDROOT
BRANCH   7  11
ATOM     11  N   UNL     1       4.828   3.587  18.454  0.00  0.00    +0.000 N 
ATOM     12  C   UNL     1       3.495   3.821  18.757  0.00  0.00    +0.000 C 
ATOM     13  O   UNL     1       2.745   4.556  18.124  0.00  0.00    +0.000 OA
ATOM     14  N   UNL     1       3.061   3.110  19.856  0.00  0.00    +0.000 N 
ATOM     15  H   UNL     1       5.181   2.684  18.733  0.00  0.00    +0.000 HD
ATOM     16  H   UNL     1       3.781   2.886  20.524  0.00  0.00    +0.000 HD
BRANCH  14  17
ATOM     17  C   UNL     1       1.695   3.304  20.403  0.00  0.00    +0.000 C 
ATOM     18  C   UNL     1       0.613   2.737  19.461  0.00  0.00    +0.000 C 
ATOM     19  C   UNL     1       1.591   2.543  21.735  0.00  0.00    +0.000 C 
ATOM     20  C   UNL     1       1.417   4.795  20.676  0.00  0.00    +0.000 C 
ENDBRANCH  14  17
ENDBRANCH   7  11
TORSDOF 2
ENDMDL
MODEL 2
REMARK VINA RESULT:      -7.6      0.081      1.025
REMARK  Name = 
REMARK  6 active torsions:
REMARK  status: ('A' for Active; 'I' for Inactive)
REMARK    1  A    between atoms: C_1  and  C_2
REMARK    2  A    between atoms: C_7  and  N_8
REMARK    3  A    between atoms: N_11  and  C_12
REMARK    4  A    between atoms: C_12  and  C_13
REMARK    5  A    between atoms: C_12  and  C_14
REMARK    6  A    between atoms: C_12  and  C_15
REMARK                            x       y       z     vdW  Elec       q    Type
REMARK                         _______ _______ _______ _____ _____    ______ ____
ROOT
ATOM      1  C   UNL     1       6.762   5.640  18.973  0.00  0.00    +0.000 C 
ATOM      2  C   UNL     1       6.450   5.132  17.595  0.00  0.00    +0.000 A 
ATOM      3  C   UNL     1       7.260   5.584  16.525  0.00  0.00    +0.000 A 
ATOM      4  C   UNL     1       7.001   5.124  15.253  0.00  0.00    +0.000 A 
ATOM      5  C   UNL     1       5.929   4.313  14.995  0.00  0.00    +0.000 A 
ATOM      6  C   UNL     1       5.111   3.861  15.998  0.00  0.00    +0.000 A 
ATOM      7  C   UNL     1       5.429   4.178  17.331  0.00  0.00    +0.000 A 
ATOM      8  O   UNL     1       5.825   3.977  13.680  0.00  0.00    +0.000 OA
ATOM      9  C   UNL     1       7.091   4.471  13.201  0.00  0.00    +0.000 C 
ATOM     10  O   UNL     1       7.726   5.379  14.128  0.00  0.00    +0.000 OA
ENDROOT
BRANCH   7  11
ATOM     11  N   UNL     1       4.766   3.496  18.395  0.00  0.00    +0.000 N 
ATOM     12  C   UNL     1       3.452   3.772  18.744  0.00  0.00    +0.000 C 
ATOM     13  O   UNL     1       2.721   4.570  18.168  0.00  0.00    +0.000 OA
ATOM     14  N   UNL     1       3.014   3.027  19.819  0.00  0.00    +0.000 N 
ATOM     15  H   UNL     1       5.084   2.565  18.620  0.00  0.00    +0.000 HD
ATOM     16  H   UNL     1       3.740   2.739  20.456  0.00  0.00    +0.000 HD
BRANCH  14  17
ATOM     17  C   UNL     1       1.673   3.254  20.411  0.00  0.00    +0.000 C 
ATOM     18  C   UNL     1       1.388   4.753  20.636  0.00  0.00    +0.000 C 
ATOM     19  C   UNL     1       0.613   2.725  19.431  0.00  0.00    +0.000 C 
ATOM     20  C   UNL     1       1.521   2.492  21.742  0.00  0.00    +0.000 C 
ENDBRANCH  14  17
ENDBRANCH   7  11
TORSDOF 2
ENDMDL
MODEL 3
REMARK VINA RESULT:      -7.6      0.068      1.010
REMARK  Name = 
REMARK  6 active torsions:
REMARK  status: ('A' for Active; 'I' for Inactive)
REMARK    1  A    between atoms: C_1  and  C_2
REMARK    2  A    between atoms: C_7  and  N_8
REMARK    3  A    between atoms: N_11  and  C_12
REMARK    4  A    between atoms: C_12  and  C_13
REMARK    5  A    between atoms: C_12  and  C_14
REMARK    6  A    between atoms: C_12  and  C_15
REMARK                            x       y       z     vdW  Elec       q    Type
REMARK                         _______ _______ _______ _____ _____    ______ ____
ROOT
ATOM      1  C   UNL     1       6.816   5.640  18.976  0.00  0.00    +0.000 C 
ATOM      2  C   UNL     1       6.482   5.133  17.603  0.00  0.00    +0.000 A 
ATOM      3  C   UNL     1       7.283   5.576  16.522  0.00  0.00    +0.000 A 
ATOM      4  C   UNL     1       7.003   5.116  15.254  0.00  0.00    +0.000 A 
ATOM      5  C   UNL     1       5.921   4.315  15.011  0.00  0.00    +0.000 A 
ATOM      6  C   UNL     1       5.111   3.872  16.025  0.00  0.00    +0.000 A 
ATOM      7  C   UNL     1       5.448   4.188  17.353  0.00  0.00    +0.000 A 
ATOM      8  O   UNL     1       5.797   3.977  13.698  0.00  0.00    +0.000 OA
ATOM      9  C   UNL     1       7.061   4.459  13.202  0.00  0.00    +0.000 C 
ATOM     10  O   UNL     1       7.717   5.362  14.120  0.00  0.00    +0.000 OA
ENDROOT
BRANCH   7  11
ATOM     11  N   UNL     1       4.792   3.514  18.427  0.00  0.00    +0.000 N 
ATOM     12  C   UNL     1       3.471   3.770  18.762  0.00  0.00    +0.000 C 
ATOM     13  O   UNL     1       2.727   4.541  18.164  0.00  0.00    +0.000 OA
ATOM     14  N   UNL     1       3.041   3.039  19.849  0.00  0.00    +0.000 N 
ATOM     15  H   UNL     1       5.128   2.596  18.673  0.00  0.00    +0.000 HD
ATOM     16  H   UNL     1       3.768   2.779  20.496  0.00  0.00    +0.000 HD
BRANCH  14  17
ATOM     17  C   UNL     1       1.690   3.249  20.427  0.00  0.00    +0.000 C 
ATOM     18  C   UNL     1       1.517   2.506  21.768  0.00  0.00    +0.000 C 
ATOM     19  C   UNL     1       1.508   4.750  20.705  0.00  0.00    +0.000 C 
ATOM     20  C   UNL     1       0.593   2.803  19.441  0.00  0.00    +0.000 C 
ENDBRANCH  14  17
ENDBRANCH   7  11
TORSDOF 2
ENDMDL
MODEL 4
REMARK VINA RESULT:      -7.0      1.838      2.966
REMARK  Name = 
REMARK  6 active torsions:
REMARK  status: ('A' for Active; 'I' for Inactive)
REMARK    1  A    between atoms: C_1  and  C_2
REMARK    2  A    between atoms: C_7  and  N_8
REMARK    3  A    between atoms: N_11  and  C_12
REMARK    4  A    between atoms: C_12  and  C_13
REMARK    5  A    between atoms: C_12  and  C_14
REMARK    6  A    between atoms: C_12  and  C_15
REMARK                            x       y       z     vdW  Elec       q    Type
REMARK                         _______ _______ _______ _____ _____    ______ ____
ROOT
ATOM      1  C   UNL     1       5.206   3.781  16.060  0.00  0.00    +0.000 C 
ATOM      2  C   UNL     1       5.984   4.708  16.948  0.00  0.00    +0.000 A 
ATOM      3  C   UNL     1       6.659   5.794  16.340  0.00  0.00    +0.000 A 
ATOM      4  C   UNL     1       7.370   6.665  17.136  0.00  0.00    +0.000 A 
ATOM      5  C   UNL     1       7.507   6.450  18.480  0.00  0.00    +0.000 A 
ATOM      6  C   UNL     1       6.882   5.404  19.109  0.00  0.00    +0.000 A 
ATOM      7  C   UNL     1       6.019   4.580  18.365  0.00  0.00    +0.000 A 
ATOM      8  O   UNL     1       8.258   7.404  19.095  0.00  0.00    +0.000 OA
ATOM      9  C   UNL     1       8.363   8.360  18.022  0.00  0.00    +0.000 C 
ATOM     10  O   UNL     1       8.001   7.805  16.738  0.00  0.00    +0.000 OA
ENDROOT
BRANCH   7  11
ATOM     11  N   UNL     1       5.151   3.673  19.043  0.00  0.00    +0.000 N 
ATOM     12  C   UNL     1       3.815   3.964  19.275  0.00  0.00    +0.000 C 
ATOM     13  O   UNL     1       3.235   4.974  18.894  0.00  0.00    +0.000 OA
ATOM     14  N   UNL     1       3.163   2.970  19.976  0.00  0.00    +0.000 N 
ATOM     15  H   UNL     1       5.375   2.691  18.995  0.00  0.00    +0.000 HD
ATOM     16  H   UNL     1       3.755   2.422  20.579  0.00  0.00    +0.000 HD
BRANCH  14  17
ATOM     17  C   UNL     1       1.755   3.141  20.414  0.00  0.00    +0.000 C 
ATOM     18  C   UNL     1       0.759   2.569  19.384  0.00  0.00    +0.000 C 
ATOM     19  C   UNL     1       1.557   2.365  21.727  0.00  0.00    +0.000 C 
ATOM     20  C   UNL     1       1.435   4.625  20.677  0.00  0.00    +0.000 C 
ENDBRANCH  14  17
ENDBRANCH   7  11
TORSDOF 2
ENDMDL
MODEL 5
REMARK VINA RESULT:      -7.0      1.810      3.114
REMARK  Name = 
REMARK  6 active torsions:
REMARK  status: ('A' for Active; 'I' for Inactive)
REMARK    1  A    between atoms: C_1  and  C_2
REMARK    2  A    between atoms: C_7  and  N_8
REMARK    3  A    between atoms: N_11  and  C_12
REMARK    4  A    between atoms: C_12  and  C_13
REMARK    5  A    between atoms: C_12  and  C_14
REMARK    6  A    between atoms: C_12  and  C_15
REMARK                            x       y       z     vdW  Elec       q    Type
REMARK                         _______ _______ _______ _____ _____    ______ ____
ROOT
ATOM      1  C   UNL     1       5.265   3.638  16.103  0.00  0.00    +0.000 C 
ATOM      2  C   UNL     1       6.019   4.598  16.976  0.00  0.00    +0.000 A 
ATOM      3  C   UNL     1       6.707   5.664  16.346  0.00  0.00    +0.000 A 
ATOM      4  C   UNL     1       7.397   6.564  17.127  0.00  0.00    +0.000 A 
ATOM      5  C   UNL     1       7.501   6.399  18.481  0.00  0.00    +0.000 A 
ATOM      6  C   UNL     1       6.862   5.374  19.131  0.00  0.00    +0.000 A 
ATOM      7  C   UNL     1       6.019   4.522  18.396  0.00  0.00    +0.000 A 
ATOM      8  O   UNL     1       8.235   7.376  19.079  0.00  0.00    +0.000 OA
ATOM      9  C   UNL     1       8.365   8.293  17.975  0.00  0.00    +0.000 C 
ATOM     10  O   UNL     1       8.036   7.691  16.704  0.00  0.00    +0.000 OA
ENDROOT
BRANCH   7  11
ATOM     11  N   UNL     1       5.136   3.638  19.086  0.00  0.00    +0.000 N 
ATOM     12  C   UNL     1       3.806   3.956  19.319  0.00  0.00    +0.000 C 
ATOM     13  O   UNL     1       3.245   4.974  18.930  0.00  0.00    +0.000 OA
ATOM     14  N   UNL     1       3.137   2.982  20.031  0.00  0.00    +0.000 N 
ATOM     15  H   UNL     1       5.341   2.651  19.046  0.00  0.00    +0.000 HD
ATOM     16  H   UNL     1       3.720   2.428  20.637  0.00  0.00    +0.000 HD
BRANCH  14  17
ATOM     17  C   UNL     1       1.734   3.184  20.471  0.00  0.00    +0.000 C 
ATOM     18  C   UNL     1       1.397   4.678  20.650  0.00  0.00    +0.000 C 
ATOM     19  C   UNL     1       0.799   2.626  19.386  0.00  0.00    +0.000 C 
ATOM     20  C   UNL     1       1.455   2.427  21.784  0.00  0.00    +0.000 C 
ENDBRANCH  14  17
ENDBRANCH   7  11
TORSDOF 2
ENDMDL
MODEL 6
REMARK VINA RESULT:      -7.0      1.843      3.129
REMARK  Name = 
REMARK  6 active torsions:
REMARK  status: ('A' for Active; 'I' for Inactive)
REMARK    1  A    between atoms: C_1  and  C_2
REMARK    2  A    between atoms: C_7  and  N_8
REMARK    3  A    between atoms: N_11  and  C_12
REMARK    4  A    between atoms: C_12  and  C_13
REMARK    5  A    between atoms: C_12  and  C_14
REMARK    6  A    between atoms: C_12  and  C_15
REMARK                            x       y       z     vdW  Elec       q    Type
REMARK                         _______ _______ _______ _____ _____    ______ ____
ROOT
ATOM      1  C   UNL     1       5.108   3.797  16.104  0.00  0.00    +0.000 C 
ATOM      2  C   UNL     1       5.920   4.706  16.980  0.00  0.00    +0.000 A 
ATOM      3  C   UNL     1       6.590   5.792  16.364  0.00  0.00    +0.000 A 
ATOM      4  C   UNL     1       7.333   6.647  17.148  0.00  0.00    +0.000 A 
ATOM      5  C   UNL     1       7.505   6.416  18.485  0.00  0.00    +0.000 A 
ATOM      6  C   UNL     1       6.886   5.370  19.121  0.00  0.00    +0.000 A 
ATOM      7  C   UNL     1       5.994   4.563  18.393  0.00  0.00    +0.000 A 
ATOM      8  O   UNL     1       8.283   7.356  19.088  0.00  0.00    +0.000 OA
ATOM      9  C   UNL     1       8.368   8.322  18.022  0.00  0.00    +0.000 C 
ATOM     10  O   UNL     1       7.964   7.784  16.743  0.00  0.00    +0.000 OA
ENDROOT
BRANCH   7  11
ATOM     11  N   UNL     1       5.136   3.659  19.087  0.00  0.00    +0.000 N 
ATOM     12  C   UNL     1       3.796   3.938  19.314  0.00  0.00    +0.000 C 
ATOM     13  O   UNL     1       3.205   4.936  18.914  0.00  0.00    +0.000 OA
ATOM     14  N   UNL     1       3.155   2.950  20.031  0.00  0.00    +0.000 N 
ATOM     15  H   UNL     1       5.371   2.678  19.056  0.00  0.00    +0.000 HD
ATOM     16  H   UNL     1       3.753   2.419  20.643  0.00  0.00    +0.000 HD
BRANCH  14  17
ATOM     17  C   UNL     1       1.745   3.112  20.465  0.00  0.00    +0.000 C 
ATOM     18  C   UNL     1       1.469   2.392  21.801  0.00  0.00    +0.000 C 
ATOM     19  C   UNL     1       1.472   4.610  20.684  0.00  0.00    +0.000 C 
ATOM     20  C   UNL     1       0.773   2.596  19.387  0.00  0.00    +0.000 C 
ENDBRANCH  14  17
ENDBRANCH   7  11
TORSDOF 2
ENDMDL
MODEL 7
REMARK VINA RESULT:      -6.7      4.857      7.681
REMARK  Name = 
REMARK  6 active torsions:
REMARK  status: ('A' for Active; 'I' for Inactive)
REMARK    1  A    between atoms: C_1  and  C_2
REMARK    2  A    between atoms: C_7  and  N_8
REMARK    3  A    between atoms: N_11  and  C_12
REMARK    4  A    between atoms: C_12  and  C_13
REMARK    5  A    between atoms: C_12  and  C_14
REMARK    6  A    between atoms: C_12  and  C_15
REMARK                            x       y       z     vdW  Elec       q    Type
REMARK                         _______ _______ _______ _____ _____    ______ ____
ROOT
ATOM      1  C   UNL     1       1.594   8.816  18.005  0.00  0.00    +0.000 C 
ATOM      2  C   UNL     1       1.267   9.009  19.457  0.00  0.00    +0.000 A 
ATOM      3  C   UNL     1       0.330  10.016  19.796  0.00  0.00    +0.000 A 
ATOM      4  C   UNL     1       0.006  10.205  21.121  0.00  0.00    +0.000 A 
ATOM      5  C   UNL     1       0.633   9.503  22.114  0.00  0.00    +0.000 A 
ATOM      6  C   UNL     1       1.556   8.528  21.833  0.00  0.00    +0.000 A 
ATOM      7  C   UNL     1       1.804   8.191  20.490  0.00  0.00    +0.000 A 
ATOM      8  O   UNL     1       0.194   9.839  23.357  0.00  0.00    +0.000 OA
ATOM      9  C   UNL     1      -0.944  10.648  23.004  0.00  0.00    +0.000 C 
ATOM     10  O   UNL     1      -0.932  11.058  21.618  0.00  0.00    +0.000 OA
ENDROOT
BRANCH   7  11
ATOM     11  N   UNL     1       2.537   7.006  20.184  0.00  0.00    +0.000 N 
ATOM     12  C   UNL     1       1.979   5.741  20.303  0.00  0.00    +0.000 C 
ATOM     13  O   UNL     1       0.819   5.508  20.625  0.00  0.00    +0.000 OA
ATOM     14  N   UNL     1       2.865   4.732  19.993  0.00  0.00    +0.000 N 
ATOM     15  H   UNL     1       3.288   7.083  19.516  0.00  0.00    +0.000 HD
ATOM     16  H   UNL     1       3.834   4.960  20.147  0.00  0.00    +0.000 HD
BRANCH  14  17
ATOM     17  C   UNL     1       2.491   3.305  20.161  0.00  0.00    +0.000 C 
ATOM     18  C   UNL     1       1.282   2.921  19.282  0.00  0.00    +0.000 C 
ATOM     19  C   UNL     1       3.678   2.435  19.717  0.00  0.00    +0.000 C 
ATOM     20  C   UNL     1       2.182   2.986  21.636  0.00  0.00    +0.000 C 
ENDBRANCH  14  17
ENDBRANCH   7  11
TORSDOF 2
ENDMDL
MODEL 8
REMARK VINA RESULT:      -6.7      2.320      6.361
REMARK  Name = 
REMARK  6 active torsions:
REMARK  status: ('A' for Active; 'I' for Inactive)
REMARK    1  A    between atoms: C_1  and  C_2
REMARK    2  A    between atoms: C_7  and  N_8
REMARK    3  A    between atoms: N_11  and  C_12
REMARK    4  A    between atoms: C_12  and  C_13
REMARK    5  A    between atoms: C_12  and  C_14
REMARK    6  A    between atoms: C_12  and  C_15
REMARK                            x       y       z     vdW  Elec       q    Type
REMARK                         _______ _______ _______ _____ _____    ______ ____
ROOT
ATOM      1  C   UNL     1       7.673   4.765  17.919  0.00  0.00    +0.000 C 
ATOM      2  C   UNL     1       6.173   4.710  17.953  0.00  0.00    +0.000 A 
ATOM      3  C   UNL     1       5.504   5.504  18.916  0.00  0.00    +0.000 A 
ATOM      4  C   UNL     1       4.128   5.479  18.959  0.00  0.00    +0.000 A 
ATOM      5  C   UNL     1       3.406   4.642  18.153  0.00  0.00    +0.000 A 
ATOM      6  C   UNL     1       4.013   3.847  17.215  0.00  0.00    +0.000 A 
ATOM      7  C   UNL     1       5.402   3.953  17.027  0.00  0.00    +0.000 A 
ATOM      8  O   UNL     1       2.064   4.745  18.351  0.00  0.00    +0.000 OA
ATOM      9  C   UNL     1       2.030   5.913  19.194  0.00  0.00    +0.000 C 
ATOM     10  O   UNL     1       3.322   6.239  19.753  0.00  0.00    +0.000 OA
ENDROOT
BRANCH   7  11
ATOM     11  N   UNL     1       6.007   3.353  15.883  0.00  0.00    +0.000 N 
ATOM     12  C   UNL     1       5.852   3.875  14.607  0.00  0.00    +0.000 C 
ATOM     13  O   UNL     1       5.241   4.902  14.333  0.00  0.00    +0.000 OA
ATOM     14  N   UNL     1       6.488   3.126  13.639  0.00  0.00    +0.000 N 
ATOM     15  H   UNL     1       6.849   2.817  16.029  0.00  0.00    +0.000 HD
ATOM     16  H   UNL     1       6.591   2.149  13.863  0.00  0.00    +0.000 HD
BRANCH  14  17
ATOM     17  C   UNL     1       6.352   3.461  12.200  0.00  0.00    +0.000 C 
ATOM     18  C   UNL     1       7.160   4.720  11.823  0.00  0.00    +0.000 C 
ATOM     19  C   UNL     1       6.910   2.290  11.373  0.00  0.00    +0.000 C 
ATOM     20  C   UNL     1       4.873   3.660  11.817  0.00  0.00    +0.000 C 
ENDBRANCH  14  17
ENDBRANCH   7  11
TORSDOF 2
ENDMDL
MODEL 9
REMARK VINA RESULT:      -6.7      3.008      4.335
REMARK  Name = 
REMARK  6 active torsions:
REMARK  status: ('A' for Active; 'I' for Inactive)
REMARK    1  A    between atoms: C_1  and  C_2
REMARK    2  A    between atoms: C_7  and  N_8
REMARK    3  A    between atoms: N_11  and  C_12
REMARK    4  A    between atoms: C_12  and  C_13
REMARK    5  A    between atoms: C_12  and  C_14
REMARK    6  A    between atoms: C_12  and  C_15
REMARK                            x       y       z     vdW  Elec       q    Type
REMARK                         _______ _______ _______ _____ _____    ______ ____
ROOT
ATOM      1  C   UNL     1       1.632   4.171  17.720  0.00  0.00    +0.000 C 
ATOM      2  C   UNL     1       3.090   4.373  18.016  0.00  0.00    +0.000 A 
ATOM      3  C   UNL     1       4.020   4.065  16.993  0.00  0.00    +0.000 A 
ATOM      4  C   UNL     1       5.363   4.252  17.237  0.00  0.00    +0.000 A 
ATOM      5  C   UNL     1       5.815   4.643  18.468  0.00  0.00    +0.000 A 
ATOM      6  C   UNL     1       4.951   4.939  19.491  0.00  0.00    +0.000 A 
ATOM      7  C   UNL     1       3.567   4.913  19.242  0.00  0.00    +0.000 A 
ATOM      8  O   UNL     1       7.170   4.756  18.522  0.00  0.00    +0.000 OA
ATOM      9  C   UNL     1       7.481   4.629  17.121  0.00  0.00    +0.000 C 
ATOM     10  O   UNL     1       6.383   4.095  16.348  0.00  0.00    +0.000 OA
ENDROOT
BRANCH   7  11
ATOM     11  N   UNL     1       2.669   5.483  20.194  0.00  0.00    +0.000 N 
ATOM     12  C   UNL     1       2.215   6.790  20.091  0.00  0.00    +0.000 C 
ATOM     13  O   UNL     1       2.483   7.560  19.176  0.00  0.00    +0.000 OA
ATOM     14  N   UNL     1       1.384   7.153  21.130  0.00  0.00    +0.000 N 
ATOM     15  H   UNL     1       2.058   4.853  20.692  0.00  0.00    +0.000 HD
ATOM     16  H   UNL     1       1.546   6.657  21.992  0.00  0.00    +0.000 HD
BRANCH  14  17
ATOM     17  C   UNL     1       0.879   8.543  21.257  0.00  0.00    +0.000 C 
ATOM     18  C   UNL     1      -0.580   8.581  21.756  0.00  0.00    +0.000 C 
ATOM     19  C   UNL     1       1.741   9.281  22.294  0.00  0.00    +0.000 C 
ATOM     20  C   UNL     1       0.989   9.293  19.915  0.00  0.00    +0.000 C 
ENDBRANCH  14  17
ENDBRANCH   7  11
TORSDOF 2
ENDMDL
