MODEL 1
REMARK VINA RESULT:      -6.9      0.000      0.000
REMARK  Name = 
REMARK  6 active torsions:
REMARK  status: ('A' for Active; 'I' for Inactive)
REMARK    1  A    between atoms: C_1  and  N_2
REMARK    2  A    between atoms: N_2  and  C_13
REMARK    3  A    between atoms: N_16  and  C_17
REMARK    4  A    between atoms: C_17  and  C_18
REMARK    5  A    between atoms: C_24  and  C_25
REMARK    6  A    between atoms: C_24  and  C_26
REMARK                            x       y       z     vdW  Elec       q    Type
REMARK                         _______ _______ _______ _____ _____    ______ ____
ROOT
ATOM      1  C   UNL     1      -0.069   9.981  20.063  0.00  0.00    +0.000 C 
ATOM      2  C   UNL     1       0.265  10.551  18.679  0.00  0.00    +0.000 C 
ATOM      3  C   UNL     1       1.360  11.603  18.786  0.00  0.00    +0.000 C 
ATOM      4  N   UNL     1       1.070  12.706  19.708  0.00  0.00    +0.000 NA
ATOM      5  C   UNL     1       0.399  12.304  20.954  0.00  0.00    +0.000 C 
ATOM      6  C   UNL     1      -0.641  11.192  20.819  0.00  0.00    +0.000 C 
ENDROOT
BRANCH   1   8
ATOM      7  C   UNL     1       1.038   9.375  22.253  0.00  0.00    +0.000 C 
ATOM      8  N   UNL     1       1.084   9.317  20.784  0.00  0.00    +0.000 N 
ATOM      9  C   UNL     1       1.553   8.120  20.282  0.00  0.00    +0.000 A 
ATOM     10  N   UNL     1       1.590   6.969  20.931  0.00  0.00    +0.000 NA
ATOM     11  C   UNL     1       2.014   5.941  20.089  0.00  0.00    +0.000 A 
ATOM     12  C   UNL     1       2.150   4.566  20.407  0.00  0.00    +0.000 A 
ATOM     13  C   UNL     1       2.504   3.674  19.390  0.00  0.00    +0.000 A 
ATOM     14 CL   UNL     1       2.779   2.017  19.773  0.00  0.00    +0.000 Cl
ATOM     15  C   UNL     1       2.650   4.090  18.070  0.00  0.00    +0.000 A 
ATOM     16  C   UNL     1       2.567   5.442  17.749  0.00  0.00    +0.000 A 
ATOM     17  C   UNL     1       2.303   6.341  18.788  0.00  0.00    +0.000 A 
ATOM     18  S   UNL     1       2.343   8.038  18.746  0.00  0.00    +0.000 S 
ENDBRANCH   1   8
BRANCH   4  19
ATOM     19  C   UNL     1       2.345  13.357  20.078  0.00  0.00    +0.000 C 
BRANCH  19  20
ATOM     20  C   UNL     1       2.338  14.838  19.896  0.00  0.00    +0.000 C 
ATOM     21  C   UNL     1       2.944  15.728  20.718  0.00  0.00    +0.000 C 
ATOM     22  C   UNL     1       2.724  17.214  20.538  0.00  0.00    +0.000 C 
ATOM     23  C   UNL     1       1.800  17.444  19.325  0.00  0.00    +0.000 C 
ATOM     24  C   UNL     1       2.331  16.621  18.104  0.00  0.00    +0.000 C 
ATOM     25  C   UNL     1       1.543  15.428  18.761  0.00  0.00    +0.000 C 
ATOM     26  C   UNL     1       0.502  16.522  19.241  0.00  0.00    +0.000 C 
ATOM     27  C   UNL     1      -0.526  16.937  18.174  0.00  0.00    +0.000 C 
ATOM     28  C   UNL     1      -0.264  16.218  20.537  0.00  0.00    +0.000 C 
ENDBRANCH  19  20
ENDBRANCH   4  19
TORSDOF 3
ENDMDL
MODEL 2
REMARK VINA RESULT:      -6.8      4.040      9.310
REMARK  Name = 
REMARK  6 active torsions:
REMARK  status: ('A' for Active; 'I' for Inactive)
REMARK    1  A    between atoms: C_1  and  N_2
REMARK    2  A    between atoms: N_2  and  C_13
REMARK    3  A    between atoms: N_16  and  C_17
REMARK    4  A    between atoms: C_17  and  C_18
REMARK    5  A    between atoms: C_24  and  C_25
REMARK    6  A    between atoms: C_24  and  C_26
REMARK                            x       y       z     vdW  Elec       q    Type
REMARK                         _______ _______ _______ _____ _____    ______ ____
ROOT
ATOM      1  C   UNL     1       0.461  11.477  18.986  0.00  0.00    +0.000 C 
ATOM      2  C   UNL     1      -0.510  10.292  19.070  0.00  0.00    +0.000 C 
ATOM      3  C   UNL     1       0.182   9.078  19.675  0.00  0.00    +0.000 C 
ATOM      4  N   UNL     1       1.405   8.656  18.985  0.00  0.00    +0.000 NA
ATOM      5  C   UNL     1       2.262   9.759  18.524  0.00  0.00    +0.000 C 
ATOM      6  C   UNL     1       1.530  10.992  17.993  0.00  0.00    +0.000 C 
ENDROOT
BRANCH   1   8
ATOM      7  C   UNL     1       2.221  12.802  20.222  0.00  0.00    +0.000 C 
ATOM      8  N   UNL     1       1.037  11.936  20.308  0.00  0.00    +0.000 N 
ATOM      9  C   UNL     1       0.152  12.287  21.308  0.00  0.00    +0.000 A 
ATOM     10  N   UNL     1       0.077  13.469  21.895  0.00  0.00    +0.000 NA
ATOM     11  C   UNL     1      -1.003  13.514  22.778  0.00  0.00    +0.000 A 
ATOM     12  C   UNL     1      -1.428  14.613  23.564  0.00  0.00    +0.000 A 
ATOM     13  C   UNL     1      -2.598  14.484  24.320  0.00  0.00    +0.000 A 
ATOM     14 CL   UNL     1      -3.078  15.766  25.366  0.00  0.00    +0.000 Cl
ATOM     15  C   UNL     1      -3.385  13.338  24.261  0.00  0.00    +0.000 A 
ATOM     16  C   UNL     1      -2.957  12.232  23.531  0.00  0.00    +0.000 A 
ATOM     17  C   UNL     1      -1.741  12.336  22.849  0.00  0.00    +0.000 A 
ATOM     18  S   UNL     1      -0.872  11.111  22.055  0.00  0.00    +0.000 S 
ENDBRANCH   1   8
BRANCH   4  19
ATOM     19  C   UNL     1       2.205   7.826  19.910  0.00  0.00    +0.000 C 
BRANCH  19  20
ATOM     20  C   UNL     1       2.153   6.366  19.607  0.00  0.00    +0.000 C 
ATOM     21  C   UNL     1       1.846   5.394  20.500  0.00  0.00    +0.000 C 
ATOM     22  C   UNL     1       1.997   3.935  20.129  0.00  0.00    +0.000 C 
ATOM     23  C   UNL     1       2.477   3.833  18.667  0.00  0.00    +0.000 C 
ATOM     24  C   UNL     1       1.579   4.739  17.760  0.00  0.00    +0.000 C 
ATOM     25  C   UNL     1       2.536   5.895  18.229  0.00  0.00    +0.000 C 
ATOM     26  C   UNL     1       3.677   4.796  18.249  0.00  0.00    +0.000 C 
ATOM     27  C   UNL     1       4.304   4.500  16.875  0.00  0.00    +0.000 C 
ATOM     28  C   UNL     1       4.822   5.013  19.249  0.00  0.00    +0.000 C 
ENDBRANCH  19  20
ENDBRANCH   4  19
TORSDOF 3
ENDMDL
MODEL 3
REMARK VINA RESULT:      -6.8      0.863      1.859
REMARK  Name = 
REMARK  6 active torsions:
REMARK  status: ('A' for Active; 'I' for Inactive)
REMARK    1  A    between atoms: C_1  and  N_2
REMARK    2  A    between atoms: N_2  and  C_13
REMARK    3  A    between atoms: N_16  and  C_17
REMARK    4  A    between atoms: C_17  and  C_18
REMARK    5  A    between atoms: C_24  and  C_25
REMARK    6  A    between atoms: C_24  and  C_26
REMARK                            x       y       z     vdW  Elec       q    Type
REMARK                         _______ _______ _______ _____ _____    ______ ____
ROOT
ATOM      1  C   UNL     1      -0.003   9.595  19.865  0.00  0.00    +0.000 C 
ATOM      2  C   UNL     1       0.294  10.298  18.534  0.00  0.00    +0.000 C 
ATOM      3  C   UNL     1       1.265  11.452  18.748  0.00  0.00    +0.000 C 
ATOM      4  N   UNL     1       0.836  12.446  19.737  0.00  0.00    +0.000 NA
ATOM      5  C   UNL     1       0.188  11.884  20.931  0.00  0.00    +0.000 C 
ATOM      6  C   UNL     1      -0.720  10.678  20.688  0.00  0.00    +0.000 C 
ENDROOT
BRANCH   1   8
ATOM      7  C   UNL     1       1.179   9.080  22.038  0.00  0.00    +0.000 C 
ATOM      8  N   UNL     1       1.200   9.008  20.570  0.00  0.00    +0.000 N 
ATOM      9  C   UNL     1       1.730   7.836  20.070  0.00  0.00    +0.000 A 
ATOM     10  N   UNL     1       1.848   6.697  20.729  0.00  0.00    +0.000 NA
ATOM     11  C   UNL     1       2.316   5.686  19.889  0.00  0.00    +0.000 A 
ATOM     12  C   UNL     1       2.540   4.325  20.218  0.00  0.00    +0.000 A 
ATOM     13  C   UNL     1       2.926   3.444  19.202  0.00  0.00    +0.000 A 
ATOM     14 CL   UNL     1       3.307   1.811  19.596  0.00  0.00    +0.000 Cl
ATOM     15  C   UNL     1       3.022   3.854  17.876  0.00  0.00    +0.000 A 
ATOM     16  C   UNL     1       2.853   5.196  17.544  0.00  0.00    +0.000 A 
ATOM     17  C   UNL     1       2.555   6.088  18.579  0.00  0.00    +0.000 A 
ATOM     18  S   UNL     1       2.494   7.784  18.519  0.00  0.00    +0.000 S 
ENDBRANCH   1   8
BRANCH   4  19
ATOM     19  C   UNL     1       2.024  13.203  20.188  0.00  0.00    +0.000 C 
BRANCH  19  20
ATOM     20  C   UNL     1       1.990  14.649  19.823  0.00  0.00    +0.000 C 
ATOM     21  C   UNL     1       0.957  15.275  19.210  0.00  0.00    +0.000 C 
ATOM     22  C   UNL     1       1.101  16.701  18.727  0.00  0.00    +0.000 C 
ATOM     23  C   UNL     1       2.507  17.218  19.091  0.00  0.00    +0.000 C 
ATOM     24  C   UNL     1       2.799  16.914  20.599  0.00  0.00    +0.000 C 
ATOM     25  C   UNL     1       3.214  15.491  20.074  0.00  0.00    +0.000 C 
ATOM     26  C   UNL     1       3.724  16.238  18.773  0.00  0.00    +0.000 C 
ATOM     27  C   UNL     1       5.122  16.869  18.906  0.00  0.00    +0.000 C 
ATOM     28  C   UNL     1       3.693  15.436  17.464  0.00  0.00    +0.000 C 
ENDBRANCH  19  20
ENDBRANCH   4  19
TORSDOF 3
ENDMDL
MODEL 4
REMARK VINA RESULT:      -6.8      0.982      1.704
REMARK  Name = 
REMARK  6 active torsions:
REMARK  status: ('A' for Active; 'I' for Inactive)
REMARK    1  A    between atoms: C_1  and  N_2
REMARK    2  A    between atoms: N_2  and  C_13
REMARK    3  A    between atoms: N_16  and  C_17
REMARK    4  A    between atoms: C_17  and  C_18
REMARK    5  A    between atoms: C_24  and  C_25
REMARK    6  A    between atoms: C_24  and  C_26
REMARK                            x       y       z     vdW  Elec       q    Type
REMARK                         _______ _______ _______ _____ _____    ______ ____
ROOT
ATOM      1  C   UNL     1       0.088   9.457  19.629  0.00  0.00    +0.000 C 
ATOM      2  C   UNL     1       0.490  10.127  18.309  0.00  0.00    +0.000 C 
ATOM      3  C   UNL     1       1.460  11.272  18.567  0.00  0.00    +0.000 C 
ATOM      4  N   UNL     1       0.978  12.293  19.503  0.00  0.00    +0.000 NA
ATOM      5  C   UNL     1       0.238  11.765  20.659  0.00  0.00    +0.000 C 
ATOM      6  C   UNL     1      -0.669  10.567  20.376  0.00  0.00    +0.000 C 
ENDROOT
BRANCH   1   8
ATOM      7  C   UNL     1       1.060   8.884  21.889  0.00  0.00    +0.000 C 
ATOM      8  N   UNL     1       1.229   8.869  20.429  0.00  0.00    +0.000 N 
ATOM      9  C   UNL     1       1.834   7.727  19.943  0.00  0.00    +0.000 A 
ATOM     10  N   UNL     1       1.913   6.566  20.570  0.00  0.00    +0.000 NA
ATOM     11  C   UNL     1       2.487   5.598  19.746  0.00  0.00    +0.000 A 
ATOM     12  C   UNL     1       2.709   4.231  20.047  0.00  0.00    +0.000 A 
ATOM     13  C   UNL     1       3.215   3.397  19.044  0.00  0.00    +0.000 A 
ATOM     14 CL   UNL     1       3.594   1.758  19.416  0.00  0.00    +0.000 Cl
ATOM     15  C   UNL     1       3.433   3.857  17.750  0.00  0.00    +0.000 A 
ATOM     16  C   UNL     1       3.265   5.207  17.450  0.00  0.00    +0.000 A 
ATOM     17  C   UNL     1       2.845   6.054  18.481  0.00  0.00    +0.000 A 
ATOM     18  S   UNL     1       2.749   7.749  18.476  0.00  0.00    +0.000 S 
ENDBRANCH   1   8
BRANCH   4  19
ATOM     19  C   UNL     1       2.142  13.042  20.023  0.00  0.00    +0.000 C 
BRANCH  19  20
ATOM     20  C   UNL     1       2.477  14.259  19.228  0.00  0.00    +0.000 C 
ATOM     21  C   UNL     1       3.293  14.285  18.147  0.00  0.00    +0.000 C 
ATOM     22  C   UNL     1       3.704  15.602  17.526  0.00  0.00    +0.000 C 
ATOM     23  C   UNL     1       3.023  16.755  18.290  0.00  0.00    +0.000 C 
ATOM     24  C   UNL     1       1.495  16.451  18.439  0.00  0.00    +0.000 C 
ATOM     25  C   UNL     1       1.941  15.593  19.679  0.00  0.00    +0.000 C 
ATOM     26  C   UNL     1       3.080  16.676  19.882  0.00  0.00    +0.000 C 
ATOM     27  C   UNL     1       2.624  17.951  20.615  0.00  0.00    +0.000 C 
ATOM     28  C   UNL     1       4.377  16.193  20.544  0.00  0.00    +0.000 C 
ENDBRANCH  19  20
ENDBRANCH   4  19
TORSDOF 3
ENDMDL
MODEL 5
REMARK VINA RESULT:      -6.6      5.992      8.591
REMARK  Name = 
REMARK  6 active torsions:
REMARK  status: ('A' for Active; 'I' for Inactive)
REMARK    1  A    between atoms: C_1  and  N_2
REMARK    2  A    between atoms: N_2  and  C_13
REMARK    3  A    between atoms: N_16  and  C_17
REMARK    4  A    between atoms: C_17  and  C_18
REMARK    5  A    between atoms: C_24  and  C_25
REMARK    6  A    between atoms: C_24  and  C_26
REMARK                            x       y       z     vdW  Elec       q    Type
REMARK                         _______ _______ _______ _____ _____    ______ ____
ROOT
ATOM      1  C   UNL     1       4.316  15.769  19.610  0.00  0.00    +0.000 C 
ATOM      2  C   UNL     1       4.476  15.591  18.095  0.00  0.00    +0.000 C 
ATOM      3  C   UNL     1       5.653  14.674  17.789  0.00  0.00    +0.000 C 
ATOM      4  N   UNL     1       6.933  15.097  18.366  0.00  0.00    +0.000 NA
ATOM      5  C   UNL     1       6.841  15.642  19.729  0.00  0.00    +0.000 C 
ATOM      6  C   UNL     1       5.608  16.495  20.022  0.00  0.00    +0.000 C 
ENDROOT
BRANCH   1   8
ATOM      7  C   UNL     1       4.769  14.392  21.679  0.00  0.00    +0.000 C 
ATOM      8  N   UNL     1       4.071  14.496  20.389  0.00  0.00    +0.000 N 
ATOM      9  C   UNL     1       2.789  13.983  20.398  0.00  0.00    +0.000 A 
ATOM     10  N   UNL     1       2.044  13.782  21.471  0.00  0.00    +0.000 NA
ATOM     11  C   UNL     1       0.763  13.363  21.110  0.00  0.00    +0.000 A 
ATOM     12  C   UNL     1      -0.326  13.079  21.971  0.00  0.00    +0.000 A 
ATOM     13  C   UNL     1      -1.565  12.761  21.404  0.00  0.00    +0.000 A 
ATOM     14 CL   UNL     1      -2.875  12.308  22.427  0.00  0.00    +0.000 Cl
ATOM     15  C   UNL     1      -1.769  12.789  20.028  0.00  0.00    +0.000 A 
ATOM     16  C   UNL     1      -0.698  13.019  19.167  0.00  0.00    +0.000 A 
ATOM     17  C   UNL     1       0.557  13.248  19.738  0.00  0.00    +0.000 A 
ATOM     18  S   UNL     1       2.063  13.355  18.960  0.00  0.00    +0.000 S 
ENDBRANCH   1   8
BRANCH   4  19
ATOM     19  C   UNL     1       7.837  13.928  18.412  0.00  0.00    +0.000 C 
BRANCH  19  20
ATOM     20  C   UNL     1       9.280  14.289  18.528  0.00  0.00    +0.000 C 
ATOM     21  C   UNL     1       9.927  15.183  17.742  0.00  0.00    +0.000 C 
ATOM     22  C   UNL     1      11.429  15.339  17.832  0.00  0.00    +0.000 C 
ATOM     23  C   UNL     1      11.971  14.394  18.923  0.00  0.00    +0.000 C 
ATOM     24  C   UNL     1      11.128  14.570  20.230  0.00  0.00    +0.000 C 
ATOM     25  C   UNL     1      10.131  13.568  19.541  0.00  0.00    +0.000 C 
ATOM     26  C   UNL     1      11.416  12.899  18.900  0.00  0.00    +0.000 C 
ATOM     27  C   UNL     1      12.153  11.915  19.826  0.00  0.00    +0.000 C 
ATOM     28  C   UNL     1      11.227  12.211  17.541  0.00  0.00    +0.000 C 
ENDBRANCH  19  20
ENDBRANCH   4  19
TORSDOF 3
ENDMDL
MODEL 6
REMARK VINA RESULT:      -6.6      4.137      9.445
REMARK  Name = 
REMARK  6 active torsions:
REMARK  status: ('A' for Active; 'I' for Inactive)
REMARK    1  A    between atoms: C_1  and  N_2
REMARK    2  A    between atoms: N_2  and  C_13
REMARK    3  A    between atoms: N_16  and  C_17
REMARK    4  A    between atoms: C_17  and  C_18
REMARK    5  A    between atoms: C_24  and  C_25
REMARK    6  A    between atoms: C_24  and  C_26
REMARK                            x       y       z     vdW  Elec       q    Type
REMARK                         _______ _______ _______ _____ _____    ______ ____
ROOT
ATOM      1  C   UNL     1       0.420  11.409  19.130  0.00  0.00    +0.000 C 
ATOM      2  C   UNL     1      -0.551  10.222  19.164  0.00  0.00    +0.000 C 
ATOM      3  C   UNL     1       0.139   8.986  19.725  0.00  0.00    +0.000 C 
ATOM      4  N   UNL     1       1.365   8.590  19.025  0.00  0.00    +0.000 NA
ATOM      5  C   UNL     1       2.224   9.710  18.611  0.00  0.00    +0.000 C 
ATOM      6  C   UNL     1       1.495  10.962  18.125  0.00  0.00    +0.000 C 
ENDROOT
BRANCH   1   8
ATOM      7  C   UNL     1       2.235  12.596  20.426  0.00  0.00    +0.000 C 
ATOM      8  N   UNL     1       0.989  11.817  20.471  0.00  0.00    +0.000 N 
ATOM      9  C   UNL     1       0.104  12.225  21.449  0.00  0.00    +0.000 A 
ATOM     10  N   UNL     1       0.097  13.405  22.043  0.00  0.00    +0.000 NA
ATOM     11  C   UNL     1      -1.001  13.522  22.895  0.00  0.00    +0.000 A 
ATOM     12  C   UNL     1      -1.370  14.645  23.679  0.00  0.00    +0.000 A 
ATOM     13  C   UNL     1      -2.567  14.595  24.400  0.00  0.00    +0.000 A 
ATOM     14 CL   UNL     1      -2.983  15.902  25.443  0.00  0.00    +0.000 Cl
ATOM     15  C   UNL     1      -3.432  13.510  24.309  0.00  0.00    +0.000 A 
ATOM     16  C   UNL     1      -3.064  12.380  23.582  0.00  0.00    +0.000 A 
ATOM     17  C   UNL     1      -1.824  12.400  22.936  0.00  0.00    +0.000 A 
ATOM     18  S   UNL     1      -1.023  11.121  22.157  0.00  0.00    +0.000 S 
ENDBRANCH   1   8
BRANCH   4  19
ATOM     19  C   UNL     1       2.160   7.725  19.922  0.00  0.00    +0.000 C 
BRANCH  19  20
ATOM     20  C   UNL     1       2.488   6.393  19.337  0.00  0.00    +0.000 C 
ATOM     21  C   UNL     1       2.229   6.014  18.063  0.00  0.00    +0.000 C 
ATOM     22  C   UNL     1       2.442   4.581  17.628  0.00  0.00    +0.000 C 
ATOM     23  C   UNL     1       2.996   3.770  18.816  0.00  0.00    +0.000 C 
ATOM     24  C   UNL     1       4.202   4.538  19.453  0.00  0.00    +0.000 C 
ATOM     25  C   UNL     1       3.089   5.336  20.227  0.00  0.00    +0.000 C 
ATOM     26  C   UNL     1       2.265   3.982  20.218  0.00  0.00    +0.000 C 
ATOM     27  C   UNL     1       2.664   2.984  21.320  0.00  0.00    +0.000 C 
ATOM     28  C   UNL     1       0.735   4.110  20.232  0.00  0.00    +0.000 C 
ENDBRANCH  19  20
ENDBRANCH   4  19
TORSDOF 3
ENDMDL
MODEL 7
REMARK VINA RESULT:      -6.5      4.166      6.099
REMARK  Name = 
REMARK  6 active torsions:
REMARK  status: ('A' for Active; 'I' for Inactive)
REMARK    1  A    between atoms: C_1  and  N_2
REMARK    2  A    between atoms: N_2  and  C_13
REMARK    3  A    between atoms: N_16  and  C_17
REMARK    4  A    between atoms: C_17  and  C_18
REMARK    5  A    between atoms: C_24  and  C_25
REMARK    6  A    between atoms: C_24  and  C_26
REMARK                            x       y       z     vdW  Elec       q    Type
REMARK                         _______ _______ _______ _____ _____    ______ ____
ROOT
ATOM      1  C   UNL     1       0.242  13.305  20.735  0.00  0.00    +0.000 C 
ATOM      2  C   UNL     1      -0.417  13.029  22.093  0.00  0.00    +0.000 C 
ATOM      3  C   UNL     1      -1.924  13.222  22.002  0.00  0.00    +0.000 C 
ATOM      4  N   UNL     1      -2.351  14.537  21.513  0.00  0.00    +0.000 NA
ATOM      5  C   UNL     1      -1.537  15.077  20.414  0.00  0.00    +0.000 C 
ATOM      6  C   UNL     1      -0.036  14.799  20.501  0.00  0.00    +0.000 C 
ENDROOT
BRANCH   1   8
ATOM      7  C   UNL     1      -0.362  13.084  18.292  0.00  0.00    +0.000 C 
ATOM      8  N   UNL     1      -0.227  12.424  19.598  0.00  0.00    +0.000 N 
ATOM      9  C   UNL     1       0.273  11.139  19.532  0.00  0.00    +0.000 A 
ATOM     10  N   UNL     1       0.959  10.627  18.525  0.00  0.00    +0.000 NA
ATOM     11  C   UNL     1       1.409   9.343  18.836  0.00  0.00    +0.000 A 
ATOM     12  C   UNL     1       2.201   8.487  18.030  0.00  0.00    +0.000 A 
ATOM     13  C   UNL     1       2.628   7.267  18.565  0.00  0.00    +0.000 A 
ATOM     14 CL   UNL     1       3.500   6.164  17.570  0.00  0.00    +0.000 Cl
ATOM     15  C   UNL     1       2.358   6.912  19.883  0.00  0.00    +0.000 A 
ATOM     16  C   UNL     1       1.542   7.718  20.672  0.00  0.00    +0.000 A 
ATOM     17  C   UNL     1       1.044   8.893  20.101  0.00  0.00    +0.000 A 
ATOM     18  S   UNL     1      -0.119   9.958  20.733  0.00  0.00    +0.000 S 
ENDBRANCH   1   8
BRANCH   4  19
ATOM     19  C   UNL     1      -3.743  14.428  21.025  0.00  0.00    +0.000 C 
BRANCH  19  20
ATOM     20  C   UNL     1      -4.768  14.789  22.047  0.00  0.00    +0.000 C 
ATOM     21  C   UNL     1      -4.621  15.744  22.997  0.00  0.00    +0.000 C 
ATOM     22  C   UNL     1      -5.652  15.904  24.092  0.00  0.00    +0.000 C 
ATOM     23  C   UNL     1      -6.786  14.883  23.870  0.00  0.00    +0.000 C 
ATOM     24  C   UNL     1      -7.268  14.955  22.383  0.00  0.00    +0.000 C 
ATOM     25  C   UNL     1      -6.050  14.000  22.102  0.00  0.00    +0.000 C 
ATOM     26  C   UNL     1      -6.336  13.390  23.536  0.00  0.00    +0.000 C 
ATOM     27  C   UNL     1      -7.466  12.344  23.571  0.00  0.00    +0.000 C 
ATOM     28  C   UNL     1      -5.132  12.804  24.286  0.00  0.00    +0.000 C 
ENDBRANCH  19  20
ENDBRANCH   4  19
TORSDOF 3
ENDMDL
MODEL 8
REMARK VINA RESULT:      -6.5      1.067      1.202
REMARK  Name = 
REMARK  6 active torsions:
REMARK  status: ('A' for Active; 'I' for Inactive)
REMARK    1  A    between atoms: C_1  and  N_2
REMARK    2  A    between atoms: N_2  and  C_13
REMARK    3  A    between atoms: N_16  and  C_17
REMARK    4  A    between atoms: C_17  and  C_18
REMARK    5  A    between atoms: C_24  and  C_25
REMARK    6  A    between atoms: C_24  and  C_26
REMARK                            x       y       z     vdW  Elec       q    Type
REMARK                         _______ _______ _______ _____ _____    ______ ____
ROOT
ATOM      1  C   UNL     1       0.672   9.308  18.765  0.00  0.00    +0.000 C 
ATOM      2  C   UNL     1       1.319  10.283  17.773  0.00  0.00    +0.000 C 
ATOM      3  C   UNL     1       2.032  11.405  18.517  0.00  0.00    +0.000 C 
ATOM      4  N   UNL     1       1.192  12.154  19.457  0.00  0.00    +0.000 NA
ATOM      5  C   UNL     1       0.246  11.331  20.226  0.00  0.00    +0.000 C 
ATOM      6  C   UNL     1      -0.392  10.168  19.467  0.00  0.00    +0.000 C 
ENDROOT
BRANCH   1   8
ATOM      7  C   UNL     1       1.205   8.613  21.135  0.00  0.00    +0.000 C 
ATOM      8  N   UNL     1       1.626   8.635  19.726  0.00  0.00    +0.000 N 
ATOM      9  C   UNL     1       2.253   7.478  19.307  0.00  0.00    +0.000 A 
ATOM     10  N   UNL     1       2.166   6.296  19.891  0.00  0.00    +0.000 NA
ATOM     11  C   UNL     1       2.830   5.325  19.140  0.00  0.00    +0.000 A 
ATOM     12  C   UNL     1       2.932   3.939  19.419  0.00  0.00    +0.000 A 
ATOM     13  C   UNL     1       3.566   3.112  18.487  0.00  0.00    +0.000 A 
ATOM     14 CL   UNL     1       3.797   1.444  18.852  0.00  0.00    +0.000 Cl
ATOM     15  C   UNL     1       4.029   3.602  17.270  0.00  0.00    +0.000 A 
ATOM     16  C   UNL     1       3.980   4.967  17.000  0.00  0.00    +0.000 A 
ATOM     17  C   UNL     1       3.425   5.801  17.976  0.00  0.00    +0.000 A 
ATOM     18  S   UNL     1       3.411   7.499  18.023  0.00  0.00    +0.000 S 
ENDBRANCH   1   8
BRANCH   4  19
ATOM     19  C   UNL     1       2.071  12.845  20.425  0.00  0.00    +0.000 C 
BRANCH  19  20
ATOM     20  C   UNL     1       2.375  14.259  20.056  0.00  0.00    +0.000 C 
ATOM     21  C   UNL     1       3.272  15.054  20.688  0.00  0.00    +0.000 C 
ATOM     22  C   UNL     1       3.372  16.524  20.344  0.00  0.00    +0.000 C 
ATOM     23  C   UNL     1       2.370  16.848  19.218  0.00  0.00    +0.000 C 
ATOM     24  C   UNL     1       2.531  15.804  18.062  0.00  0.00    +0.000 C 
ATOM     25  C   UNL     1       1.589  14.907  18.947  0.00  0.00    +0.000 C 
ATOM     26  C   UNL     1       0.897  16.261  19.392  0.00  0.00    +0.000 C 
ATOM     27  C   UNL     1      -0.144  16.804  18.397  0.00  0.00    +0.000 C 
ATOM     28  C   UNL     1       0.264  16.281  20.791  0.00  0.00    +0.000 C 
ENDBRANCH  19  20
ENDBRANCH   4  19
TORSDOF 3
ENDMDL
MODEL 9
REMARK VINA RESULT:      -6.4      2.771      3.717
REMARK  Name = 
REMARK  6 active torsions:
REMARK  status: ('A' for Active; 'I' for Inactive)
REMARK    1  A    between atoms: C_1  and  N_2
REMARK    2  A    between atoms: N_2  and  C_13
REMARK    3  A    between atoms: N_16  and  C_17
REMARK    4  A    between atoms: C_17  and  C_18
REMARK    5  A    between atoms: C_24  and  C_25
REMARK    6  A    between atoms: C_24  and  C_26
REMARK                            x       y       z     vdW  Elec       q    Type
REMARK                         _______ _______ _______ _____ _____    ______ ____
ROOT
ATOM      1  C   UNL     1       0.977   9.425  18.459  0.00  0.00    +0.000 C 
ATOM      2  C   UNL     1       1.511  10.843  18.221  0.00  0.00    +0.000 C 
ATOM      3  C   UNL     1       1.466  11.652  19.510  0.00  0.00    +0.000 C 
ATOM      4  N   UNL     1       0.146  11.731  20.145  0.00  0.00    +0.000 NA
ATOM      5  C   UNL     1      -0.628  10.481  20.108  0.00  0.00    +0.000 C 
ATOM      6  C   UNL     1      -0.498   9.656  18.827  0.00  0.00    +0.000 C 
ENDROOT
BRANCH   1   8
ATOM      7  C   UNL     1       1.095   8.514  20.813  0.00  0.00    +0.000 C 
ATOM      8  N   UNL     1       1.731   8.615  19.491  0.00  0.00    +0.000 N 
ATOM      9  C   UNL     1       2.349   7.454  19.072  0.00  0.00    +0.000 A 
ATOM     10  N   UNL     1       2.105   6.239  19.531  0.00  0.00    +0.000 NA
ATOM     11  C   UNL     1       2.822   5.285  18.807  0.00  0.00    +0.000 A 
ATOM     12  C   UNL     1       2.801   3.878  18.977  0.00  0.00    +0.000 A 
ATOM     13  C   UNL     1       3.525   3.083  18.082  0.00  0.00    +0.000 A 
ATOM     14 CL   UNL     1       3.602   1.380  18.331  0.00  0.00    +0.000 Cl
ATOM     15  C   UNL     1       4.199   3.632  16.996  0.00  0.00    +0.000 A 
ATOM     16  C   UNL     1       4.269   5.015  16.842  0.00  0.00    +0.000 A 
ATOM     17  C   UNL     1       3.618   5.807  17.792  0.00  0.00    +0.000 A 
ATOM     18  S   UNL     1       3.692   7.493  17.984  0.00  0.00    +0.000 S 
ENDBRANCH   1   8
BRANCH   4  19
ATOM     19  C   UNL     1       0.329  12.100  21.565  0.00  0.00    +0.000 C 
BRANCH  19  20
ATOM     20  C   UNL     1      -0.933  12.512  22.246  0.00  0.00    +0.000 C 
ATOM     21  C   UNL     1      -1.705  11.704  23.012  0.00  0.00    +0.000 C 
ATOM     22  C   UNL     1      -3.055  12.175  23.507  0.00  0.00    +0.000 C 
ATOM     23  C   UNL     1      -3.290  13.623  23.030  0.00  0.00    +0.000 C 
ATOM     24  C   UNL     1      -2.033  14.492  23.367  0.00  0.00    +0.000 C 
ATOM     25  C   UNL     1      -1.458  13.906  22.025  0.00  0.00    +0.000 C 
ATOM     26  C   UNL     1      -2.953  13.926  21.501  0.00  0.00    +0.000 C 
ATOM     27  C   UNL     1      -3.431  15.296  20.987  0.00  0.00    +0.000 C 
ATOM     28  C   UNL     1      -3.326  12.873  20.448  0.00  0.00    +0.000 C 
ENDBRANCH  19  20
ENDBRANCH   4  19
TORSDOF 3
ENDMDL
