MODEL 1
REMARK VINA RESULT:      -7.8      0.000      0.000
REMARK  Name = 
REMARK  3 active torsions:
REMARK  status: ('A' for Active; 'I' for Inactive)
REMARK    1  A    between atoms: N_3  and  C_4
REMARK    2  A    between atoms: N_11  and  C_12
REMARK    3  A    between atoms: C_18  and  N_19
REMARK                            x       y       z     vdW  Elec       q    Type
REMARK                         _______ _______ _______ _____ _____    ______ ____
ROOT
ATOM      1  O   UNL     1       2.093   7.692  18.916  0.00  0.00    +0.000 OA
ATOM      2  C   UNL     1       2.181   7.110  19.989  0.00  0.00    +0.000 C 
ATOM      3  N   UNL     1       1.627   7.548  21.178  0.00  0.00    +0.000 N 
ATOM      4  N   UNL     1       2.877   5.924  20.159  0.00  0.00    +0.000 N 
ATOM      5  H   UNL     1       1.937   7.081  22.018  0.00  0.00    +0.000 HD
ATOM      6  H   UNL     1       2.584   5.356  20.951  0.00  0.00    +0.000 HD
ENDROOT
BRANCH   3   7
ATOM      7  C   UNL     1       0.910   8.755  21.353  0.00  0.00    +0.000 A 
ATOM      8  C   UNL     1       0.470   9.216  22.598  0.00  0.00    +0.000 A 
ATOM      9  C   UNL     1      -0.309  10.372  22.701  0.00  0.00    +0.000 A 
ATOM     10  C   UNL     1      -0.649  11.085  21.557  0.00  0.00    +0.000 A 
ATOM     11  C   UNL     1      -0.185  10.650  20.318  0.00  0.00    +0.000 A 
ATOM     12 BR   UNL     1      -0.665  11.605  18.757  0.00  0.00    +0.000 Br
ATOM     13  C   UNL     1       0.605   9.503  20.211  0.00  0.00    +0.000 A 
ENDBRANCH   3   7
BRANCH   4  14
ATOM     14  C   UNL     1       3.687   5.280  19.183  0.00  0.00    +0.000 A 
ATOM     15  C   UNL     1       5.073   5.511  19.131  0.00  0.00    +0.000 A 
ATOM     16  C   UNL     1       5.878   4.903  18.162  0.00  0.00    +0.000 A 
ATOM     17 CL   UNL     1       7.568   5.224  18.128  0.00  0.00    +0.000 Cl
ATOM     18  C   UNL     1       5.324   4.035  17.229  0.00  0.00    +0.000 A 
ATOM     19  C   UNL     1       3.957   3.759  17.274  0.00  0.00    +0.000 A 
ATOM     20  C   UNL     1       3.140   4.372  18.247  0.00  0.00    +0.000 A 
BRANCH  20  21
ATOM     21  N   UNL     1       1.704   4.034  18.239  0.00  0.00    +0.000 N 
ATOM     22  O   UNL     1       1.214   3.534  19.264  0.00  0.00    +0.000 OA
ATOM     23  O   UNL     1       1.063   4.262  17.203  0.00  0.00    +0.000 OA
ENDBRANCH  20  21
ENDBRANCH   4  14
TORSDOF 3
ENDMDL
MODEL 2
REMARK VINA RESULT:      -7.7      4.725      7.913
REMARK  Name = 
REMARK  3 active torsions:
REMARK  status: ('A' for Active; 'I' for Inactive)
REMARK    1  A    between atoms: N_3  and  C_4
REMARK    2  A    between atoms: N_11  and  C_12
REMARK    3  A    between atoms: C_18  and  N_19
REMARK                            x       y       z     vdW  Elec       q    Type
REMARK                         _______ _______ _______ _____ _____    ______ ____
ROOT
ATOM      1  O   UNL     1       4.389   5.254  16.245  0.00  0.00    +0.000 OA
ATOM      2  C   UNL     1       5.297   4.686  16.837  0.00  0.00    +0.000 C 
ATOM      3  N   UNL     1       6.469   4.239  16.253  0.00  0.00    +0.000 N 
ATOM      4  N   UNL     1       5.262   4.395  18.191  0.00  0.00    +0.000 N 
ATOM      5  H   UNL     1       7.042   3.620  16.809  0.00  0.00    +0.000 HD
ATOM      6  H   UNL     1       6.169   4.278  18.637  0.00  0.00    +0.000 HD
ENDROOT
BRANCH   3   7
ATOM      7  C   UNL     1       6.785   4.326  14.876  0.00  0.00    +0.000 A 
ATOM      8  C   UNL     1       7.714   5.231  14.355  0.00  0.00    +0.000 A 
ATOM      9  C   UNL     1       7.923   5.331  12.976  0.00  0.00    +0.000 A 
ATOM     10  C   UNL     1       7.207   4.519  12.104  0.00  0.00    +0.000 A 
ATOM     11  C   UNL     1       6.304   3.591  12.620  0.00  0.00    +0.000 A 
ATOM     12 BR   UNL     1       5.312   2.500  11.436  0.00  0.00    +0.000 Br
ATOM     13  C   UNL     1       6.102   3.478  13.998  0.00  0.00    +0.000 A 
ENDBRANCH   3   7
BRANCH   4  14
ATOM     14  C   UNL     1       4.149   4.580  19.058  0.00  0.00    +0.000 A 
ATOM     15  C   UNL     1       3.575   5.852  19.231  0.00  0.00    +0.000 A 
ATOM     16  C   UNL     1       2.496   6.053  20.098  0.00  0.00    +0.000 A 
ATOM     17 CL   UNL     1       1.834   7.630  20.289  0.00  0.00    +0.000 Cl
ATOM     18  C   UNL     1       1.950   4.988  20.803  0.00  0.00    +0.000 A 
ATOM     19  C   UNL     1       2.475   3.707  20.628  0.00  0.00    +0.000 A 
ATOM     20  C   UNL     1       3.565   3.499  19.757  0.00  0.00    +0.000 A 
BRANCH  20  21
ATOM     21  N   UNL     1       4.069   2.120  19.618  0.00  0.00    +0.000 N 
ATOM     22  O   UNL     1       3.498   1.366  18.814  0.00  0.00    +0.000 OA
ATOM     23  O   UNL     1       5.033   1.784  20.320  0.00  0.00    +0.000 OA
ENDBRANCH  20  21
ENDBRANCH   4  14
TORSDOF 3
ENDMDL
MODEL 3
REMARK VINA RESULT:      -7.7      5.793      6.939
REMARK  Name = 
REMARK  3 active torsions:
REMARK  status: ('A' for Active; 'I' for Inactive)
REMARK    1  A    between atoms: N_3  and  C_4
REMARK    2  A    between atoms: N_11  and  C_12
REMARK    3  A    between atoms: C_18  and  N_19
REMARK                            x       y       z     vdW  Elec       q    Type
REMARK                         _______ _______ _______ _____ _____    ______ ____
ROOT
ATOM      1  O   UNL     1       7.053   8.662  17.295  0.00  0.00    +0.000 OA
ATOM      2  C   UNL     1       7.833   8.017  17.983  0.00  0.00    +0.000 C 
ATOM      3  N   UNL     1       8.838   8.559  18.764  0.00  0.00    +0.000 N 
ATOM      4  N   UNL     1       7.824   6.633  18.055  0.00  0.00    +0.000 N 
ATOM      5  H   UNL     1       9.526   7.913  19.123  0.00  0.00    +0.000 HD
ATOM      6  H   UNL     1       8.232   6.237  18.898  0.00  0.00    +0.000 HD
ENDROOT
BRANCH   3   7
ATOM      7  C   UNL     1       9.152   9.935  18.859  0.00  0.00    +0.000 A 
ATOM      8  C   UNL     1       9.595  10.701  17.777  0.00  0.00    +0.000 A 
ATOM      9  C   UNL     1       9.973  12.036  17.949  0.00  0.00    +0.000 A 
ATOM     10  C   UNL     1       9.904  12.621  19.208  0.00  0.00    +0.000 A 
ATOM     11  C   UNL     1       9.431  11.873  20.283  0.00  0.00    +0.000 A 
ATOM     12 BR   UNL     1       9.357  12.658  22.003  0.00  0.00    +0.000 Br
ATOM     13  C   UNL     1       9.040  10.542  20.114  0.00  0.00    +0.000 A 
ENDBRANCH   3   7
BRANCH   4  14
ATOM     14  C   UNL     1       7.024   5.759  17.267  0.00  0.00    +0.000 A 
ATOM     15  C   UNL     1       7.305   5.557  15.904  0.00  0.00    +0.000 A 
ATOM     16  C   UNL     1       6.514   4.719  15.113  0.00  0.00    +0.000 A 
ATOM     17 CL   UNL     1       6.887   4.513  13.446  0.00  0.00    +0.000 Cl
ATOM     18  C   UNL     1       5.430   4.046  15.663  0.00  0.00    +0.000 A 
ATOM     19  C   UNL     1       5.144   4.198  17.020  0.00  0.00    +0.000 A 
ATOM     20  C   UNL     1       5.938   5.045  17.823  0.00  0.00    +0.000 A 
BRANCH  20  21
ATOM     21  N   UNL     1       5.581   5.158  19.249  0.00  0.00    +0.000 N 
ATOM     22  O   UNL     1       4.410   5.453  19.539  0.00  0.00    +0.000 OA
ATOM     23  O   UNL     1       6.473   4.961  20.086  0.00  0.00    +0.000 OA
ENDBRANCH  20  21
ENDBRANCH   4  14
TORSDOF 3
ENDMDL
MODEL 4
REMARK VINA RESULT:      -7.6      4.234      6.076
REMARK  Name = 
REMARK  3 active torsions:
REMARK  status: ('A' for Active; 'I' for Inactive)
REMARK    1  A    between atoms: N_3  and  C_4
REMARK    2  A    between atoms: N_11  and  C_12
REMARK    3  A    between atoms: C_18  and  N_19
REMARK                            x       y       z     vdW  Elec       q    Type
REMARK                         _______ _______ _______ _____ _____    ______ ____
ROOT
ATOM      1  O   UNL     1       3.600   4.406  16.573  0.00  0.00    +0.000 OA
ATOM      2  C   UNL     1       4.420   3.669  17.104  0.00  0.00    +0.000 C 
ATOM      3  N   UNL     1       4.311   3.151  18.382  0.00  0.00    +0.000 N 
ATOM      4  N   UNL     1       5.594   3.264  16.491  0.00  0.00    +0.000 N 
ATOM      5  H   UNL     1       5.141   2.721  18.766  0.00  0.00    +0.000 HD
ATOM      6  H   UNL     1       5.995   2.398  16.842  0.00  0.00    +0.000 HD
ENDROOT
BRANCH   3   7
ATOM      7  C   UNL     1       3.263   3.425  19.292  0.00  0.00    +0.000 A 
ATOM      8  C   UNL     1       2.445   2.435  19.845  0.00  0.00    +0.000 A 
ATOM      9  C   UNL     1       1.369   2.772  20.673  0.00  0.00    +0.000 A 
ATOM     10  C   UNL     1       1.106   4.106  20.960  0.00  0.00    +0.000 A 
ATOM     11  C   UNL     1       1.938   5.095  20.439  0.00  0.00    +0.000 A 
ATOM     12 BR   UNL     1       1.568   6.913  20.810  0.00  0.00    +0.000 Br
ATOM     13  C   UNL     1       3.022   4.762  19.623  0.00  0.00    +0.000 A 
ENDBRANCH   3   7
BRANCH   4  14
ATOM     14  C   UNL     1       6.089   3.729  15.240  0.00  0.00    +0.000 A 
ATOM     15  C   UNL     1       5.645   3.157  14.033  0.00  0.00    +0.000 A 
ATOM     16  C   UNL     1       6.140   3.588  12.798  0.00  0.00    +0.000 A 
ATOM     17 CL   UNL     1       5.579   2.851  11.348  0.00  0.00    +0.000 Cl
ATOM     18  C   UNL     1       7.077   4.611  12.731  0.00  0.00    +0.000 A 
ATOM     19  C   UNL     1       7.512   5.222  13.908  0.00  0.00    +0.000 A 
ATOM     20  C   UNL     1       7.019   4.790  15.158  0.00  0.00    +0.000 A 
BRANCH  20  21
ATOM     21  N   UNL     1       7.520   5.480  16.360  0.00  0.00    +0.000 N 
ATOM     22  O   UNL     1       7.586   6.720  16.340  0.00  0.00    +0.000 OA
ATOM     23  O   UNL     1       7.859   4.783  17.328  0.00  0.00    +0.000 OA
ENDBRANCH  20  21
ENDBRANCH   4  14
TORSDOF 3
ENDMDL
MODEL 5
REMARK VINA RESULT:      -7.5      1.140      1.709
REMARK  Name = 
REMARK  3 active torsions:
REMARK  status: ('A' for Active; 'I' for Inactive)
REMARK    1  A    between atoms: N_3  and  C_4
REMARK    2  A    between atoms: N_11  and  C_12
REMARK    3  A    between atoms: C_18  and  N_19
REMARK                            x       y       z     vdW  Elec       q    Type
REMARK                         _______ _______ _______ _____ _____    ______ ____
ROOT
ATOM      1  O   UNL     1       2.084   7.567  18.267  0.00  0.00    +0.000 OA
ATOM      2  C   UNL     1       2.262   7.269  19.441  0.00  0.00    +0.000 C 
ATOM      3  N   UNL     1       1.774   7.979  20.523  0.00  0.00    +0.000 N 
ATOM      4  N   UNL     1       3.007   6.174  19.847  0.00  0.00    +0.000 N 
ATOM      5  H   UNL     1       2.155   7.739  21.428  0.00  0.00    +0.000 HD
ATOM      6  H   UNL     1       2.786   5.814  20.772  0.00  0.00    +0.000 HD
ENDROOT
BRANCH   3   7
ATOM      7  C   UNL     1       1.032   9.181  20.449  0.00  0.00    +0.000 A 
ATOM      8  C   UNL     1       1.072  10.046  19.351  0.00  0.00    +0.000 A 
ATOM      9  C   UNL     1       0.384  11.262  19.369  0.00  0.00    +0.000 A 
ATOM     10  C   UNL     1      -0.360  11.623  20.487  0.00  0.00    +0.000 A 
ATOM     11  C   UNL     1      -0.432  10.750  21.570  0.00  0.00    +0.000 A 
ATOM     12 BR   UNL     1      -1.425  11.247  23.102  0.00  0.00    +0.000 Br
ATOM     13  C   UNL     1       0.243   9.527  21.551  0.00  0.00    +0.000 A 
ENDBRANCH   3   7
BRANCH   4  14
ATOM     14  C   UNL     1       3.770   5.321  19.001  0.00  0.00    +0.000 A 
ATOM     15  C   UNL     1       5.167   5.456  18.914  0.00  0.00    +0.000 A 
ATOM     16  C   UNL     1       5.927   4.641  18.070  0.00  0.00    +0.000 A 
ATOM     17 CL   UNL     1       7.633   4.851  17.985  0.00  0.00    +0.000 Cl
ATOM     18  C   UNL     1       5.317   3.656  17.303  0.00  0.00    +0.000 A 
ATOM     19  C   UNL     1       3.937   3.473  17.392  0.00  0.00    +0.000 A 
ATOM     20  C   UNL     1       3.164   4.295  18.240  0.00  0.00    +0.000 A 
BRANCH  20  21
ATOM     21  N   UNL     1       1.712   4.046  18.287  0.00  0.00    +0.000 N 
ATOM     22  O   UNL     1       1.069   4.124  17.227  0.00  0.00    +0.000 OA
ATOM     23  O   UNL     1       1.206   3.780  19.386  0.00  0.00    +0.000 OA
ENDBRANCH  20  21
ENDBRANCH   4  14
TORSDOF 3
ENDMDL
MODEL 6
REMARK VINA RESULT:      -7.5      2.907      3.735
REMARK  Name = 
REMARK  3 active torsions:
REMARK  status: ('A' for Active; 'I' for Inactive)
REMARK    1  A    between atoms: N_3  and  C_4
REMARK    2  A    between atoms: N_11  and  C_12
REMARK    3  A    between atoms: C_18  and  N_19
REMARK                            x       y       z     vdW  Elec       q    Type
REMARK                         _______ _______ _______ _____ _____    ______ ____
ROOT
ATOM      1  O   UNL     1       3.526   7.578  17.222  0.00  0.00    +0.000 OA
ATOM      2  C   UNL     1       3.419   6.753  18.120  0.00  0.00    +0.000 C 
ATOM      3  N   UNL     1       2.626   6.902  19.244  0.00  0.00    +0.000 N 
ATOM      4  N   UNL     1       4.107   5.551  18.139  0.00  0.00    +0.000 N 
ATOM      5  H   UNL     1       2.779   6.241  19.993  0.00  0.00    +0.000 HD
ATOM      6  H   UNL     1       3.682   4.814  18.697  0.00  0.00    +0.000 HD
ENDROOT
BRANCH   3   7
ATOM      7  C   UNL     1       1.848   8.042  19.555  0.00  0.00    +0.000 A 
ATOM      8  C   UNL     1       1.595   9.073  18.646  0.00  0.00    +0.000 A 
ATOM      9  C   UNL     1       0.892  10.218  19.036  0.00  0.00    +0.000 A 
ATOM     10  C   UNL     1       0.428  10.337  20.341  0.00  0.00    +0.000 A 
ATOM     11  C   UNL     1       0.648   9.297  21.242  0.00  0.00    +0.000 A 
ATOM     12 BR   UNL     1       0.039   9.466  23.025  0.00  0.00    +0.000 Br
ATOM     13  C   UNL     1       1.339   8.147  20.854  0.00  0.00    +0.000 A 
ENDBRANCH   3   7
BRANCH   4  14
ATOM     14  C   UNL     1       5.114   5.148  17.219  0.00  0.00    +0.000 A 
ATOM     15  C   UNL     1       4.779   4.754  15.911  0.00  0.00    +0.000 A 
ATOM     16  C   UNL     1       5.757   4.334  15.004  0.00  0.00    +0.000 A 
ATOM     17 CL   UNL     1       5.300   3.847  13.418  0.00  0.00    +0.000 Cl
ATOM     18  C   UNL     1       7.096   4.311  15.370  0.00  0.00    +0.000 A 
ATOM     19  C   UNL     1       7.466   4.728  16.650  0.00  0.00    +0.000 A 
ATOM     20  C   UNL     1       6.484   5.151  17.570  0.00  0.00    +0.000 A 
BRANCH  20  21
ATOM     21  N   UNL     1       6.944   5.580  18.904  0.00  0.00    +0.000 N 
ATOM     22  O   UNL     1       6.347   5.140  19.899  0.00  0.00    +0.000 OA
ATOM     23  O   UNL     1       7.900   6.366  18.960  0.00  0.00    +0.000 OA
ENDBRANCH  20  21
ENDBRANCH   4  14
TORSDOF 3
ENDMDL
MODEL 7
REMARK VINA RESULT:      -7.5      5.965      7.292
REMARK  Name = 
REMARK  3 active torsions:
REMARK  status: ('A' for Active; 'I' for Inactive)
REMARK    1  A    between atoms: N_3  and  C_4
REMARK    2  A    between atoms: N_11  and  C_12
REMARK    3  A    between atoms: C_18  and  N_19
REMARK                            x       y       z     vdW  Elec       q    Type
REMARK                         _______ _______ _______ _____ _____    ______ ____
ROOT
ATOM      1  O   UNL     1       7.775   7.217  18.654  0.00  0.00    +0.000 OA
ATOM      2  C   UNL     1       7.348   7.915  17.744  0.00  0.00    +0.000 C 
ATOM      3  N   UNL     1       7.793   9.190  17.445  0.00  0.00    +0.000 N 
ATOM      4  N   UNL     1       6.331   7.519  16.890  0.00  0.00    +0.000 N 
ATOM      5  H   UNL     1       7.228   9.724  16.800  0.00  0.00    +0.000 HD
ATOM      6  H   UNL     1       6.315   7.982  15.985  0.00  0.00    +0.000 HD
ENDROOT
BRANCH   3   7
ATOM      7  C   UNL     1       8.778   9.905  18.166  0.00  0.00    +0.000 A 
ATOM      8  C   UNL     1       8.971   9.773  19.544  0.00  0.00    +0.000 A 
ATOM      9  C   UNL     1       9.902  10.570  20.218  0.00  0.00    +0.000 A 
ATOM     10  C   UNL     1      10.655  11.504  19.516  0.00  0.00    +0.000 A 
ATOM     11  C   UNL     1      10.491  11.616  18.137  0.00  0.00    +0.000 A 
ATOM     12 BR   UNL     1      11.498  12.901  17.181  0.00  0.00    +0.000 Br
ATOM     13  C   UNL     1       9.572  10.813  17.457  0.00  0.00    +0.000 A 
ENDBRANCH   3   7
BRANCH   4  14
ATOM     14  C   UNL     1       5.551   6.335  17.009  0.00  0.00    +0.000 A 
ATOM     15  C   UNL     1       4.222   6.391  17.468  0.00  0.00    +0.000 A 
ATOM     16  C   UNL     1       3.452   5.233  17.611  0.00  0.00    +0.000 A 
ATOM     17 CL   UNL     1       1.835   5.347  18.189  0.00  0.00    +0.000 Cl
ATOM     18  C   UNL     1       3.979   3.990  17.286  0.00  0.00    +0.000 A 
ATOM     19  C   UNL     1       5.283   3.903  16.797  0.00  0.00    +0.000 A 
ATOM     20  C   UNL     1       6.066   5.068  16.652  0.00  0.00    +0.000 A 
BRANCH  20  21
ATOM     21  N   UNL     1       7.435   4.905  16.128  0.00  0.00    +0.000 N 
ATOM     22  O   UNL     1       8.238   4.226  16.788  0.00  0.00    +0.000 OA
ATOM     23  O   UNL     1       7.714   5.462  15.057  0.00  0.00    +0.000 OA
ENDBRANCH  20  21
ENDBRANCH   4  14
TORSDOF 3
ENDMDL
MODEL 8
REMARK VINA RESULT:      -7.5      2.067      2.273
REMARK  Name = 
REMARK  3 active torsions:
REMARK  status: ('A' for Active; 'I' for Inactive)
REMARK    1  A    between atoms: N_3  and  C_4
REMARK    2  A    between atoms: N_11  and  C_12
REMARK    3  A    between atoms: C_18  and  N_19
REMARK                            x       y       z     vdW  Elec       q    Type
REMARK                         _______ _______ _______ _____ _____    ______ ____
ROOT
ATOM      1  O   UNL     1       2.189   8.632  17.073  0.00  0.00    +0.000 OA
ATOM      2  C   UNL     1       2.053   8.339  18.254  0.00  0.00    +0.000 C 
ATOM      3  N   UNL     1       1.356   9.090  19.183  0.00  0.00    +0.000 N 
ATOM      4  N   UNL     1       2.607   7.206  18.828  0.00  0.00    +0.000 N 
ATOM      5  H   UNL     1       1.486   8.838  20.153  0.00  0.00    +0.000 HD
ATOM      6  H   UNL     1       2.143   6.871  19.669  0.00  0.00    +0.000 HD
ENDROOT
BRANCH   3   7
ATOM      7  C   UNL     1       0.729  10.332  18.931  0.00  0.00    +0.000 A 
ATOM      8  C   UNL     1       1.399  11.558  18.982  0.00  0.00    +0.000 A 
ATOM      9  C   UNL     1       0.708  12.761  18.809  0.00  0.00    +0.000 A 
ATOM     10  C   UNL     1      -0.662  12.748  18.574  0.00  0.00    +0.000 A 
ATOM     11  C   UNL     1      -1.329  11.528  18.488  0.00  0.00    +0.000 A 
ATOM     12 BR   UNL     1      -3.197  11.507  18.191  0.00  0.00    +0.000 Br
ATOM     13  C   UNL     1      -0.641  10.323  18.647  0.00  0.00    +0.000 A 
ENDBRANCH   3   7
BRANCH   4  14
ATOM     14  C   UNL     1       3.503   6.300  18.196  0.00  0.00    +0.000 A 
ATOM     15  C   UNL     1       4.821   6.685  17.891  0.00  0.00    +0.000 A 
ATOM     16  C   UNL     1       5.706   5.812  17.249  0.00  0.00    +0.000 A 
ATOM     17 CL   UNL     1       7.305   6.331  16.883  0.00  0.00    +0.000 Cl
ATOM     18  C   UNL     1       5.305   4.527  16.909  0.00  0.00    +0.000 A 
ATOM     19  C   UNL     1       4.014   4.102  17.227  0.00  0.00    +0.000 A 
ATOM     20  C   UNL     1       3.117   4.979  17.872  0.00  0.00    +0.000 A 
BRANCH  20  21
ATOM     21  N   UNL     1       1.770   4.465  18.181  0.00  0.00    +0.000 N 
ATOM     22  O   UNL     1       1.426   4.399  19.372  0.00  0.00    +0.000 OA
ATOM     23  O   UNL     1       1.053   4.117  17.232  0.00  0.00    +0.000 OA
ENDBRANCH  20  21
ENDBRANCH   4  14
TORSDOF 3
ENDMDL
MODEL 9
REMARK VINA RESULT:      -7.4      3.190      3.766
REMARK  Name = 
REMARK  3 active torsions:
REMARK  status: ('A' for Active; 'I' for Inactive)
REMARK    1  A    between atoms: N_3  and  C_4
REMARK    2  A    between atoms: N_11  and  C_12
REMARK    3  A    between atoms: C_18  and  N_19
REMARK                            x       y       z     vdW  Elec       q    Type
REMARK                         _______ _______ _______ _____ _____    ______ ____
ROOT
ATOM      1  O   UNL     1       1.980   7.589  19.683  0.00  0.00    +0.000 OA
ATOM      2  C   UNL     1       2.372   7.689  18.528  0.00  0.00    +0.000 C 
ATOM      3  N   UNL     1       2.257   8.824  17.746  0.00  0.00    +0.000 N 
ATOM      4  N   UNL     1       2.976   6.653  17.834  0.00  0.00    +0.000 N 
ATOM      5  H   UNL     1       2.442   8.711  16.759  0.00  0.00    +0.000 HD
ATOM      6  H   UNL     1       3.577   6.935  17.063  0.00  0.00    +0.000 HD
ENDROOT
BRANCH   3   7
ATOM      7  C   UNL     1       1.632  10.031  18.138  0.00  0.00    +0.000 A 
ATOM      8  C   UNL     1       0.279  10.124  18.476  0.00  0.00    +0.000 A 
ATOM      9  C   UNL     1      -0.305  11.359  18.772  0.00  0.00    +0.000 A 
ATOM     10  C   UNL     1       0.465  12.516  18.740  0.00  0.00    +0.000 A 
ATOM     11  C   UNL     1       1.822  12.426  18.438  0.00  0.00    +0.000 A 
ATOM     12 BR   UNL     1       2.868  14.001  18.372  0.00  0.00    +0.000 Br
ATOM     13  C   UNL     1       2.412  11.192  18.154  0.00  0.00    +0.000 A 
ENDBRANCH   3   7
BRANCH   4  14
ATOM     14  C   UNL     1       3.114   5.311  18.286  0.00  0.00    +0.000 A 
ATOM     15  C   UNL     1       2.010   4.440  18.305  0.00  0.00    +0.000 A 
ATOM     16  C   UNL     1       2.126   3.126  18.768  0.00  0.00    +0.000 A 
ATOM     17 CL   UNL     1       0.745   2.099  18.785  0.00  0.00    +0.000 Cl
ATOM     18  C   UNL     1       3.350   2.639  19.210  0.00  0.00    +0.000 A 
ATOM     19  C   UNL     1       4.472   3.467  19.173  0.00  0.00    +0.000 A 
ATOM     20  C   UNL     1       4.361   4.795  18.709  0.00  0.00    +0.000 A 
BRANCH  20  21
ATOM     21  N   UNL     1       5.586   5.615  18.696  0.00  0.00    +0.000 N 
ATOM     22  O   UNL     1       6.365   5.520  19.658  0.00  0.00    +0.000 OA
ATOM     23  O   UNL     1       5.771   6.363  17.726  0.00  0.00    +0.000 OA
ENDBRANCH  20  21
ENDBRANCH   4  14
TORSDOF 3
ENDMDL
