MODEL 1
REMARK VINA RESULT:      -9.8      0.000      0.000
REMARK  Name = 
REMARK  6 active torsions:
REMARK  status: ('A' for Active; 'I' for Inactive)
REMARK    1  A    between atoms: C_1  and  N_2
REMARK    2  A    between atoms: N_2  and  C_3
REMARK    3  A    between atoms: C_8  and  C_10
REMARK    4  A    between atoms: C_13  and  N_14
REMARK    5  A    between atoms: C_15  and  C_17
REMARK    6  A    between atoms: C_22  and  C_23
REMARK                            x       y       z     vdW  Elec       q    Type
REMARK                         _______ _______ _______ _____ _____    ______ ____
ROOT
ATOM      1  C   UNL     1       6.043   5.551  17.412  0.00  0.00    +0.000 A 
ATOM      2  C   UNL     1       6.028   6.832  16.871  0.00  0.00    +0.000 A 
ATOM      3  C   UNL     1       6.953   7.793  17.272  0.00  0.00    +0.000 A 
ATOM      4  C   UNL     1       7.856   7.544  18.302  0.00  0.00    +0.000 A 
ATOM      5  C   UNL     1       7.799   6.299  18.938  0.00  0.00    +0.000 A 
ATOM      6  C   UNL     1       6.899   5.308  18.496  0.00  0.00    +0.000 A 
ENDROOT
BRANCH   1  12
ATOM      7  C   UNL     1       3.272   3.147  20.075  0.00  0.00    +0.000 C 
ATOM      8  C   UNL     1       2.517   2.113  19.211  0.00  0.00    +0.000 C 
ATOM      9  C   UNL     1       3.079   1.875  17.805  0.00  0.00    +0.000 C 
ATOM     10  C   UNL     1       3.070   3.108  16.908  0.00  0.00    +0.000 C 
ATOM     11  N   UNL     1       3.894   4.207  17.417  0.00  0.00    +0.000 N 
ATOM     12  C   UNL     1       5.180   4.436  16.894  0.00  0.00    +0.000 C 
ATOM     13  O   UNL     1       5.659   3.724  16.008  0.00  0.00    +0.000 OA
ATOM     14  C   UNL     1       3.226   5.048  18.336  0.00  0.00    +0.000 A 
ATOM     15  C   UNL     1       2.892   6.356  17.957  0.00  0.00    +0.000 A 
ATOM     16  C   UNL     1       2.256   7.202  18.863  0.00  0.00    +0.000 A 
ATOM     17  C   UNL     1       1.969   6.751  20.148  0.00  0.00    +0.000 A 
ATOM     18  C   UNL     1       2.298   5.447  20.528  0.00  0.00    +0.000 A 
ATOM     19  C   UNL     1       2.914   4.564  19.624  0.00  0.00    +0.000 A 
BRANCH   7  21
ATOM     20  C   UNL     1       5.124   1.675  20.726  0.00  0.00    +0.000 C 
ATOM     21  N   UNL     1       4.730   2.951  20.147  0.00  0.00    +0.000 NA
ATOM     22  H   UNL     1       5.113   3.015  19.205  0.00  0.00    +0.000 HD
ENDBRANCH   7  21
ENDBRANCH   1  12
BRANCH   4  23
ATOM     23  N   UNL     1       8.829   8.491  18.709  0.00  0.00    +0.000 N 
ATOM     24  C   UNL     1       8.760   9.859  18.476  0.00  0.00    +0.000 C 
ATOM     25  O   UNL     1       7.808  10.451  17.978  0.00  0.00    +0.000 OA
ATOM     26  H   UNL     1       9.615   8.136  19.236  0.00  0.00    +0.000 HD
BRANCH  24  27
ATOM     27  C   UNL     1       9.946  10.678  18.861  0.00  0.00    +0.000 A 
ATOM     28  C   UNL     1      10.891  11.025  17.878  0.00  0.00    +0.000 A 
ATOM     29  C   UNL     1      11.941  11.890  18.190  0.00  0.00    +0.000 A 
ATOM     30  C   UNL     1      12.049  12.427  19.469  0.00  0.00    +0.000 A 
ATOM     31  C   UNL     1      11.115  12.095  20.448  0.00  0.00    +0.000 A 
ATOM     32  C   UNL     1      10.059  11.214  20.165  0.00  0.00    +0.000 A 
ATOM     33  C   UNL     1       9.077  10.894  21.265  0.00  0.00    +0.000 C 
ENDBRANCH  24  27
ENDBRANCH   4  23
TORSDOF 4
ENDMDL
MODEL 2
REMARK VINA RESULT:      -9.0      0.516      1.569
REMARK  Name = 
REMARK  6 active torsions:
REMARK  status: ('A' for Active; 'I' for Inactive)
REMARK    1  A    between atoms: C_1  and  N_2
REMARK    2  A    between atoms: N_2  and  C_3
REMARK    3  A    between atoms: C_8  and  C_10
REMARK    4  A    between atoms: C_13  and  N_14
REMARK    5  A    between atoms: C_15  and  C_17
REMARK    6  A    between atoms: C_22  and  C_23
REMARK                            x       y       z     vdW  Elec       q    Type
REMARK                         _______ _______ _______ _____ _____    ______ ____
ROOT
ATOM      1  C   UNL     1       6.483   5.380  17.321  0.00  0.00    +0.000 A 
ATOM      2  C   UNL     1       7.204   5.185  18.494  0.00  0.00    +0.000 A 
ATOM      3  C   UNL     1       7.922   6.227  19.078  0.00  0.00    +0.000 A 
ATOM      4  C   UNL     1       8.035   7.467  18.456  0.00  0.00    +0.000 A 
ATOM      5  C   UNL     1       7.415   7.637  17.213  0.00  0.00    +0.000 A 
ATOM      6  C   UNL     1       6.643   6.601  16.649  0.00  0.00    +0.000 A 
ENDROOT
BRANCH   1  12
ATOM      7  C   UNL     1       3.335   3.253  19.794  0.00  0.00    +0.000 C 
ATOM      8  C   UNL     1       2.552   2.282  18.883  0.00  0.00    +0.000 C 
ATOM      9  C   UNL     1       3.185   1.984  17.519  0.00  0.00    +0.000 C 
ATOM     10  C   UNL     1       3.346   3.205  16.621  0.00  0.00    +0.000 C 
ATOM     11  N   UNL     1       4.227   4.232  17.182  0.00  0.00    +0.000 N 
ATOM     12  C   UNL     1       5.561   4.342  16.747  0.00  0.00    +0.000 C 
ATOM     13  O   UNL     1       6.034   3.583  15.898  0.00  0.00    +0.000 OA
ATOM     14  C   UNL     1       3.575   5.136  18.051  0.00  0.00    +0.000 A 
ATOM     15  C   UNL     1       3.385   6.465  17.647  0.00  0.00    +0.000 A 
ATOM     16  C   UNL     1       2.767   7.372  18.505  0.00  0.00    +0.000 A 
ATOM     17  C   UNL     1       2.354   6.959  19.768  0.00  0.00    +0.000 A 
ATOM     18  C   UNL     1       2.540   5.634  20.174  0.00  0.00    +0.000 A 
ATOM     19  C   UNL     1       3.136   4.692  19.316  0.00  0.00    +0.000 A 
BRANCH   7  21
ATOM     20  C   UNL     1       5.001   1.694  20.697  0.00  0.00    +0.000 C 
ATOM     21  N   UNL     1       4.761   2.930  19.966  0.00  0.00    +0.000 NA
ATOM     22  H   UNL     1       5.191   2.854  19.045  0.00  0.00    +0.000 HD
ENDBRANCH   7  21
ENDBRANCH   1  12
BRANCH   4  23
ATOM     23  N   UNL     1       8.732   8.553  19.041  0.00  0.00    +0.000 N 
ATOM     24  C   UNL     1       8.655   9.874  18.617  0.00  0.00    +0.000 C 
ATOM     25  O   UNL     1       7.903  10.301  17.748  0.00  0.00    +0.000 OA
ATOM     26  H   UNL     1       9.304   8.344  19.848  0.00  0.00    +0.000 HD
BRANCH  24  27
ATOM     27  C   UNL     1       9.569  10.856  19.271  0.00  0.00    +0.000 A 
ATOM     28  C   UNL     1       9.378  11.176  20.627  0.00  0.00    +0.000 A 
ATOM     29  C   UNL     1      10.293  11.996  21.289  0.00  0.00    +0.000 A 
ATOM     30  C   UNL     1      11.406  12.490  20.615  0.00  0.00    +0.000 A 
ATOM     31  C   UNL     1      11.608  12.174  19.272  0.00  0.00    +0.000 A 
ATOM     32  C   UNL     1      10.694  11.364  18.580  0.00  0.00    +0.000 A 
ATOM     33  C   UNL     1      10.966  11.054  17.128  0.00  0.00    +0.000 C 
ENDBRANCH  24  27
ENDBRANCH   4  23
TORSDOF 4
ENDMDL
MODEL 3
REMARK VINA RESULT:      -8.4      4.972      8.660
REMARK  Name = 
REMARK  6 active torsions:
REMARK  status: ('A' for Active; 'I' for Inactive)
REMARK    1  A    between atoms: C_1  and  N_2
REMARK    2  A    between atoms: N_2  and  C_3
REMARK    3  A    between atoms: C_8  and  C_10
REMARK    4  A    between atoms: C_13  and  N_14
REMARK    5  A    between atoms: C_15  and  C_17
REMARK    6  A    between atoms: C_22  and  C_23
REMARK                            x       y       z     vdW  Elec       q    Type
REMARK                         _______ _______ _______ _____ _____    ______ ____
ROOT
ATOM      1  C   UNL     1       1.079   9.408  20.124  0.00  0.00    +0.000 A 
ATOM      2  C   UNL     1       1.377   8.109  20.523  0.00  0.00    +0.000 A 
ATOM      3  C   UNL     1       2.159   7.274  19.727  0.00  0.00    +0.000 A 
ATOM      4  C   UNL     1       2.580   7.667  18.460  0.00  0.00    +0.000 A 
ATOM      5  C   UNL     1       2.182   8.927  17.997  0.00  0.00    +0.000 A 
ATOM      6  C   UNL     1       1.437   9.792  18.824  0.00  0.00    +0.000 A 
ENDROOT
BRANCH   1  12
ATOM      7  C   UNL     1      -0.408  13.430  18.653  0.00  0.00    +0.000 C 
ATOM      8  C   UNL     1      -1.095  14.170  19.822  0.00  0.00    +0.000 C 
ATOM      9  C   UNL     1      -0.834  13.602  21.221  0.00  0.00    +0.000 C 
ATOM     10  C   UNL     1      -1.319  12.171  21.420  0.00  0.00    +0.000 C 
ATOM     11  N   UNL     1      -0.663  11.203  20.538  0.00  0.00    +0.000 N 
ATOM     12  C   UNL     1       0.386  10.397  21.018  0.00  0.00    +0.000 C 
ATOM     13  O   UNL     1       0.793  10.481  22.179  0.00  0.00    +0.000 OA
ATOM     14  C   UNL     1      -1.269  11.080  19.267  0.00  0.00    +0.000 A 
ATOM     15  C   UNL     1      -1.960   9.904  18.944  0.00  0.00    +0.000 A 
ATOM     16  C   UNL     1      -2.541   9.761  17.685  0.00  0.00    +0.000 A 
ATOM     17  C   UNL     1      -2.419  10.781  16.746  0.00  0.00    +0.000 A 
ATOM     18  C   UNL     1      -1.732  11.956  17.066  0.00  0.00    +0.000 A 
ATOM     19  C   UNL     1      -1.162  12.137  18.339  0.00  0.00    +0.000 A 
BRANCH   7  21
ATOM     20  C   UNL     1       1.858  14.372  18.632  0.00  0.00    +0.000 C 
ATOM     21  N   UNL     1       1.034  13.189  18.832  0.00  0.00    +0.000 NA
ATOM     22  H   UNL     1       1.190  12.837  19.775  0.00  0.00    +0.000 HD
ENDBRANCH   7  21
ENDBRANCH   1  12
BRANCH   4  23
ATOM     23  N   UNL     1       3.401   6.852  17.642  0.00  0.00    +0.000 N 
ATOM     24  C   UNL     1       4.373   5.975  18.107  0.00  0.00    +0.000 C 
ATOM     25  O   UNL     1       4.588   5.708  19.284  0.00  0.00    +0.000 OA
ATOM     26  H   UNL     1       3.239   6.900  16.645  0.00  0.00    +0.000 HD
BRANCH  24  27
ATOM     27  C   UNL     1       5.231   5.303  17.087  0.00  0.00    +0.000 A 
ATOM     28  C   UNL     1       4.733   4.183  16.399  0.00  0.00    +0.000 A 
ATOM     29  C   UNL     1       5.469   3.616  15.358  0.00  0.00    +0.000 A 
ATOM     30  C   UNL     1       6.693   4.164  14.986  0.00  0.00    +0.000 A 
ATOM     31  C   UNL     1       7.192   5.279  15.657  0.00  0.00    +0.000 A 
ATOM     32  C   UNL     1       6.479   5.858  16.718  0.00  0.00    +0.000 A 
ATOM     33  C   UNL     1       7.069   7.064  17.406  0.00  0.00    +0.000 C 
ENDBRANCH  24  27
ENDBRANCH   4  23
TORSDOF 4
ENDMDL
MODEL 4
REMARK VINA RESULT:      -8.0      4.904      8.755
REMARK  Name = 
REMARK  6 active torsions:
REMARK  status: ('A' for Active; 'I' for Inactive)
REMARK    1  A    between atoms: C_1  and  N_2
REMARK    2  A    between atoms: N_2  and  C_3
REMARK    3  A    between atoms: C_8  and  C_10
REMARK    4  A    between atoms: C_13  and  N_14
REMARK    5  A    between atoms: C_15  and  C_17
REMARK    6  A    between atoms: C_22  and  C_23
REMARK                            x       y       z     vdW  Elec       q    Type
REMARK                         _______ _______ _______ _____ _____    ______ ____
ROOT
ATOM      1  C   UNL     1       1.011   9.155  20.635  0.00  0.00    +0.000 A 
ATOM      2  C   UNL     1       1.291   7.819  20.909  0.00  0.00    +0.000 A 
ATOM      3  C   UNL     1       2.020   7.039  20.013  0.00  0.00    +0.000 A 
ATOM      4  C   UNL     1       2.402   7.531  18.769  0.00  0.00    +0.000 A 
ATOM      5  C   UNL     1       2.019   8.835  18.432  0.00  0.00    +0.000 A 
ATOM      6  C   UNL     1       1.328   9.641  19.359  0.00  0.00    +0.000 A 
ENDROOT
BRANCH   1  12
ATOM      7  C   UNL     1       0.168  13.523  19.765  0.00  0.00    +0.000 C 
ATOM      8  C   UNL     1      -0.512  14.159  20.997  0.00  0.00    +0.000 C 
ATOM      9  C   UNL     1      -0.439  13.348  22.296  0.00  0.00    +0.000 C 
ATOM     10  C   UNL     1      -1.116  11.984  22.226  0.00  0.00    +0.000 C 
ATOM     11  N   UNL     1      -0.518  11.085  21.236  0.00  0.00    +0.000 N 
ATOM     12  C   UNL     1       0.379  10.077  21.637  0.00  0.00    +0.000 C 
ATOM     13  O   UNL     1       0.697   9.922  22.819  0.00  0.00    +0.000 OA
ATOM     14  C   UNL     1      -1.030  11.247  19.928  0.00  0.00    +0.000 A 
ATOM     15  C   UNL     1      -1.835  10.243  19.374  0.00  0.00    +0.000 A 
ATOM     16  C   UNL     1      -2.325  10.379  18.077  0.00  0.00    +0.000 A 
ATOM     17  C   UNL     1      -1.999  11.508  17.329  0.00  0.00    +0.000 A 
ATOM     18  C   UNL     1      -1.198  12.512  17.879  0.00  0.00    +0.000 A 
ATOM     19  C   UNL     1      -0.715  12.411  19.196  0.00  0.00    +0.000 A 
BRANCH   7  21
ATOM     20  C   UNL     1       2.414  13.210  18.825  0.00  0.00    +0.000 C 
ATOM     21  N   UNL     1       1.549  13.060  19.987  0.00  0.00    +0.000 NA
ATOM     22  H   UNL     1       1.948  13.588  20.762  0.00  0.00    +0.000 HD
ENDBRANCH   7  21
ENDBRANCH   1  12
BRANCH   4  23
ATOM     23  N   UNL     1       3.170   6.772  17.851  0.00  0.00    +0.000 N 
ATOM     24  C   UNL     1       4.266   5.987  18.185  0.00  0.00    +0.000 C 
ATOM     25  O   UNL     1       4.661   5.759  19.323  0.00  0.00    +0.000 OA
ATOM     26  H   UNL     1       2.870   6.788  16.886  0.00  0.00    +0.000 HD
BRANCH  24  27
ATOM     27  C   UNL     1       5.032   5.370  17.062  0.00  0.00    +0.000 A 
ATOM     28  C   UNL     1       6.159   6.037  16.550  0.00  0.00    +0.000 A 
ATOM     29  C   UNL     1       6.959   5.422  15.585  0.00  0.00    +0.000 A 
ATOM     30  C   UNL     1       6.654   4.140  15.137  0.00  0.00    +0.000 A 
ATOM     31  C   UNL     1       5.543   3.468  15.643  0.00  0.00    +0.000 A 
ATOM     32  C   UNL     1       4.714   4.071  16.601  0.00  0.00    +0.000 A 
ATOM     33  C   UNL     1       3.526   3.294  17.113  0.00  0.00    +0.000 C 
ENDBRANCH  24  27
ENDBRANCH   4  23
TORSDOF 4
ENDMDL
MODEL 5
REMARK VINA RESULT:      -8.0      5.033      8.851
REMARK  Name = 
REMARK  6 active torsions:
REMARK  status: ('A' for Active; 'I' for Inactive)
REMARK    1  A    between atoms: C_1  and  N_2
REMARK    2  A    between atoms: N_2  and  C_3
REMARK    3  A    between atoms: C_8  and  C_10
REMARK    4  A    between atoms: C_13  and  N_14
REMARK    5  A    between atoms: C_15  and  C_17
REMARK    6  A    between atoms: C_22  and  C_23
REMARK                            x       y       z     vdW  Elec       q    Type
REMARK                         _______ _______ _______ _____ _____    ______ ____
ROOT
ATOM      1  C   UNL     1       0.854   9.059  20.940  0.00  0.00    +0.000 A 
ATOM      2  C   UNL     1       1.345   9.652  19.781  0.00  0.00    +0.000 A 
ATOM      3  C   UNL     1       1.985   8.895  18.802  0.00  0.00    +0.000 A 
ATOM      4  C   UNL     1       2.253   7.542  18.992  0.00  0.00    +0.000 A 
ATOM      5  C   UNL     1       1.872   6.962  20.208  0.00  0.00    +0.000 A 
ATOM      6  C   UNL     1       1.177   7.715  21.175  0.00  0.00    +0.000 A 
ENDROOT
BRANCH   1  12
ATOM      7  C   UNL     1       0.121  13.527  20.712  0.00  0.00    +0.000 C 
ATOM      8  C   UNL     1      -0.808  13.944  21.872  0.00  0.00    +0.000 C 
ATOM      9  C   UNL     1      -0.985  12.913  22.993  0.00  0.00    +0.000 C 
ATOM     10  C   UNL     1      -1.606  11.596  22.544  0.00  0.00    +0.000 C 
ATOM     11  N   UNL     1      -0.802  10.878  21.552  0.00  0.00    +0.000 N 
ATOM     12  C   UNL     1       0.013   9.799  21.941  0.00  0.00    +0.000 C 
ATOM     13  O   UNL     1       0.088   9.429  23.115  0.00  0.00    +0.000 OA
ATOM     14  C   UNL     1      -1.041  11.280  20.218  0.00  0.00    +0.000 A 
ATOM     15  C   UNL     1      -1.697  10.405  19.341  0.00  0.00    +0.000 A 
ATOM     16  C   UNL     1      -1.915  10.780  18.017  0.00  0.00    +0.000 A 
ATOM     17  C   UNL     1      -1.466  12.018  17.565  0.00  0.00    +0.000 A 
ATOM     18  C   UNL     1      -0.813  12.894  18.437  0.00  0.00    +0.000 A 
ATOM     19  C   UNL     1      -0.606  12.550  19.785  0.00  0.00    +0.000 A 
BRANCH   7  21
ATOM     20  C   UNL     1       2.540  13.478  20.297  0.00  0.00    +0.000 C 
ATOM     21  N   UNL     1       1.437  13.008  21.123  0.00  0.00    +0.000 NA
ATOM     22  H   UNL     1       1.608  13.287  22.088  0.00  0.00    +0.000 HD
ENDBRANCH   7  21
ENDBRANCH   1  12
BRANCH   4  23
ATOM     23  N   UNL     1       2.873   6.740  18.002  0.00  0.00    +0.000 N 
ATOM     24  C   UNL     1       4.059   6.036  18.171  0.00  0.00    +0.000 C 
ATOM     25  O   UNL     1       4.680   5.926  19.223  0.00  0.00    +0.000 OA
ATOM     26  H   UNL     1       2.392   6.658  17.117  0.00  0.00    +0.000 HD
BRANCH  24  27
ATOM     27  C   UNL     1       4.628   5.358  16.970  0.00  0.00    +0.000 A 
ATOM     28  C   UNL     1       5.318   6.121  16.011  0.00  0.00    +0.000 A 
ATOM     29  C   UNL     1       5.962   5.492  14.945  0.00  0.00    +0.000 A 
ATOM     30  C   UNL     1       5.938   4.105  14.833  0.00  0.00    +0.000 A 
ATOM     31  C   UNL     1       5.263   3.338  15.782  0.00  0.00    +0.000 A 
ATOM     32  C   UNL     1       4.593   3.948  16.854  0.00  0.00    +0.000 A 
ATOM     33  C   UNL     1       3.881   3.067  17.850  0.00  0.00    +0.000 C 
ENDBRANCH  24  27
ENDBRANCH   4  23
TORSDOF 4
ENDMDL
MODEL 6
REMARK VINA RESULT:      -8.0      4.933      8.773
REMARK  Name = 
REMARK  6 active torsions:
REMARK  status: ('A' for Active; 'I' for Inactive)
REMARK    1  A    between atoms: C_1  and  N_2
REMARK    2  A    between atoms: N_2  and  C_3
REMARK    3  A    between atoms: C_8  and  C_10
REMARK    4  A    between atoms: C_13  and  N_14
REMARK    5  A    between atoms: C_15  and  C_17
REMARK    6  A    between atoms: C_22  and  C_23
REMARK                            x       y       z     vdW  Elec       q    Type
REMARK                         _______ _______ _______ _____ _____    ______ ____
ROOT
ATOM      1  C   UNL     1       1.121   9.394  20.074  0.00  0.00    +0.000 A 
ATOM      2  C   UNL     1       1.384   8.127  20.587  0.00  0.00    +0.000 A 
ATOM      3  C   UNL     1       2.056   7.171  19.830  0.00  0.00    +0.000 A 
ATOM      4  C   UNL     1       2.395   7.406  18.500  0.00  0.00    +0.000 A 
ATOM      5  C   UNL     1       2.025   8.632  17.936  0.00  0.00    +0.000 A 
ATOM      6  C   UNL     1       1.393   9.620  18.718  0.00  0.00    +0.000 A 
ENDROOT
BRANCH   1  12
ATOM      7  C   UNL     1      -0.243  13.336  18.299  0.00  0.00    +0.000 C 
ATOM      8  C   UNL     1      -0.800  14.230  19.428  0.00  0.00    +0.000 C 
ATOM      9  C   UNL     1      -0.468  13.788  20.858  0.00  0.00    +0.000 C 
ATOM     10  C   UNL     1      -1.017  12.417  21.236  0.00  0.00    +0.000 C 
ATOM     11  N   UNL     1      -0.483  11.327  20.416  0.00  0.00    +0.000 N 
ATOM     12  C   UNL     1       0.552  10.508  20.906  0.00  0.00    +0.000 C 
ATOM     13  O   UNL     1       1.047  10.681  22.022  0.00  0.00    +0.000 OA
ATOM     14  C   UNL     1      -1.187  11.117  19.209  0.00  0.00    +0.000 A 
ATOM     15  C   UNL     1      -1.965   9.960  19.057  0.00  0.00    +0.000 A 
ATOM     16  C   UNL     1      -2.643   9.730  17.862  0.00  0.00    +0.000 A 
ATOM     17  C   UNL     1      -2.534  10.643  16.816  0.00  0.00    +0.000 A 
ATOM     18  C   UNL     1      -1.761  11.798  16.965  0.00  0.00    +0.000 A 
ATOM     19  C   UNL     1      -1.089  12.067  18.171  0.00  0.00    +0.000 A 
BRANCH   7  21
ATOM     20  C   UNL     1       2.059  14.186  18.280  0.00  0.00    +0.000 C 
ATOM     21  N   UNL     1       1.192  13.022  18.404  0.00  0.00    +0.000 NA
ATOM     22  H   UNL     1       1.363  12.581  19.306  0.00  0.00    +0.000 HD
ENDBRANCH   7  21
ENDBRANCH   1  12
BRANCH   4  23
ATOM     23  N   UNL     1       3.106   6.464  17.716  0.00  0.00    +0.000 N 
ATOM     24  C   UNL     1       4.445   6.570  17.359  0.00  0.00    +0.000 C 
ATOM     25  O   UNL     1       5.222   7.433  17.752  0.00  0.00    +0.000 OA
ATOM     26  H   UNL     1       2.598   5.641  17.423  0.00  0.00    +0.000 HD
BRANCH  24  27
ATOM     27  C   UNL     1       4.983   5.548  16.414  0.00  0.00    +0.000 A 
ATOM     28  C   UNL     1       5.506   5.964  15.176  0.00  0.00    +0.000 A 
ATOM     29  C   UNL     1       6.124   5.041  14.332  0.00  0.00    +0.000 A 
ATOM     30  C   UNL     1       6.240   3.708  14.716  0.00  0.00    +0.000 A 
ATOM     31  C   UNL     1       5.731   3.288  15.943  0.00  0.00    +0.000 A 
ATOM     32  C   UNL     1       5.091   4.193  16.803  0.00  0.00    +0.000 A 
ATOM     33  C   UNL     1       4.561   3.679  18.119  0.00  0.00    +0.000 C 
ENDBRANCH  24  27
ENDBRANCH   4  23
TORSDOF 4
ENDMDL
MODEL 7
REMARK VINA RESULT:      -7.9      3.119      9.688
REMARK  Name = 
REMARK  6 active torsions:
REMARK  status: ('A' for Active; 'I' for Inactive)
REMARK    1  A    between atoms: C_1  and  N_2
REMARK    2  A    between atoms: N_2  and  C_3
REMARK    3  A    between atoms: C_8  and  C_10
REMARK    4  A    between atoms: C_13  and  N_14
REMARK    5  A    between atoms: C_15  and  C_17
REMARK    6  A    between atoms: C_22  and  C_23
REMARK                            x       y       z     vdW  Elec       q    Type
REMARK                         _______ _______ _______ _____ _____    ______ ____
ROOT
ATOM      1  C   UNL     1       9.644  11.574  18.857  0.00  0.00    +0.000 A 
ATOM      2  C   UNL     1       9.728  10.332  19.480  0.00  0.00    +0.000 A 
ATOM      3  C   UNL     1       9.012   9.238  19.002  0.00  0.00    +0.000 A 
ATOM      4  C   UNL     1       8.105   9.368  17.953  0.00  0.00    +0.000 A 
ATOM      5  C   UNL     1       7.920  10.640  17.399  0.00  0.00    +0.000 A 
ATOM      6  C   UNL     1       8.685  11.735  17.848  0.00  0.00    +0.000 A 
ENDROOT
BRANCH   1  12
ATOM      7  C   UNL     1       7.989  15.631  20.022  0.00  0.00    +0.000 C 
ATOM      8  C   UNL     1       9.163  16.570  20.373  0.00  0.00    +0.000 C 
ATOM      9  C   UNL     1      10.554  16.096  19.939  0.00  0.00    +0.000 C 
ATOM     10  C   UNL     1      10.997  14.782  20.572  0.00  0.00    +0.000 C 
ATOM     11  N   UNL     1      10.135  13.649  20.229  0.00  0.00    +0.000 N 
ATOM     12  C   UNL     1      10.521  12.735  19.231  0.00  0.00    +0.000 C 
ATOM     13  O   UNL     1      11.579  12.858  18.610  0.00  0.00    +0.000 OA
ATOM     14  C   UNL     1       9.008  13.508  21.070  0.00  0.00    +0.000 A 
ATOM     15  C   UNL     1       8.945  12.430  21.964  0.00  0.00    +0.000 A 
ATOM     16  C   UNL     1       7.827  12.268  22.781  0.00  0.00    +0.000 A 
ATOM     17  C   UNL     1       6.769  13.168  22.694  0.00  0.00    +0.000 A 
ATOM     18  C   UNL     1       6.830  14.245  21.806  0.00  0.00    +0.000 A 
ATOM     19  C   UNL     1       7.958  14.448  20.991  0.00  0.00    +0.000 A 
BRANCH   7  21
ATOM     20  C   UNL     1       6.607  14.897  18.131  0.00  0.00    +0.000 C 
ATOM     21  N   UNL     1       7.948  15.184  18.619  0.00  0.00    +0.000 NA
ATOM     22  H   UNL     1       8.361  15.910  18.034  0.00  0.00    +0.000 HD
ENDBRANCH   7  21
ENDBRANCH   1  12
BRANCH   4  23
ATOM     23  N   UNL     1       7.386   8.267  17.425  0.00  0.00    +0.000 N 
ATOM     24  C   UNL     1       7.493   6.955  17.869  0.00  0.00    +0.000 C 
ATOM     25  O   UNL     1       8.144   6.581  18.839  0.00  0.00    +0.000 OA
ATOM     26  H   UNL     1       6.724   8.468  16.688  0.00  0.00    +0.000 HD
BRANCH  24  27
ATOM     27  C   UNL     1       6.758   5.910  17.099  0.00  0.00    +0.000 A 
ATOM     28  C   UNL     1       7.264   5.487  15.857  0.00  0.00    +0.000 A 
ATOM     29  C   UNL     1       6.661   4.427  15.178  0.00  0.00    +0.000 A 
ATOM     30  C   UNL     1       5.565   3.774  15.734  0.00  0.00    +0.000 A 
ATOM     31  C   UNL     1       5.059   4.181  16.967  0.00  0.00    +0.000 A 
ATOM     32  C   UNL     1       5.638   5.254  17.662  0.00  0.00    +0.000 A 
ATOM     33  C   UNL     1       5.048   5.649  18.993  0.00  0.00    +0.000 C 
ENDBRANCH  24  27
ENDBRANCH   4  23
TORSDOF 4
ENDMDL
MODEL 8
REMARK VINA RESULT:      -7.5      5.036      8.739
REMARK  Name = 
REMARK  6 active torsions:
REMARK  status: ('A' for Active; 'I' for Inactive)
REMARK    1  A    between atoms: C_1  and  N_2
REMARK    2  A    between atoms: N_2  and  C_3
REMARK    3  A    between atoms: C_8  and  C_10
REMARK    4  A    between atoms: C_13  and  N_14
REMARK    5  A    between atoms: C_15  and  C_17
REMARK    6  A    between atoms: C_22  and  C_23
REMARK                            x       y       z     vdW  Elec       q    Type
REMARK                         _______ _______ _______ _____ _____    ______ ____
ROOT
ATOM      1  C   UNL     1       0.827   9.045  21.019  0.00  0.00    +0.000 A 
ATOM      2  C   UNL     1       1.381   9.644  19.892  0.00  0.00    +0.000 A 
ATOM      3  C   UNL     1       2.077   8.893  18.947  0.00  0.00    +0.000 A 
ATOM      4  C   UNL     1       2.338   7.541  19.146  0.00  0.00    +0.000 A 
ATOM      5  C   UNL     1       1.892   6.954  20.336  0.00  0.00    +0.000 A 
ATOM      6  C   UNL     1       1.141   7.701  21.266  0.00  0.00    +0.000 A 
ENDROOT
BRANCH   1  12
ATOM      7  C   UNL     1       0.114  13.515  20.785  0.00  0.00    +0.000 C 
ATOM      8  C   UNL     1      -0.882  13.924  21.892  0.00  0.00    +0.000 C 
ATOM      9  C   UNL     1      -1.126  12.885  22.992  0.00  0.00    +0.000 C 
ATOM     10  C   UNL     1      -1.721  11.572  22.495  0.00  0.00    +0.000 C 
ATOM     11  N   UNL     1      -0.860  10.861  21.547  0.00  0.00    +0.000 N 
ATOM     12  C   UNL     1      -0.071   9.777  21.975  0.00  0.00    +0.000 C 
ATOM     13  O   UNL     1      -0.067   9.398  23.148  0.00  0.00    +0.000 OA
ATOM     14  C   UNL     1      -1.019  11.275  20.205  0.00  0.00    +0.000 A 
ATOM     15  C   UNL     1      -1.622  10.408  19.283  0.00  0.00    +0.000 A 
ATOM     16  C   UNL     1      -1.761  10.795  17.952  0.00  0.00    +0.000 A 
ATOM     17  C   UNL     1      -1.285  12.035  17.537  0.00  0.00    +0.000 A 
ATOM     18  C   UNL     1      -0.684  12.903  18.454  0.00  0.00    +0.000 A 
ATOM     19  C   UNL     1      -0.557  12.548  19.809  0.00  0.00    +0.000 A 
BRANCH   7  21
ATOM     20  C   UNL     1       2.554  13.477  20.524  0.00  0.00    +0.000 C 
ATOM     21  N   UNL     1       1.402  12.991  21.270  0.00  0.00    +0.000 NA
ATOM     22  H   UNL     1       1.512  13.252  22.249  0.00  0.00    +0.000 HD
ENDBRANCH   7  21
ENDBRANCH   1  12
BRANCH   4  23
ATOM     23  N   UNL     1       3.015   6.745  18.189  0.00  0.00    +0.000 N 
ATOM     24  C   UNL     1       4.104   5.925  18.457  0.00  0.00    +0.000 C 
ATOM     25  O   UNL     1       4.567   5.696  19.570  0.00  0.00    +0.000 OA
ATOM     26  H   UNL     1       2.651   6.761  17.246  0.00  0.00    +0.000 HD
BRANCH  24  27
ATOM     27  C   UNL     1       4.770   5.270  17.294  0.00  0.00    +0.000 A 
ATOM     28  C   UNL     1       4.200   4.109  16.739  0.00  0.00    +0.000 A 
ATOM     29  C   UNL     1       4.737   3.552  15.578  0.00  0.00    +0.000 A 
ATOM     30  C   UNL     1       5.828   4.149  14.954  0.00  0.00    +0.000 A 
ATOM     31  C   UNL     1       6.395   5.303  15.491  0.00  0.00    +0.000 A 
ATOM     32  C   UNL     1       5.885   5.874  16.667  0.00  0.00    +0.000 A 
ATOM     33  C   UNL     1       6.540   7.124  17.201  0.00  0.00    +0.000 C 
ENDBRANCH  24  27
ENDBRANCH   4  23
TORSDOF 4
ENDMDL
MODEL 9
REMARK VINA RESULT:      -7.5      5.878      9.807
REMARK  Name = 
REMARK  6 active torsions:
REMARK  status: ('A' for Active; 'I' for Inactive)
REMARK    1  A    between atoms: C_1  and  N_2
REMARK    2  A    between atoms: N_2  and  C_3
REMARK    3  A    between atoms: C_8  and  C_10
REMARK    4  A    between atoms: C_13  and  N_14
REMARK    5  A    between atoms: C_15  and  C_17
REMARK    6  A    between atoms: C_22  and  C_23
REMARK                            x       y       z     vdW  Elec       q    Type
REMARK                         _______ _______ _______ _____ _____    ______ ____
ROOT
ATOM      1  C   UNL     1      -0.102  10.150  21.921  0.00  0.00    +0.000 A 
ATOM      2  C   UNL     1       1.078  10.455  21.250  0.00  0.00    +0.000 A 
ATOM      3  C   UNL     1       1.806   9.468  20.590  0.00  0.00    +0.000 A 
ATOM      4  C   UNL     1       1.440   8.127  20.665  0.00  0.00    +0.000 A 
ATOM      5  C   UNL     1       0.323   7.793  21.439  0.00  0.00    +0.000 A 
ATOM      6  C   UNL     1      -0.443   8.798  22.063  0.00  0.00    +0.000 A 
ENDROOT
BRANCH   1  12
ATOM      7  C   UNL     1       0.168  14.529  20.777  0.00  0.00    +0.000 C 
ATOM      8  C   UNL     1      -0.925  15.314  21.534  0.00  0.00    +0.000 C 
ATOM      9  C   UNL     1      -1.589  14.580  22.704  0.00  0.00    +0.000 C 
ATOM     10  C   UNL     1      -2.327  13.306  22.310  0.00  0.00    +0.000 C 
ATOM     11  N   UNL     1      -1.457  12.284  21.724  0.00  0.00    +0.000 N 
ATOM     12  C   UNL     1      -1.005  11.201  22.501  0.00  0.00    +0.000 C 
ATOM     13  O   UNL     1      -1.312  11.080  23.689  0.00  0.00    +0.000 OA
ATOM     14  C   UNL     1      -1.257  12.428  20.332  0.00  0.00    +0.000 A 
ATOM     15  C   UNL     1      -1.828  11.496  19.454  0.00  0.00    +0.000 A 
ATOM     16  C   UNL     1      -1.617  11.613  18.082  0.00  0.00    +0.000 A 
ATOM     17  C   UNL     1      -0.826  12.647  17.588  0.00  0.00    +0.000 A 
ATOM     18  C   UNL     1      -0.257  13.579  18.461  0.00  0.00    +0.000 A 
ATOM     19  C   UNL     1      -0.478  13.499  19.848  0.00  0.00    +0.000 A 
BRANCH   7  21
ATOM     20  C   UNL     1       2.519  13.868  21.018  0.00  0.00    +0.000 C 
ATOM     21  N   UNL     1       1.199  13.917  21.632  0.00  0.00    +0.000 NA
ATOM     22  H   UNL     1       1.261  14.449  22.498  0.00  0.00    +0.000 HD
ENDBRANCH   7  21
ENDBRANCH   1  12
BRANCH   4  23
ATOM     23  N   UNL     1       2.142   7.105  19.978  0.00  0.00    +0.000 N 
ATOM     24  C   UNL     1       2.322   7.044  18.602  0.00  0.00    +0.000 C 
ATOM     25  O   UNL     1       1.989   7.911  17.800  0.00  0.00    +0.000 OA
ATOM     26  H   UNL     1       2.566   6.385  20.547  0.00  0.00    +0.000 HD
BRANCH  24  27
ATOM     27  C   UNL     1       2.972   5.819  18.050  0.00  0.00    +0.000 A 
ATOM     28  C   UNL     1       2.240   4.619  17.992  0.00  0.00    +0.000 A 
ATOM     29  C   UNL     1       2.786   3.496  17.370  0.00  0.00    +0.000 A 
ATOM     30  C   UNL     1       4.049   3.561  16.790  0.00  0.00    +0.000 A 
ATOM     31  C   UNL     1       4.780   4.747  16.836  0.00  0.00    +0.000 A 
ATOM     32  C   UNL     1       4.260   5.886  17.470  0.00  0.00    +0.000 A 
ATOM     33  C   UNL     1       5.097   7.142  17.487  0.00  0.00    +0.000 C 
ENDBRANCH  24  27
ENDBRANCH   4  23
TORSDOF 4
ENDMDL
