MODEL 1
REMARK VINA RESULT:      -7.6      0.000      0.000
REMARK  Name = 
REMARK  4 active torsions:
REMARK  status: ('A' for Active; 'I' for Inactive)
REMARK    1  A    between atoms: O_1  and  C_2
REMARK    2  A    between atoms: C_6  and  N_7
REMARK    3  A    between atoms: C_8  and  S_9
REMARK    4  A    between atoms: N_10  and  C_11
REMARK                            x       y       z     vdW  Elec       q    Type
REMARK                         _______ _______ _______ _____ _____    ______ ____
ROOT
ATOM      1  N   UNL     1       7.163   5.252  15.933  0.00  0.00    +0.000 N 
ATOM      2  C   UNL     1       6.381   4.897  17.002  0.00  0.00    +0.000 C 
ATOM      3  N   UNL     1       5.355   4.115  16.958  0.00  0.00    +0.000 NA
ATOM      4  H   UNL     1       7.924   5.875  16.166  0.00  0.00    +0.000 HD
ENDROOT
BRANCH   3   5
ATOM      5  C   UNL     1       4.563   3.797  18.016  0.00  0.00    +0.000 A 
ATOM      6  N   UNL     1       3.341   4.243  18.064  0.00  0.00    +0.000 NA
ATOM      7  C   UNL     1       2.604   3.836  19.135  0.00  0.00    +0.000 A 
ATOM      8  N   UNL     1       1.392   4.187  19.434  0.00  0.00    +0.000 NA
ATOM      9  C   UNL     1       1.144   3.451  20.590  0.00  0.00    +0.000 A 
ATOM     10  N   UNL     1       2.094   2.672  21.033  0.00  0.00    +0.000 NA
ATOM     11  C   UNL     1       3.091   2.884  20.132  0.00  0.00    +0.000 A 
ATOM     12  C   UNL     1       4.338   2.443  19.992  0.00  0.00    +0.000 A 
ATOM     13  N   UNL     1       5.087   2.929  18.950  0.00  0.00    +0.000 N 
ATOM     14  H   UNL     1       6.003   2.539  18.769  0.00  0.00    +0.000 HD
ENDBRANCH   3   5
BRANCH   1  19
ATOM     15  C   UNL     1       6.279   3.507  12.751  0.00  0.00    +0.000 A 
ATOM     16  C   UNL     1       7.043   4.216  11.836  0.00  0.00    +0.000 A 
ATOM     17  C   UNL     1       7.835   5.267  12.289  0.00  0.00    +0.000 A 
ATOM     18  C   UNL     1       7.856   5.591  13.650  0.00  0.00    +0.000 A 
ATOM     19  C   UNL     1       7.090   4.874  14.583  0.00  0.00    +0.000 A 
ATOM     20  C   UNL     1       6.292   3.831  14.104  0.00  0.00    +0.000 A 
BRANCH  15  21
ATOM     21  O   UNL     1       5.485   2.466  12.362  0.00  0.00    +0.000 OA
ATOM     22  H   UNL     1       4.642   2.823  12.036  0.00  0.00    +0.000 HD
ENDBRANCH  15  21
ENDBRANCH   1  19
BRANCH   2  23
ATOM     23  S   UNL     1       7.023   5.676  18.450  0.00  0.00    +0.000 S 
ATOM     24  H   UNL     1       8.099   6.191  17.836  0.00  0.00    +0.000 HD
ENDBRANCH   2  23
TORSDOF 4
ENDMDL
MODEL 2
REMARK VINA RESULT:      -7.4      0.910      1.495
REMARK  Name = 
REMARK  4 active torsions:
REMARK  status: ('A' for Active; 'I' for Inactive)
REMARK    1  A    between atoms: O_1  and  C_2
REMARK    2  A    between atoms: C_6  and  N_7
REMARK    3  A    between atoms: C_8  and  S_9
REMARK    4  A    between atoms: N_10  and  C_11
REMARK                            x       y       z     vdW  Elec       q    Type
REMARK                         _______ _______ _______ _____ _____    ______ ____
ROOT
ATOM      1  N   UNL     1       7.069   4.900  15.885  0.00  0.00    +0.000 N 
ATOM      2  C   UNL     1       6.073   4.815  16.824  0.00  0.00    +0.000 C 
ATOM      3  N   UNL     1       4.842   4.498  16.590  0.00  0.00    +0.000 NA
ATOM      4  H   UNL     1       7.969   5.162  16.261  0.00  0.00    +0.000 HD
ENDROOT
BRANCH   3   5
ATOM      5  C   UNL     1       3.852   4.452  17.520  0.00  0.00    +0.000 A 
ATOM      6  N   UNL     1       3.568   3.324  18.103  0.00  0.00    +0.000 NA
ATOM      7  C   UNL     1       2.596   3.379  19.056  0.00  0.00    +0.000 A 
ATOM      8  N   UNL     1       2.100   2.388  19.731  0.00  0.00    +0.000 NA
ATOM      9  C   UNL     1       1.186   3.024  20.566  0.00  0.00    +0.000 A 
ATOM     10  N   UNL     1       1.072   4.322  20.472  0.00  0.00    +0.000 NA
ATOM     11  C   UNL     1       1.962   4.623  19.488  0.00  0.00    +0.000 A 
ATOM     12  C   UNL     1       2.334   5.740  18.871  0.00  0.00    +0.000 A 
ATOM     13  N   UNL     1       3.258   5.648  17.859  0.00  0.00    +0.000 N 
ATOM     14  H   UNL     1       3.625   6.493  17.440  0.00  0.00    +0.000 HD
ENDBRANCH   3   5
BRANCH   1  19
ATOM     15  C   UNL     1       6.345   3.449  12.519  0.00  0.00    +0.000 A 
ATOM     16  C   UNL     1       7.084   4.291  11.700  0.00  0.00    +0.000 A 
ATOM     17  C   UNL     1       7.806   5.332  12.279  0.00  0.00    +0.000 A 
ATOM     18  C   UNL     1       7.783   5.512  13.666  0.00  0.00    +0.000 A 
ATOM     19  C   UNL     1       7.042   4.660  14.502  0.00  0.00    +0.000 A 
ATOM     20  C   UNL     1       6.314   3.630  13.898  0.00  0.00    +0.000 A 
BRANCH  15  21
ATOM     21  O   UNL     1       5.620   2.412  12.006  0.00  0.00    +0.000 OA
ATOM     22  H   UNL     1       4.925   2.174  12.643  0.00  0.00    +0.000 HD
ENDBRANCH  15  21
ENDBRANCH   1  19
BRANCH   2  23
ATOM     23  S   UNL     1       6.758   5.194  18.404  0.00  0.00    +0.000 S 
ATOM     24  H   UNL     1       7.888   4.498  18.210  0.00  0.00    +0.000 HD
ENDBRANCH   2  23
TORSDOF 4
ENDMDL
MODEL 3
REMARK VINA RESULT:      -6.9      4.180      5.462
REMARK  Name = 
REMARK  4 active torsions:
REMARK  status: ('A' for Active; 'I' for Inactive)
REMARK    1  A    between atoms: O_1  and  C_2
REMARK    2  A    between atoms: C_6  and  N_7
REMARK    3  A    between atoms: C_8  and  S_9
REMARK    4  A    between atoms: N_10  and  C_11
REMARK                            x       y       z     vdW  Elec       q    Type
REMARK                         _______ _______ _______ _____ _____    ______ ____
ROOT
ATOM      1  N   UNL     1       3.700   4.349  18.855  0.00  0.00    +0.000 N 
ATOM      2  C   UNL     1       2.881   5.358  19.291  0.00  0.00    +0.000 C 
ATOM      3  N   UNL     1       3.055   6.619  19.069  0.00  0.00    +0.000 NA
ATOM      4  H   UNL     1       3.398   3.424  19.128  0.00  0.00    +0.000 HD
ENDROOT
BRANCH   3   5
ATOM      5  C   UNL     1       2.258   7.616  19.536  0.00  0.00    +0.000 A 
ATOM      6  N   UNL     1       1.735   8.468  18.701  0.00  0.00    +0.000 NA
ATOM      7  C   UNL     1       0.912   9.404  19.250  0.00  0.00    +0.000 A 
ATOM      8  N   UNL     1       0.323  10.386  18.641  0.00  0.00    +0.000 NA
ATOM      9  C   UNL     1      -0.401  10.984  19.668  0.00  0.00    +0.000 A 
ATOM     10  N   UNL     1      -0.317  10.459  20.861  0.00  0.00    +0.000 NA
ATOM     11  C   UNL     1       0.542   9.422  20.664  0.00  0.00    +0.000 A 
ATOM     12  C   UNL     1       1.087   8.495  21.446  0.00  0.00    +0.000 A 
ATOM     13  N   UNL     1       1.976   7.611  20.884  0.00  0.00    +0.000 N 
ATOM     14  H   UNL     1       2.331   6.841  21.437  0.00  0.00    +0.000 HD
ENDBRANCH   3   5
BRANCH   1  19
ATOM     15  C   UNL     1       6.123   4.097  16.022  0.00  0.00    +0.000 A 
ATOM     16  C   UNL     1       7.293   4.525  16.632  0.00  0.00    +0.000 A 
ATOM     17  C   UNL     1       7.257   4.898  17.973  0.00  0.00    +0.000 A 
ATOM     18  C   UNL     1       6.055   4.831  18.686  0.00  0.00    +0.000 A 
ATOM     19  C   UNL     1       4.868   4.393  18.077  0.00  0.00    +0.000 A 
ATOM     20  C   UNL     1       4.924   4.037  16.726  0.00  0.00    +0.000 A 
BRANCH  15  21
ATOM     21  O   UNL     1       6.099   3.718  14.710  0.00  0.00    +0.000 OA
ATOM     22  H   UNL     1       6.064   4.517  14.157  0.00  0.00    +0.000 HD
ENDBRANCH  15  21
ENDBRANCH   1  19
BRANCH   2  23
ATOM     23  S   UNL     1       1.541   4.644  20.191  0.00  0.00    +0.000 S 
ATOM     24  H   UNL     1       0.627   5.522  19.752  0.00  0.00    +0.000 HD
ENDBRANCH   2  23
TORSDOF 4
ENDMDL
MODEL 4
REMARK VINA RESULT:      -6.9      4.488      5.760
REMARK  Name = 
REMARK  4 active torsions:
REMARK  status: ('A' for Active; 'I' for Inactive)
REMARK    1  A    between atoms: O_1  and  C_2
REMARK    2  A    between atoms: C_6  and  N_7
REMARK    3  A    between atoms: C_8  and  S_9
REMARK    4  A    between atoms: N_10  and  C_11
REMARK                            x       y       z     vdW  Elec       q    Type
REMARK                         _______ _______ _______ _____ _____    ______ ____
ROOT
ATOM      1  N   UNL     1       3.404   4.344  18.840  0.00  0.00    +0.000 N 
ATOM      2  C   UNL     1       2.647   5.378  19.329  0.00  0.00    +0.000 C 
ATOM      3  N   UNL     1       2.900   6.635  19.174  0.00  0.00    +0.000 NA
ATOM      4  H   UNL     1       3.044   3.427  19.065  0.00  0.00    +0.000 HD
ENDROOT
BRANCH   3   5
ATOM      5  C   UNL     1       2.166   7.654  19.692  0.00  0.00    +0.000 A 
ATOM      6  N   UNL     1       1.666   8.558  18.899  0.00  0.00    +0.000 NA
ATOM      7  C   UNL     1       0.905   9.515  19.499  0.00  0.00    +0.000 A 
ATOM      8  N   UNL     1       0.350  10.544  18.937  0.00  0.00    +0.000 NA
ATOM      9  C   UNL     1      -0.318  11.142  20.001  0.00  0.00    +0.000 A 
ATOM     10  N   UNL     1      -0.230  10.575  21.174  0.00  0.00    +0.000 NA
ATOM     11  C   UNL     1       0.571   9.504  20.922  0.00  0.00    +0.000 A 
ATOM     12  C   UNL     1       1.088   8.526  21.659  0.00  0.00    +0.000 A 
ATOM     13  N   UNL     1       1.917   7.618  21.047  0.00  0.00    +0.000 N 
ATOM     14  H   UNL     1       2.247   6.814  21.566  0.00  0.00    +0.000 HD
ENDBRANCH   3   5
BRANCH   1  19
ATOM     15  C   UNL     1       6.975   4.518  17.757  0.00  0.00    +0.000 A 
ATOM     16  C   UNL     1       6.846   4.365  16.385  0.00  0.00    +0.000 A 
ATOM     17  C   UNL     1       5.575   4.198  15.841  0.00  0.00    +0.000 A 
ATOM     18  C   UNL     1       4.452   4.194  16.675  0.00  0.00    +0.000 A 
ATOM     19  C   UNL     1       4.574   4.355  18.065  0.00  0.00    +0.000 A 
ATOM     20  C   UNL     1       5.861   4.507  18.591  0.00  0.00    +0.000 A 
BRANCH  15  21
ATOM     21  O   UNL     1       8.196   4.687  18.344  0.00  0.00    +0.000 OA
ATOM     22  H   UNL     1       8.394   5.638  18.381  0.00  0.00    +0.000 HD
ENDBRANCH  15  21
ENDBRANCH   1  19
BRANCH   2  23
ATOM     23  S   UNL     1       1.264   4.703  20.190  0.00  0.00    +0.000 S 
ATOM     24  H   UNL     1       1.789   3.474  20.307  0.00  0.00    +0.000 HD
ENDBRANCH   2  23
TORSDOF 4
ENDMDL
MODEL 5
REMARK VINA RESULT:      -6.9      4.804      7.929
REMARK  Name = 
REMARK  4 active torsions:
REMARK  status: ('A' for Active; 'I' for Inactive)
REMARK    1  A    between atoms: O_1  and  C_2
REMARK    2  A    between atoms: C_6  and  N_7
REMARK    3  A    between atoms: C_8  and  S_9
REMARK    4  A    between atoms: N_10  and  C_11
REMARK                            x       y       z     vdW  Elec       q    Type
REMARK                         _______ _______ _______ _____ _____    ______ ____
ROOT
ATOM      1  N   UNL     1       1.856   6.434  20.461  0.00  0.00    +0.000 N 
ATOM      2  C   UNL     1       2.865   5.877  19.719  0.00  0.00    +0.000 C 
ATOM      3  N   UNL     1       3.683   6.522  18.955  0.00  0.00    +0.000 NA
ATOM      4  H   UNL     1       1.321   5.766  20.998  0.00  0.00    +0.000 HD
ENDROOT
BRANCH   3   5
ATOM      5  C   UNL     1       4.657   5.958  18.193  0.00  0.00    +0.000 A 
ATOM      6  N   UNL     1       4.483   5.838  16.909  0.00  0.00    +0.000 NA
ATOM      7  C   UNL     1       5.530   5.307  16.217  0.00  0.00    +0.000 A 
ATOM      8  N   UNL     1       5.577   5.035  14.949  0.00  0.00    +0.000 NA
ATOM      9  C   UNL     1       6.874   4.554  14.796  0.00  0.00    +0.000 A 
ATOM     10  N   UNL     1       7.637   4.504  15.854  0.00  0.00    +0.000 NA
ATOM     11  C   UNL     1       6.814   4.973  16.831  0.00  0.00    +0.000 A 
ATOM     12  C   UNL     1       6.927   5.160  18.142  0.00  0.00    +0.000 A 
ATOM     13  N   UNL     1       5.831   5.622  18.830  0.00  0.00    +0.000 N 
ATOM     14  H   UNL     1       5.922   5.861  19.810  0.00  0.00    +0.000 HD
ENDBRANCH   3   5
BRANCH   1  19
ATOM     15  C   UNL     1       0.725   9.690  21.901  0.00  0.00    +0.000 A 
ATOM     16  C   UNL     1       0.695  10.488  20.767  0.00  0.00    +0.000 A 
ATOM     17  C   UNL     1       1.059   9.934  19.542  0.00  0.00    +0.000 A 
ATOM     18  C   UNL     1       1.440   8.590  19.469  0.00  0.00    +0.000 A 
ATOM     19  C   UNL     1       1.466   7.774  20.611  0.00  0.00    +0.000 A 
ATOM     20  C   UNL     1       1.110   8.355  21.832  0.00  0.00    +0.000 A 
BRANCH  15  21
ATOM     21  O   UNL     1       0.377  10.181  23.127  0.00  0.00    +0.000 OA
ATOM     22  H   UNL     1       1.118  10.039  23.740  0.00  0.00    +0.000 HD
ENDBRANCH  15  21
ENDBRANCH   1  19
BRANCH   2  23
ATOM     23  S   UNL     1       2.868   4.134  19.995  0.00  0.00    +0.000 S 
ATOM     24  H   UNL     1       1.543   3.990  19.840  0.00  0.00    +0.000 HD
ENDBRANCH   2  23
TORSDOF 4
ENDMDL
MODEL 6
REMARK VINA RESULT:      -6.8      5.094      7.038
REMARK  Name = 
REMARK  4 active torsions:
REMARK  status: ('A' for Active; 'I' for Inactive)
REMARK    1  A    between atoms: O_1  and  C_2
REMARK    2  A    between atoms: C_6  and  N_7
REMARK    3  A    between atoms: C_8  and  S_9
REMARK    4  A    between atoms: N_10  and  C_11
REMARK                            x       y       z     vdW  Elec       q    Type
REMARK                         _______ _______ _______ _____ _____    ______ ____
ROOT
ATOM      1  N   UNL     1       2.822   6.255  17.996  0.00  0.00    +0.000 N 
ATOM      2  C   UNL     1       2.346   7.309  18.734  0.00  0.00    +0.000 C 
ATOM      3  N   UNL     1       1.832   7.229  19.916  0.00  0.00    +0.000 NA
ATOM      4  H   UNL     1       3.188   6.517  17.092  0.00  0.00    +0.000 HD
ENDROOT
BRANCH   3   5
ATOM      5  C   UNL     1       1.329   8.273  20.626  0.00  0.00    +0.000 A 
ATOM      6  N   UNL     1       0.456   9.067  20.077  0.00  0.00    +0.000 NA
ATOM      7  C   UNL     1      -0.030  10.057  20.876  0.00  0.00    +0.000 A 
ATOM      8  N   UNL     1      -0.858  10.999  20.546  0.00  0.00    +0.000 NA
ATOM      9  C   UNL     1      -1.022  11.687  21.745  0.00  0.00    +0.000 A 
ATOM     10  N   UNL     1      -0.372  11.254  22.791  0.00  0.00    +0.000 NA
ATOM     11  C   UNL     1       0.313  10.190  22.291  0.00  0.00    +0.000 A 
ATOM     12  C   UNL     1       1.183   9.317  22.790  0.00  0.00    +0.000 A 
ATOM     13  N   UNL     1       1.719   8.377  21.944  0.00  0.00    +0.000 N 
ATOM     14  H   UNL     1       2.309   7.646  22.320  0.00  0.00    +0.000 HD
ENDBRANCH   3   5
BRANCH   1  19
ATOM     15  C   UNL     1       4.009   2.919  19.183  0.00  0.00    +0.000 A 
ATOM     16  C   UNL     1       2.925   2.117  18.858  0.00  0.00    +0.000 A 
ATOM     17  C   UNL     1       1.812   2.700  18.257  0.00  0.00    +0.000 A 
ATOM     18  C   UNL     1       1.803   4.071  17.983  0.00  0.00    +0.000 A 
ATOM     19  C   UNL     1       2.900   4.888  18.303  0.00  0.00    +0.000 A 
ATOM     20  C   UNL     1       4.001   4.284  18.919  0.00  0.00    +0.000 A 
BRANCH  15  21
ATOM     21  O   UNL     1       5.127   2.401  19.773  0.00  0.00    +0.000 OA
ATOM     22  H   UNL     1       5.763   3.122  19.920  0.00  0.00    +0.000 HD
ENDBRANCH  15  21
ENDBRANCH   1  19
BRANCH   2  23
ATOM     23  S   UNL     1       2.572   8.792  17.805  0.00  0.00    +0.000 S 
ATOM     24  H   UNL     1       3.894   8.628  17.646  0.00  0.00    +0.000 HD
ENDBRANCH   2  23
TORSDOF 4
ENDMDL
MODEL 7
REMARK VINA RESULT:      -6.8      4.119      5.395
REMARK  Name = 
REMARK  4 active torsions:
REMARK  status: ('A' for Active; 'I' for Inactive)
REMARK    1  A    between atoms: O_1  and  C_2
REMARK    2  A    between atoms: C_6  and  N_7
REMARK    3  A    between atoms: C_8  and  S_9
REMARK    4  A    between atoms: N_10  and  C_11
REMARK                            x       y       z     vdW  Elec       q    Type
REMARK                         _______ _______ _______ _____ _____    ______ ____
ROOT
ATOM      1  N   UNL     1       3.808   4.368  18.653  0.00  0.00    +0.000 N 
ATOM      2  C   UNL     1       2.948   5.386  18.976  0.00  0.00    +0.000 C 
ATOM      3  N   UNL     1       3.068   6.618  18.608  0.00  0.00    +0.000 NA
ATOM      4  H   UNL     1       3.546   3.470  19.035  0.00  0.00    +0.000 HD
ENDROOT
BRANCH   3   5
ATOM      5  C   UNL     1       2.231   7.629  18.962  0.00  0.00    +0.000 A 
ATOM      6  N   UNL     1       1.940   7.816  20.217  0.00  0.00    +0.000 NA
ATOM      7  C   UNL     1       1.133   8.880  20.485  0.00  0.00    +0.000 A 
ATOM      8  N   UNL     1       0.660   9.236  21.639  0.00  0.00    +0.000 NA
ATOM      9  C   UNL     1      -0.056  10.388  21.326  0.00  0.00    +0.000 A 
ATOM     10  N   UNL     1      -0.067  10.781  20.080  0.00  0.00    +0.000 NA
ATOM     11  C   UNL     1       0.685   9.828  19.466  0.00  0.00    +0.000 A 
ATOM     12  C   UNL     1       1.057   9.591  18.212  0.00  0.00    +0.000 A 
ATOM     13  N   UNL     1       1.804   8.468  17.956  0.00  0.00    +0.000 N 
ATOM     14  H   UNL     1       2.177   8.317  17.026  0.00  0.00    +0.000 HD
ENDBRANCH   3   5
BRANCH   1  19
ATOM     15  C   UNL     1       6.208   3.970  15.819  0.00  0.00    +0.000 A 
ATOM     16  C   UNL     1       7.385   4.422  16.398  0.00  0.00    +0.000 A 
ATOM     17  C   UNL     1       7.360   4.860  17.720  0.00  0.00    +0.000 A 
ATOM     18  C   UNL     1       6.164   4.832  18.444  0.00  0.00    +0.000 A 
ATOM     19  C   UNL     1       4.970   4.369  17.866  0.00  0.00    +0.000 A 
ATOM     20  C   UNL     1       5.015   3.949  16.533  0.00  0.00    +0.000 A 
BRANCH  15  21
ATOM     21  O   UNL     1       6.174   3.529  14.527  0.00  0.00    +0.000 OA
ATOM     22  H   UNL     1       5.349   3.837  14.115  0.00  0.00    +0.000 HD
ENDBRANCH  15  21
ENDBRANCH   1  19
BRANCH   2  23
ATOM     23  S   UNL     1       1.643   4.727  19.964  0.00  0.00    +0.000 S 
ATOM     24  H   UNL     1       2.231   3.535  20.150  0.00  0.00    +0.000 HD
ENDBRANCH   2  23
TORSDOF 4
ENDMDL
MODEL 8
REMARK VINA RESULT:      -6.8      4.194      5.257
REMARK  Name = 
REMARK  4 active torsions:
REMARK  status: ('A' for Active; 'I' for Inactive)
REMARK    1  A    between atoms: O_1  and  C_2
REMARK    2  A    between atoms: C_6  and  N_7
REMARK    3  A    between atoms: C_8  and  S_9
REMARK    4  A    between atoms: N_10  and  C_11
REMARK                            x       y       z     vdW  Elec       q    Type
REMARK                         _______ _______ _______ _____ _____    ______ ____
ROOT
ATOM      1  N   UNL     1       3.631   4.399  17.548  0.00  0.00    +0.000 N 
ATOM      2  C   UNL     1       2.817   5.359  18.093  0.00  0.00    +0.000 C 
ATOM      3  N   UNL     1       3.097   6.615  18.195  0.00  0.00    +0.000 NA
ATOM      4  H   UNL     1       3.237   3.469  17.556  0.00  0.00    +0.000 HD
ENDROOT
BRANCH   3   5
ATOM      5  C   UNL     1       2.300   7.554  18.769  0.00  0.00    +0.000 A 
ATOM      6  N   UNL     1       2.109   7.538  20.057  0.00  0.00    +0.000 NA
ATOM      7  C   UNL     1       1.336   8.544  20.553  0.00  0.00    +0.000 A 
ATOM      8  N   UNL     1       0.957   8.711  21.783  0.00  0.00    +0.000 NA
ATOM      9  C   UNL     1       0.229   9.895  21.713  0.00  0.00    +0.000 A 
ATOM     10  N   UNL     1       0.124  10.480  20.550  0.00  0.00    +0.000 NA
ATOM     11  C   UNL     1       0.818   9.639  19.735  0.00  0.00    +0.000 A 
ATOM     12  C   UNL     1       1.088   9.606  18.434  0.00  0.00    +0.000 A 
ATOM     13  N   UNL     1       1.802   8.540  17.945  0.00  0.00    +0.000 N 
ATOM     14  H   UNL     1       2.099   8.540  16.977  0.00  0.00    +0.000 HD
ENDBRANCH   3   5
BRANCH   1  19
ATOM     15  C   UNL     1       7.325   4.374  16.994  0.00  0.00    +0.000 A 
ATOM     16  C   UNL     1       7.400   4.767  15.666  0.00  0.00    +0.000 A 
ATOM     17  C   UNL     1       6.221   5.027  14.973  0.00  0.00    +0.000 A 
ATOM     18  C   UNL     1       4.987   4.897  15.618  0.00  0.00    +0.000 A 
ATOM     19  C   UNL     1       4.904   4.506  16.965  0.00  0.00    +0.000 A 
ATOM     20  C   UNL     1       6.100   4.236  17.637  0.00  0.00    +0.000 A 
BRANCH  15  21
ATOM     21  O   UNL     1       8.449   4.107  17.723  0.00  0.00    +0.000 OA
ATOM     22  H   UNL     1       9.189   4.616  17.351  0.00  0.00    +0.000 HD
ENDBRANCH  15  21
ENDBRANCH   1  19
BRANCH   2  23
ATOM     23  S   UNL     1       1.317   4.590  18.615  0.00  0.00    +0.000 S 
ATOM     24  H   UNL     1       0.601   5.725  18.619  0.00  0.00    +0.000 HD
ENDBRANCH   2  23
TORSDOF 4
ENDMDL
MODEL 9
REMARK VINA RESULT:      -6.8      1.215      1.618
REMARK  Name = 
REMARK  4 active torsions:
REMARK  status: ('A' for Active; 'I' for Inactive)
REMARK    1  A    between atoms: O_1  and  C_2
REMARK    2  A    between atoms: C_6  and  N_7
REMARK    3  A    between atoms: C_8  and  S_9
REMARK    4  A    between atoms: N_10  and  C_11
REMARK                            x       y       z     vdW  Elec       q    Type
REMARK                         _______ _______ _______ _____ _____    ______ ____
ROOT
ATOM      1  N   UNL     1       7.188   5.230  16.553  0.00  0.00    +0.000 N 
ATOM      2  C   UNL     1       6.445   4.831  17.635  0.00  0.00    +0.000 C 
ATOM      3  N   UNL     1       5.405   4.065  17.593  0.00  0.00    +0.000 NA
ATOM      4  H   UNL     1       7.967   5.829  16.786  0.00  0.00    +0.000 HD
ENDROOT
BRANCH   3   5
ATOM      5  C   UNL     1       4.652   3.704  18.665  0.00  0.00    +0.000 A 
ATOM      6  N   UNL     1       3.508   4.288  18.877  0.00  0.00    +0.000 NA
ATOM      7  C   UNL     1       2.798   3.831  19.945  0.00  0.00    +0.000 A 
ATOM      8  N   UNL     1       1.669   4.286  20.392  0.00  0.00    +0.000 NA
ATOM      9  C   UNL     1       1.403   3.432  21.459  0.00  0.00    +0.000 A 
ATOM     10  N   UNL     1       2.267   2.486  21.713  0.00  0.00    +0.000 NA
ATOM     11  C   UNL     1       3.219   2.695  20.764  0.00  0.00    +0.000 A 
ATOM     12  C   UNL     1       4.381   2.125  20.461  0.00  0.00    +0.000 A 
ATOM     13  N   UNL     1       5.116   2.656  19.429  0.00  0.00    +0.000 N 
ATOM     14  H   UNL     1       5.956   2.183  19.121  0.00  0.00    +0.000 HD
ENDBRANCH   3   5
BRANCH   1  19
ATOM     15  C   UNL     1       7.508   5.261  12.832  0.00  0.00    +0.000 A 
ATOM     16  C   UNL     1       6.688   4.197  12.484  0.00  0.00    +0.000 A 
ATOM     17  C   UNL     1       6.047   3.482  13.492  0.00  0.00    +0.000 A 
ATOM     18  C   UNL     1       6.230   3.843  14.830  0.00  0.00    +0.000 A 
ATOM     19  C   UNL     1       7.054   4.923  15.190  0.00  0.00    +0.000 A 
ATOM     20  C   UNL     1       7.698   5.618  14.162  0.00  0.00    +0.000 A 
BRANCH  15  21
ATOM     21  O   UNL     1       8.160   5.998  11.885  0.00  0.00    +0.000 OA
ATOM     22  H   UNL     1       7.522   6.254  11.197  0.00  0.00    +0.000 HD
ENDBRANCH  15  21
ENDBRANCH   1  19
BRANCH   2  23
ATOM     23  S   UNL     1       7.158   5.524  19.092  0.00  0.00    +0.000 S 
ATOM     24  H   UNL     1       6.428   6.650  19.053  0.00  0.00    +0.000 HD
ENDBRANCH   2  23
TORSDOF 4
ENDMDL
