MODEL 1
REMARK VINA RESULT:      -6.6      0.000      0.000
REMARK  Name = 
REMARK  4 active torsions:
REMARK  status: ('A' for Active; 'I' for Inactive)
REMARK    1  A    between atoms: C_1  and  N_2
REMARK    2  A    between atoms: C_5  and  C_6
REMARK    3  A    between atoms: C_9  and  O_10
REMARK    4  A    between atoms: N_14  and  C_15
REMARK                            x       y       z     vdW  Elec       q    Type
REMARK                         _______ _______ _______ _____ _____    ______ ____
ROOT
ATOM      1  C   UNL     1       1.664   5.953  21.014  0.00  0.00    +0.000 C 
ATOM      2  N   UNL     1       1.483   5.158  19.805  0.00  0.00    +0.000 NA
ATOM      3  C   UNL     1       0.978   3.868  20.130  0.00  0.00    +0.000 C 
ATOM      4  C   UNL     1       1.726   2.941  19.217  0.00  0.00    +0.000 C 
ATOM      5  C   UNL     1       2.529   3.604  17.975  0.00  0.00    +0.000 C 
ATOM      6  C   UNL     1       2.997   2.096  17.702  0.00  0.00    +0.000 C 
ATOM      7  C   UNL     1       3.861   4.152  17.208  0.00  0.00    +0.000 A 
ATOM      8  C   UNL     1       4.823   3.509  16.382  0.00  0.00    +0.000 A 
ATOM      9  C   UNL     1       5.704   4.233  15.572  0.00  0.00    +0.000 A 
ATOM     10  C   UNL     1       5.686   5.610  15.571  0.00  0.00    +0.000 A 
ATOM     11  C   UNL     1       4.805   6.273  16.422  0.00  0.00    +0.000 A 
ATOM     12  C   UNL     1       3.931   5.545  17.233  0.00  0.00    +0.000 A 
ATOM     13  N   UNL     1       3.057   6.057  18.143  0.00  0.00    +0.000 N 
ATOM     14  C   UNL     1       2.741   7.441  18.358  0.00  0.00    +0.000 C 
ATOM     15  C   UNL     1       2.701   4.941  19.012  0.00  0.00    +0.000 C 
ENDROOT
BRANCH   9  16
ATOM     16  O   UNL     1       6.588   3.606  14.749  0.00  0.00    +0.000 OA
ATOM     17  H   UNL     1       7.493   3.834  15.020  0.00  0.00    +0.000 HD
ENDBRANCH   9  16
TORSDOF 1
ENDMDL
MODEL 2
REMARK VINA RESULT:      -6.3      1.559      1.577
REMARK  Name = 
REMARK  4 active torsions:
REMARK  status: ('A' for Active; 'I' for Inactive)
REMARK    1  A    between atoms: C_1  and  N_2
REMARK    2  A    between atoms: C_5  and  C_6
REMARK    3  A    between atoms: C_9  and  O_10
REMARK    4  A    between atoms: N_14  and  C_15
REMARK                            x       y       z     vdW  Elec       q    Type
REMARK                         _______ _______ _______ _____ _____    ______ ____
ROOT
ATOM      1  C   UNL     1       1.469   7.235  20.837  0.00  0.00    +0.000 C 
ATOM      2  N   UNL     1       1.747   6.032  20.060  0.00  0.00    +0.000 NA
ATOM      3  C   UNL     1       1.525   4.870  20.851  0.00  0.00    +0.000 C 
ATOM      4  C   UNL     1       2.653   3.953  20.477  0.00  0.00    +0.000 C 
ATOM      5  C   UNL     1       3.503   4.318  19.146  0.00  0.00    +0.000 C 
ATOM      6  C   UNL     1       4.379   3.047  19.570  0.00  0.00    +0.000 C 
ATOM      7  C   UNL     1       4.783   4.927  18.337  0.00  0.00    +0.000 A 
ATOM      8  C   UNL     1       6.024   4.357  17.942  0.00  0.00    +0.000 A 
ATOM      9  C   UNL     1       6.842   4.962  16.982  0.00  0.00    +0.000 A 
ATOM     10  C   UNL     1       6.480   6.158  16.403  0.00  0.00    +0.000 A 
ATOM     11  C   UNL     1       5.305   6.779  16.820  0.00  0.00    +0.000 A 
ATOM     12  C   UNL     1       4.494   6.174  17.783  0.00  0.00    +0.000 A 
ATOM     13  N   UNL     1       3.352   6.688  18.317  0.00  0.00    +0.000 N 
ATOM     14  C   UNL     1       2.661   7.877  17.905  0.00  0.00    +0.000 C 
ATOM     15  C   UNL     1       3.116   5.927  19.538  0.00  0.00    +0.000 C 
ENDROOT
BRANCH   9  16
ATOM     16  O   UNL     1       8.005   4.384  16.577  0.00  0.00    +0.000 OA
ATOM     17  H   UNL     1       8.068   4.438  15.609  0.00  0.00    +0.000 HD
ENDBRANCH   9  16
TORSDOF 1
ENDMDL
MODEL 3
REMARK VINA RESULT:      -6.3      1.132      1.260
REMARK  Name = 
REMARK  4 active torsions:
REMARK  status: ('A' for Active; 'I' for Inactive)
REMARK    1  A    between atoms: C_1  and  N_2
REMARK    2  A    between atoms: C_5  and  C_6
REMARK    3  A    between atoms: C_9  and  O_10
REMARK    4  A    between atoms: N_14  and  C_15
REMARK                            x       y       z     vdW  Elec       q    Type
REMARK                         _______ _______ _______ _____ _____    ______ ____
ROOT
ATOM      1  C   UNL     1       2.094   4.119  21.628  0.00  0.00    +0.000 C 
ATOM      2  N   UNL     1       1.905   3.775  20.223  0.00  0.00    +0.000 NA
ATOM      3  C   UNL     1       1.747   2.368  20.074  0.00  0.00    +0.000 C 
ATOM      4  C   UNL     1       2.529   2.043  18.835  0.00  0.00    +0.000 C 
ATOM      5  C   UNL     1       2.969   3.278  17.883  0.00  0.00    +0.000 C 
ATOM      6  C   UNL     1       3.704   2.134  17.036  0.00  0.00    +0.000 C 
ATOM      7  C   UNL     1       4.016   4.382  17.293  0.00  0.00    +0.000 A 
ATOM      8  C   UNL     1       4.956   4.337  16.227  0.00  0.00    +0.000 A 
ATOM      9  C   UNL     1       5.523   5.498  15.693  0.00  0.00    +0.000 A 
ATOM     10  C   UNL     1       5.207   6.736  16.208  0.00  0.00    +0.000 A 
ATOM     11  C   UNL     1       4.345   6.811  17.299  0.00  0.00    +0.000 A 
ATOM     12  C   UNL     1       3.785   5.648  17.833  0.00  0.00    +0.000 A 
ATOM     13  N   UNL     1       2.972   5.568  18.923  0.00  0.00    +0.000 N 
ATOM     14  C   UNL     1       2.401   6.660  19.659  0.00  0.00    +0.000 C 
ATOM     15  C   UNL     1       3.004   4.168  19.331  0.00  0.00    +0.000 C 
ENDROOT
BRANCH   9  16
ATOM     16  O   UNL     1       6.384   5.446  14.641  0.00  0.00    +0.000 OA
ATOM     17  H   UNL     1       6.415   4.538  14.298  0.00  0.00    +0.000 HD
ENDBRANCH   9  16
TORSDOF 1
ENDMDL
MODEL 4
REMARK VINA RESULT:      -6.3      1.683      3.096
REMARK  Name = 
REMARK  4 active torsions:
REMARK  status: ('A' for Active; 'I' for Inactive)
REMARK    1  A    between atoms: C_1  and  N_2
REMARK    2  A    between atoms: C_5  and  C_6
REMARK    3  A    between atoms: C_9  and  O_10
REMARK    4  A    between atoms: N_14  and  C_15
REMARK                            x       y       z     vdW  Elec       q    Type
REMARK                         _______ _______ _______ _____ _____    ______ ____
ROOT
ATOM      1  C   UNL     1       0.611   2.046  18.916  0.00  0.00    +0.000 C 
ATOM      2  N   UNL     1       1.521   2.957  19.599  0.00  0.00    +0.000 NA
ATOM      3  C   UNL     1       0.793   3.862  20.421  0.00  0.00    +0.000 C 
ATOM      4  C   UNL     1       1.495   5.175  20.230  0.00  0.00    +0.000 C 
ATOM      5  C   UNL     1       2.959   5.145  19.535  0.00  0.00    +0.000 C 
ATOM      6  C   UNL     1       2.856   6.738  19.659  0.00  0.00    +0.000 C 
ATOM      7  C   UNL     1       4.001   5.312  18.290  0.00  0.00    +0.000 A 
ATOM      8  C   UNL     1       4.725   6.430  17.791  0.00  0.00    +0.000 A 
ATOM      9  C   UNL     1       5.803   6.279  16.913  0.00  0.00    +0.000 A 
ATOM     10  C   UNL     1       6.184   5.030  16.476  0.00  0.00    +0.000 A 
ATOM     11  C   UNL     1       5.452   3.920  16.889  0.00  0.00    +0.000 A 
ATOM     12  C   UNL     1       4.372   4.075  17.762  0.00  0.00    +0.000 A 
ATOM     13  N   UNL     1       3.542   3.091  18.205  0.00  0.00    +0.000 N 
ATOM     14  C   UNL     1       3.684   1.678  17.995  0.00  0.00    +0.000 C 
ATOM     15  C   UNL     1       2.362   3.778  18.718  0.00  0.00    +0.000 C 
ENDROOT
BRANCH   9  16
ATOM     16  O   UNL     1       6.519   7.352  16.480  0.00  0.00    +0.000 OA
ATOM     17  H   UNL     1       7.423   7.296  16.831  0.00  0.00    +0.000 HD
ENDBRANCH   9  16
TORSDOF 1
ENDMDL
MODEL 5
REMARK VINA RESULT:      -6.2      1.239      2.834
REMARK  Name = 
REMARK  4 active torsions:
REMARK  status: ('A' for Active; 'I' for Inactive)
REMARK    1  A    between atoms: C_1  and  N_2
REMARK    2  A    between atoms: C_5  and  C_6
REMARK    3  A    between atoms: C_9  and  O_10
REMARK    4  A    between atoms: N_14  and  C_15
REMARK                            x       y       z     vdW  Elec       q    Type
REMARK                         _______ _______ _______ _____ _____    ______ ____
ROOT
ATOM      1  C   UNL     1       1.041   3.240  20.325  0.00  0.00    +0.000 C 
ATOM      2  N   UNL     1       2.096   4.246  20.252  0.00  0.00    +0.000 NA
ATOM      3  C   UNL     1       1.586   5.525  20.610  0.00  0.00    +0.000 C 
ATOM      4  C   UNL     1       2.242   6.463  19.639  0.00  0.00    +0.000 C 
ATOM      5  C   UNL     1       3.507   5.901  18.795  0.00  0.00    +0.000 C 
ATOM      6  C   UNL     1       3.455   7.341  18.095  0.00  0.00    +0.000 C 
ATOM      7  C   UNL     1       4.238   5.287  17.471  0.00  0.00    +0.000 A 
ATOM      8  C   UNL     1       4.841   5.901  16.339  0.00  0.00    +0.000 A 
ATOM      9  C   UNL     1       5.687   5.195  15.479  0.00  0.00    +0.000 A 
ATOM     10  C   UNL     1       5.943   3.857  15.687  0.00  0.00    +0.000 A 
ATOM     11  C   UNL     1       5.311   3.207  16.744  0.00  0.00    +0.000 A 
ATOM     12  C   UNL     1       4.462   3.916  17.598  0.00  0.00    +0.000 A 
ATOM     13  N   UNL     1       3.744   3.402  18.635  0.00  0.00    +0.000 N 
ATOM     14  C   UNL     1       3.816   2.069  19.162  0.00  0.00    +0.000 C 
ATOM     15  C   UNL     1       2.722   4.399  18.932  0.00  0.00    +0.000 C 
ENDROOT
BRANCH   9  16
ATOM     16  O   UNL     1       6.297   5.804  14.427  0.00  0.00    +0.000 OA
ATOM     17  H   UNL     1       6.335   6.761  14.590  0.00  0.00    +0.000 HD
ENDBRANCH   9  16
TORSDOF 1
ENDMDL
MODEL 6
REMARK VINA RESULT:      -5.9      2.755      5.182
REMARK  Name = 
REMARK  4 active torsions:
REMARK  status: ('A' for Active; 'I' for Inactive)
REMARK    1  A    between atoms: C_1  and  N_2
REMARK    2  A    between atoms: C_5  and  C_6
REMARK    3  A    between atoms: C_9  and  O_10
REMARK    4  A    between atoms: N_14  and  C_15
REMARK                            x       y       z     vdW  Elec       q    Type
REMARK                         _______ _______ _______ _____ _____    ______ ____
ROOT
ATOM      1  C   UNL     1       5.547   6.653  16.718  0.00  0.00    +0.000 C 
ATOM      2  N   UNL     1       4.143   6.586  17.108  0.00  0.00    +0.000 NA
ATOM      3  C   UNL     1       3.652   7.885  17.416  0.00  0.00    +0.000 C 
ATOM      4  C   UNL     1       2.781   7.670  18.620  0.00  0.00    +0.000 C 
ATOM      5  C   UNL     1       2.362   6.146  18.976  0.00  0.00    +0.000 C 
ATOM      6  C   UNL     1       1.653   6.823  20.243  0.00  0.00    +0.000 C 
ATOM      7  C   UNL     1       2.478   4.740  19.797  0.00  0.00    +0.000 A 
ATOM      8  C   UNL     1       1.884   4.286  21.007  0.00  0.00    +0.000 A 
ATOM      9  C   UNL     1       1.872   2.933  21.361  0.00  0.00    +0.000 A 
ATOM     10  C   UNL     1       2.470   1.990  20.554  0.00  0.00    +0.000 A 
ATOM     11  C   UNL     1       3.123   2.410  19.399  0.00  0.00    +0.000 A 
ATOM     12  C   UNL     1       3.137   3.763  19.051  0.00  0.00    +0.000 A 
ATOM     13  N   UNL     1       3.775   4.318  17.984  0.00  0.00    +0.000 N 
ATOM     14  C   UNL     1       4.439   3.626  16.916  0.00  0.00    +0.000 C 
ATOM     15  C   UNL     1       3.859   5.743  18.278  0.00  0.00    +0.000 C 
ENDROOT
BRANCH   9  16
ATOM     16  O   UNL     1       1.259   2.504  22.497  0.00  0.00    +0.000 OA
ATOM     17  H   UNL     1       1.868   2.605  23.247  0.00  0.00    +0.000 HD
ENDBRANCH   9  16
TORSDOF 1
ENDMDL
MODEL 7
REMARK VINA RESULT:      -5.8      2.594      3.976
REMARK  Name = 
REMARK  4 active torsions:
REMARK  status: ('A' for Active; 'I' for Inactive)
REMARK    1  A    between atoms: C_1  and  N_2
REMARK    2  A    between atoms: C_5  and  C_6
REMARK    3  A    between atoms: C_9  and  O_10
REMARK    4  A    between atoms: N_14  and  C_15
REMARK                            x       y       z     vdW  Elec       q    Type
REMARK                         _______ _______ _______ _____ _____    ______ ____
ROOT
ATOM      1  C   UNL     1       3.702   1.541  18.907  0.00  0.00    +0.000 C 
ATOM      2  N   UNL     1       3.657   2.724  19.759  0.00  0.00    +0.000 NA
ATOM      3  C   UNL     1       2.751   2.523  20.838  0.00  0.00    +0.000 C 
ATOM      4  C   UNL     1       2.046   3.842  20.972  0.00  0.00    +0.000 C 
ATOM      5  C   UNL     1       2.694   5.117  20.210  0.00  0.00    +0.000 C 
ATOM      6  C   UNL     1       1.404   5.884  20.771  0.00  0.00    +0.000 C 
ATOM      7  C   UNL     1       2.811   6.205  19.000  0.00  0.00    +0.000 A 
ATOM      8  C   UNL     1       2.192   7.467  18.783  0.00  0.00    +0.000 A 
ATOM      9  C   UNL     1       2.676   8.374  17.836  0.00  0.00    +0.000 A 
ATOM     10  C   UNL     1       3.764   8.059  17.053  0.00  0.00    +0.000 A 
ATOM     11  C   UNL     1       4.350   6.803  17.188  0.00  0.00    +0.000 A 
ATOM     12  C   UNL     1       3.860   5.897  18.132  0.00  0.00    +0.000 A 
ATOM     13  N   UNL     1       4.300   4.625  18.338  0.00  0.00    +0.000 N 
ATOM     14  C   UNL     1       5.445   3.998  17.742  0.00  0.00    +0.000 C 
ATOM     15  C   UNL     1       3.239   3.962  19.087  0.00  0.00    +0.000 C 
ENDROOT
BRANCH   9  16
ATOM     16  O   UNL     1       2.105   9.598  17.671  0.00  0.00    +0.000 OA
ATOM     17  H   UNL     1       1.236   9.491  17.250  0.00  0.00    +0.000 HD
ENDBRANCH   9  16
TORSDOF 1
ENDMDL
MODEL 8
REMARK VINA RESULT:      -5.8      2.097      3.271
REMARK  Name = 
REMARK  4 active torsions:
REMARK  status: ('A' for Active; 'I' for Inactive)
REMARK    1  A    between atoms: C_1  and  N_2
REMARK    2  A    between atoms: C_5  and  C_6
REMARK    3  A    between atoms: C_9  and  O_10
REMARK    4  A    between atoms: N_14  and  C_15
REMARK                            x       y       z     vdW  Elec       q    Type
REMARK                         _______ _______ _______ _____ _____    ______ ____
ROOT
ATOM      1  C   UNL     1       1.486   2.129  19.778  0.00  0.00    +0.000 C 
ATOM      2  N   UNL     1       2.030   3.412  20.212  0.00  0.00    +0.000 NA
ATOM      3  C   UNL     1       0.979   4.343  20.441  0.00  0.00    +0.000 C 
ATOM      4  C   UNL     1       1.511   5.635  19.891  0.00  0.00    +0.000 C 
ATOM      5  C   UNL     1       3.098   5.716  19.576  0.00  0.00    +0.000 C 
ATOM      6  C   UNL     1       2.737   7.179  19.034  0.00  0.00    +0.000 C 
ATOM      7  C   UNL     1       4.411   5.684  18.607  0.00  0.00    +0.000 A 
ATOM      8  C   UNL     1       5.076   6.696  17.863  0.00  0.00    +0.000 A 
ATOM      9  C   UNL     1       6.366   6.512  17.355  0.00  0.00    +0.000 A 
ATOM     10  C   UNL     1       7.030   5.319  17.537  0.00  0.00    +0.000 A 
ATOM     11  C   UNL     1       6.379   4.281  18.199  0.00  0.00    +0.000 A 
ATOM     12  C   UNL     1       5.088   4.467  18.700  0.00  0.00    +0.000 A 
ATOM     13  N   UNL     1       4.318   3.531  19.320  0.00  0.00    +0.000 N 
ATOM     14  C   UNL     1       4.714   2.212  19.722  0.00  0.00    +0.000 C 
ATOM     15  C   UNL     1       2.956   4.050  19.267  0.00  0.00    +0.000 C 
ENDROOT
BRANCH   9  16
ATOM     16  O   UNL     1       7.012   7.505  16.686  0.00  0.00    +0.000 OA
ATOM     17  H   UNL     1       7.963   7.453  16.877  0.00  0.00    +0.000 HD
ENDBRANCH   9  16
TORSDOF 1
ENDMDL
MODEL 9
REMARK VINA RESULT:      -5.8      2.463      3.472
REMARK  Name = 
REMARK  4 active torsions:
REMARK  status: ('A' for Active; 'I' for Inactive)
REMARK    1  A    between atoms: C_1  and  N_2
REMARK    2  A    between atoms: C_5  and  C_6
REMARK    3  A    between atoms: C_9  and  O_10
REMARK    4  A    between atoms: N_14  and  C_15
REMARK                            x       y       z     vdW  Elec       q    Type
REMARK                         _______ _______ _______ _____ _____    ______ ____
ROOT
ATOM      1  C   UNL     1       2.202   1.924  18.563  0.00  0.00    +0.000 C 
ATOM      2  N   UNL     1       2.319   3.335  18.918  0.00  0.00    +0.000 NA
ATOM      3  C   UNL     1       1.169   4.052  18.484  0.00  0.00    +0.000 C 
ATOM      4  C   UNL     1       1.721   5.346  17.963  0.00  0.00    +0.000 C 
ATOM      5  C   UNL     1       3.253   5.712  18.344  0.00  0.00    +0.000 C 
ATOM      6  C   UNL     1       2.993   6.991  17.415  0.00  0.00    +0.000 C 
ATOM      7  C   UNL     1       4.855   5.831  18.053  0.00  0.00    +0.000 A 
ATOM      8  C   UNL     1       5.649   6.858  17.474  0.00  0.00    +0.000 A 
ATOM      9  C   UNL     1       7.040   6.881  17.611  0.00  0.00    +0.000 A 
ATOM     10  C   UNL     1       7.696   5.882  18.295  0.00  0.00    +0.000 A 
ATOM     11  C   UNL     1       6.955   4.823  18.814  0.00  0.00    +0.000 A 
ATOM     12  C   UNL     1       5.566   4.801  18.669  0.00  0.00    +0.000 A 
ATOM     13  N   UNL     1       4.726   3.811  19.079  0.00  0.00    +0.000 N 
ATOM     14  C   UNL     1       5.062   2.660  19.869  0.00  0.00    +0.000 C 
ATOM     15  C   UNL     1       3.482   4.027  18.348  0.00  0.00    +0.000 C 
ENDROOT
BRANCH   9  16
ATOM     16  O   UNL     1       7.786   7.895  17.094  0.00  0.00    +0.000 OA
ATOM     17  H   UNL     1       7.571   8.720  17.560  0.00  0.00    +0.000 HD
ENDBRANCH   9  16
TORSDOF 1
ENDMDL
