MODEL 1
REMARK VINA RESULT:      -7.9      0.000      0.000
REMARK  Name = 
REMARK  8 active torsions:
REMARK  status: ('A' for Active; 'I' for Inactive)
REMARK    1  A    between atoms: C_1  and  C_2
REMARK    2  A    between atoms: C_2  and  C_3
REMARK    3  A    between atoms: C_2  and  C_4
REMARK    4  A    between atoms: C_7  and  O_8
REMARK    5  A    between atoms: O_8  and  C_9
REMARK    6  A    between atoms: C_9  and  C_10
REMARK    7  A    between atoms: N_12  and  C_13
REMARK    8  A    between atoms: C_18  and  C_19
REMARK                            x       y       z     vdW  Elec       q    Type
REMARK                         _______ _______ _______ _____ _____    ______ ____
ROOT
ATOM      1  C   UNL     1       6.857   5.198  18.774  0.00  0.00    +0.000 C 
ATOM      2  O   UNL     1       7.677   5.871  19.413  0.00  0.00    +0.000 OA
ATOM      3  N   UNL     1       5.591   5.043  19.303  0.00  0.00    +0.000 N 
ATOM      4  H   UNL     1       5.508   5.296  20.285  0.00  0.00    +0.000 HD
ENDROOT
BRANCH   3   5
ATOM      5  C   UNL     1       4.553   4.305  18.727  0.00  0.00    +0.000 A 
ATOM      6  C   UNL     1       4.683   2.911  18.739  0.00  0.00    +0.000 A 
ATOM      7  C   UNL     1       3.658   2.111  18.244  0.00  0.00    +0.000 A 
ATOM      8  C   UNL     1       2.508   2.700  17.720  0.00  0.00    +0.000 A 
ATOM      9  C   UNL     1       2.383   4.089  17.655  0.00  0.00    +0.000 A 
ATOM     10  C   UNL     1       3.422   4.898  18.145  0.00  0.00    +0.000 A 
BRANCH  10  11
ATOM     11  C   UNL     1       3.346   6.358  17.918  0.00  0.00    +0.000 C 
ATOM     12  O   UNL     1       4.083   6.801  17.039  0.00  0.00    +0.000 OA
ATOM     13  N   UNL     1       2.429   7.137  18.624  0.00  0.00    +0.000 N 
ATOM     14  C   UNL     1       2.144   8.486  18.145  0.00  0.00    +0.000 C 
ATOM     15  C   UNL     1       1.797   9.489  19.250  0.00  0.00    +0.000 C 
ATOM     16  O   UNL     1       1.979   9.006  20.577  0.00  0.00    +0.000 OA
ATOM     17  C   UNL     1       1.434   7.719  20.841  0.00  0.00    +0.000 C 
ATOM     18  C   UNL     1       1.588   6.680  19.719  0.00  0.00    +0.000 C 
ENDBRANCH  10  11
ENDBRANCH   3   5
BRANCH   1  19
ATOM     19  C   UNL     1       7.207   4.584  17.393  0.00  0.00    +0.000 C 
BRANCH  19  20
ATOM     20  O   UNL     1       7.301   5.459  16.277  0.00  0.00    +0.000 OA
BRANCH  20  24
ATOM     21  C   UNL     1       5.966   3.836  12.652  0.00  0.00    +0.000 A 
ATOM     22  C   UNL     1       5.179   3.863  13.810  0.00  0.00    +0.000 A 
ATOM     23  C   UNL     1       5.652   4.464  14.982  0.00  0.00    +0.000 A 
ATOM     24  C   UNL     1       6.921   5.046  15.033  0.00  0.00    +0.000 A 
ATOM     25  C   UNL     1       7.659   5.130  13.857  0.00  0.00    +0.000 A 
ATOM     26  C   UNL     1       7.183   4.532  12.675  0.00  0.00    +0.000 A 
BRANCH  21  28
ATOM     27  C   UNL     1       6.021   1.586  11.502  0.00  0.00    +0.000 C 
ATOM     28  C   UNL     1       5.494   3.020  11.457  0.00  0.00    +0.000 C 
ATOM     29  C   UNL     1       3.974   3.028  11.262  0.00  0.00    +0.000 C 
ENDBRANCH  21  28
ENDBRANCH  20  24
ENDBRANCH  19  20
ENDBRANCH   1  19
TORSDOF 6
ENDMDL
MODEL 2
REMARK VINA RESULT:      -7.7      3.003      9.115
REMARK  Name = 
REMARK  8 active torsions:
REMARK  status: ('A' for Active; 'I' for Inactive)
REMARK    1  A    between atoms: C_1  and  C_2
REMARK    2  A    between atoms: C_2  and  C_3
REMARK    3  A    between atoms: C_2  and  C_4
REMARK    4  A    between atoms: C_7  and  O_8
REMARK    5  A    between atoms: O_8  and  C_9
REMARK    6  A    between atoms: C_9  and  C_10
REMARK    7  A    between atoms: N_12  and  C_13
REMARK    8  A    between atoms: C_18  and  C_19
REMARK                            x       y       z     vdW  Elec       q    Type
REMARK                         _______ _______ _______ _____ _____    ______ ____
ROOT
ATOM      1  C   UNL     1       2.210   7.528  19.190  0.00  0.00    +0.000 C 
ATOM      2  O   UNL     1       2.210   8.534  18.467  0.00  0.00    +0.000 OA
ATOM      3  N   UNL     1       2.551   6.318  18.619  0.00  0.00    +0.000 N 
ATOM      4  H   UNL     1       2.544   6.313  17.601  0.00  0.00    +0.000 HD
ENDROOT
BRANCH   3   5
ATOM      5  C   UNL     1       2.585   5.087  19.280  0.00  0.00    +0.000 A 
ATOM      6  C   UNL     1       1.396   4.655  19.879  0.00  0.00    +0.000 A 
ATOM      7  C   UNL     1       1.338   3.410  20.497  0.00  0.00    +0.000 A 
ATOM      8  C   UNL     1       2.472   2.599  20.532  0.00  0.00    +0.000 A 
ATOM      9  C   UNL     1       3.679   3.035  19.983  0.00  0.00    +0.000 A 
ATOM     10  C   UNL     1       3.741   4.297  19.368  0.00  0.00    +0.000 A 
BRANCH  10  11
ATOM     11  C   UNL     1       5.062   4.809  18.941  0.00  0.00    +0.000 C 
ATOM     12  O   UNL     1       5.703   5.413  19.800  0.00  0.00    +0.000 OA
ATOM     13  N   UNL     1       5.547   4.538  17.662  0.00  0.00    +0.000 N 
ATOM     14  C   UNL     1       6.963   4.757  17.391  0.00  0.00    +0.000 C 
ATOM     15  C   UNL     1       7.274   5.177  15.950  0.00  0.00    +0.000 C 
ATOM     16  O   UNL     1       6.132   5.463  15.150  0.00  0.00    +0.000 OA
ATOM     17  C   UNL     1       5.087   4.499  15.206  0.00  0.00    +0.000 C 
ATOM     18  C   UNL     1       4.805   3.893  16.590  0.00  0.00    +0.000 C 
ENDBRANCH  10  11
ENDBRANCH   3   5
BRANCH   1  19
ATOM     19  C   UNL     1       1.891   7.615  20.706  0.00  0.00    +0.000 C 
BRANCH  19  20
ATOM     20  O   UNL     1       0.539   7.814  21.094  0.00  0.00    +0.000 OA
BRANCH  20  24
ATOM     21  C   UNL     1      -1.184  11.465  22.217  0.00  0.00    +0.000 A 
ATOM     22  C   UNL     1      -0.833  10.472  23.140  0.00  0.00    +0.000 A 
ATOM     23  C   UNL     1      -0.212   9.291  22.719  0.00  0.00    +0.000 A 
ATOM     24  C   UNL     1       0.069   9.066  21.369  0.00  0.00    +0.000 A 
ATOM     25  C   UNL     1      -0.165  10.094  20.463  0.00  0.00    +0.000 A 
ATOM     26  C   UNL     1      -0.784  11.286  20.885  0.00  0.00    +0.000 A 
BRANCH  21  28
ATOM     27  C   UNL     1      -3.181  12.211  23.575  0.00  0.00    +0.000 C 
ATOM     28  C   UNL     1      -2.016  12.650  22.686  0.00  0.00    +0.000 C 
ATOM     29  C   UNL     1      -1.199  13.749  23.373  0.00  0.00    +0.000 C 
ENDBRANCH  21  28
ENDBRANCH  20  24
ENDBRANCH  19  20
ENDBRANCH   1  19
TORSDOF 6
ENDMDL
MODEL 3
REMARK VINA RESULT:      -7.5      4.166      6.700
REMARK  Name = 
REMARK  8 active torsions:
REMARK  status: ('A' for Active; 'I' for Inactive)
REMARK    1  A    between atoms: C_1  and  C_2
REMARK    2  A    between atoms: C_2  and  C_3
REMARK    3  A    between atoms: C_2  and  C_4
REMARK    4  A    between atoms: C_7  and  O_8
REMARK    5  A    between atoms: O_8  and  C_9
REMARK    6  A    between atoms: C_9  and  C_10
REMARK    7  A    between atoms: N_12  and  C_13
REMARK    8  A    between atoms: C_18  and  C_19
REMARK                            x       y       z     vdW  Elec       q    Type
REMARK                         _______ _______ _______ _____ _____    ______ ____
ROOT
ATOM      1  C   UNL     1       7.459   5.667  19.159  0.00  0.00    +0.000 C 
ATOM      2  O   UNL     1       7.782   5.493  20.342  0.00  0.00    +0.000 OA
ATOM      3  N   UNL     1       6.808   4.639  18.506  0.00  0.00    +0.000 N 
ATOM      4  H   UNL     1       6.857   3.739  18.978  0.00  0.00    +0.000 HD
ENDROOT
BRANCH   3   5
ATOM      5  C   UNL     1       6.390   4.658  17.172  0.00  0.00    +0.000 A 
ATOM      6  C   UNL     1       7.384   4.543  16.194  0.00  0.00    +0.000 A 
ATOM      7  C   UNL     1       7.036   4.487  14.848  0.00  0.00    +0.000 A 
ATOM      8  C   UNL     1       5.695   4.562  14.474  0.00  0.00    +0.000 A 
ATOM      9  C   UNL     1       4.694   4.726  15.434  0.00  0.00    +0.000 A 
ATOM     10  C   UNL     1       5.046   4.794  16.793  0.00  0.00    +0.000 A 
BRANCH  10  11
ATOM     11  C   UNL     1       3.995   5.132  17.777  0.00  0.00    +0.000 C 
ATOM     12  O   UNL     1       4.012   6.287  18.202  0.00  0.00    +0.000 OA
ATOM     13  N   UNL     1       3.018   4.198  18.120  0.00  0.00    +0.000 N 
ATOM     14  C   UNL     1       1.822   4.661  18.816  0.00  0.00    +0.000 C 
ATOM     15  C   UNL     1       1.217   3.636  19.782  0.00  0.00    +0.000 C 
ATOM     16  O   UNL     1       2.004   2.469  19.988  0.00  0.00    +0.000 OA
ATOM     17  C   UNL     1       2.505   1.852  18.809  0.00  0.00    +0.000 C 
ATOM     18  C   UNL     1       2.990   2.804  17.705  0.00  0.00    +0.000 C 
ENDBRANCH  10  11
ENDBRANCH   3   5
BRANCH   1  19
ATOM     19  C   UNL     1       7.723   7.011  18.432  0.00  0.00    +0.000 C 
BRANCH  19  20
ATOM     20  O   UNL     1       8.835   7.790  18.850  0.00  0.00    +0.000 OA
BRANCH  20  24
ATOM     21  C   UNL     1       8.736  11.931  18.217  0.00  0.00    +0.000 A 
ATOM     22  C   UNL     1       7.970  11.028  17.471  0.00  0.00    +0.000 A 
ATOM     23  C   UNL     1       7.999   9.658  17.756  0.00  0.00    +0.000 A 
ATOM     24  C   UNL     1       8.796   9.153  18.786  0.00  0.00    +0.000 A 
ATOM     25  C   UNL     1       9.466  10.053  19.608  0.00  0.00    +0.000 A 
ATOM     26  C   UNL     1       9.433  11.432  19.327  0.00  0.00    +0.000 A 
BRANCH  21  28
ATOM     27  C   UNL     1       7.432  14.011  17.614  0.00  0.00    +0.000 C 
ATOM     28  C   UNL     1       8.817  13.382  17.764  0.00  0.00    +0.000 C 
ATOM     29  C   UNL     1       9.713  14.258  18.646  0.00  0.00    +0.000 C 
ENDBRANCH  21  28
ENDBRANCH  20  24
ENDBRANCH  19  20
ENDBRANCH   1  19
TORSDOF 6
ENDMDL
MODEL 4
REMARK VINA RESULT:      -7.4      2.740      8.840
REMARK  Name = 
REMARK  8 active torsions:
REMARK  status: ('A' for Active; 'I' for Inactive)
REMARK    1  A    between atoms: C_1  and  C_2
REMARK    2  A    between atoms: C_2  and  C_3
REMARK    3  A    between atoms: C_2  and  C_4
REMARK    4  A    between atoms: C_7  and  O_8
REMARK    5  A    between atoms: O_8  and  C_9
REMARK    6  A    between atoms: C_9  and  C_10
REMARK    7  A    between atoms: N_12  and  C_13
REMARK    8  A    between atoms: C_18  and  C_19
REMARK                            x       y       z     vdW  Elec       q    Type
REMARK                         _______ _______ _______ _____ _____    ______ ____
ROOT
ATOM      1  C   UNL     1       2.239   7.357  18.689  0.00  0.00    +0.000 C 
ATOM      2  O   UNL     1       2.181   8.273  17.857  0.00  0.00    +0.000 OA
ATOM      3  N   UNL     1       2.425   6.069  18.226  0.00  0.00    +0.000 N 
ATOM      4  H   UNL     1       2.263   5.950  17.229  0.00  0.00    +0.000 HD
ENDROOT
BRANCH   3   5
ATOM      5  C   UNL     1       2.496   4.921  19.020  0.00  0.00    +0.000 A 
ATOM      6  C   UNL     1       1.299   4.464  19.582  0.00  0.00    +0.000 A 
ATOM      7  C   UNL     1       1.282   3.290  20.328  0.00  0.00    +0.000 A 
ATOM      8  C   UNL     1       2.464   2.578  20.529  0.00  0.00    +0.000 A 
ATOM      9  C   UNL     1       3.675   3.046  20.018  0.00  0.00    +0.000 A 
ATOM     10  C   UNL     1       3.695   4.238  19.273  0.00  0.00    +0.000 A 
BRANCH  10  11
ATOM     11  C   UNL     1       5.005   4.803  18.882  0.00  0.00    +0.000 C 
ATOM     12  O   UNL     1       5.599   5.430  19.758  0.00  0.00    +0.000 OA
ATOM     13  N   UNL     1       5.533   4.556  17.615  0.00  0.00    +0.000 N 
ATOM     14  C   UNL     1       6.946   4.832  17.381  0.00  0.00    +0.000 C 
ATOM     15  C   UNL     1       7.277   5.269  15.950  0.00  0.00    +0.000 C 
ATOM     16  O   UNL     1       6.146   5.512  15.121  0.00  0.00    +0.000 OA
ATOM     17  C   UNL     1       5.139   4.507  15.148  0.00  0.00    +0.000 C 
ATOM     18  C   UNL     1       4.845   3.885  16.522  0.00  0.00    +0.000 C 
ENDBRANCH  10  11
ENDBRANCH   3   5
BRANCH   1  19
ATOM     19  C   UNL     1       2.161   7.636  20.213  0.00  0.00    +0.000 C 
BRANCH  19  20
ATOM     20  O   UNL     1       0.892   7.540  20.846  0.00  0.00    +0.000 OA
BRANCH  20  24
ATOM     21  C   UNL     1      -0.671  11.167  22.244  0.00  0.00    +0.000 A 
ATOM     22  C   UNL     1      -0.405  10.923  20.891  0.00  0.00    +0.000 A 
ATOM     23  C   UNL     1       0.068   9.676  20.468  0.00  0.00    +0.000 A 
ATOM     24  C   UNL     1       0.294   8.643  21.382  0.00  0.00    +0.000 A 
ATOM     25  C   UNL     1      -0.079   8.838  22.707  0.00  0.00    +0.000 A 
ATOM     26  C   UNL     1      -0.562  10.089  23.133  0.00  0.00    +0.000 A 
BRANCH  21  28
ATOM     27  C   UNL     1      -0.125  13.623  21.997  0.00  0.00    +0.000 C 
ATOM     28  C   UNL     1      -1.010  12.584  22.686  0.00  0.00    +0.000 C 
ATOM     29  C   UNL     1      -2.490  12.946  22.527  0.00  0.00    +0.000 C 
ENDBRANCH  21  28
ENDBRANCH  20  24
ENDBRANCH  19  20
ENDBRANCH   1  19
TORSDOF 6
ENDMDL
MODEL 5
REMARK VINA RESULT:      -7.3      4.140      6.690
REMARK  Name = 
REMARK  8 active torsions:
REMARK  status: ('A' for Active; 'I' for Inactive)
REMARK    1  A    between atoms: C_1  and  C_2
REMARK    2  A    between atoms: C_2  and  C_3
REMARK    3  A    between atoms: C_2  and  C_4
REMARK    4  A    between atoms: C_7  and  O_8
REMARK    5  A    between atoms: O_8  and  C_9
REMARK    6  A    between atoms: C_9  and  C_10
REMARK    7  A    between atoms: N_12  and  C_13
REMARK    8  A    between atoms: C_18  and  C_19
REMARK                            x       y       z     vdW  Elec       q    Type
REMARK                         _______ _______ _______ _____ _____    ______ ____
ROOT
ATOM      1  C   UNL     1       7.564   5.682  19.167  0.00  0.00    +0.000 C 
ATOM      2  O   UNL     1       7.903   5.499  20.344  0.00  0.00    +0.000 OA
ATOM      3  N   UNL     1       6.866   4.677  18.527  0.00  0.00    +0.000 N 
ATOM      4  H   UNL     1       6.895   3.776  18.998  0.00  0.00    +0.000 HD
ENDROOT
BRANCH   3   5
ATOM      5  C   UNL     1       6.424   4.710  17.202  0.00  0.00    +0.000 A 
ATOM      6  C   UNL     1       7.374   4.445  16.209  0.00  0.00    +0.000 A 
ATOM      7  C   UNL     1       6.992   4.394  14.872  0.00  0.00    +0.000 A 
ATOM      8  C   UNL     1       5.662   4.624  14.521  0.00  0.00    +0.000 A 
ATOM      9  C   UNL     1       4.711   4.938  15.494  0.00  0.00    +0.000 A 
ATOM     10  C   UNL     1       5.099   5.000  16.843  0.00  0.00    +0.000 A 
BRANCH  10  11
ATOM     11  C   UNL     1       4.120   5.494  17.836  0.00  0.00    +0.000 C 
ATOM     12  O   UNL     1       4.014   6.717  17.919  0.00  0.00    +0.000 OA
ATOM     13  N   UNL     1       3.331   4.600  18.559  0.00  0.00    +0.000 N 
ATOM     14  C   UNL     1       2.162   5.112  19.265  0.00  0.00    +0.000 C 
ATOM     15  C   UNL     1       1.817   4.354  20.551  0.00  0.00    +0.000 C 
ATOM     16  O   UNL     1       2.783   3.390  20.956  0.00  0.00    +0.000 OA
ATOM     17  C   UNL     1       3.241   2.514  19.933  0.00  0.00    +0.000 C 
ATOM     18  C   UNL     1       3.463   3.151  18.552  0.00  0.00    +0.000 C 
ENDBRANCH  10  11
ENDBRANCH   3   5
BRANCH   1  19
ATOM     19  C   UNL     1       7.858   7.018  18.434  0.00  0.00    +0.000 C 
BRANCH  19  20
ATOM     20  O   UNL     1       8.736   7.944  19.058  0.00  0.00    +0.000 OA
BRANCH  20  24
ATOM     21  C   UNL     1       8.793  12.066  18.310  0.00  0.00    +0.000 A 
ATOM     22  C   UNL     1       9.597  11.457  19.281  0.00  0.00    +0.000 A 
ATOM     23  C   UNL     1       9.579  10.069  19.457  0.00  0.00    +0.000 A 
ATOM     24  C   UNL     1       8.757   9.254  18.675  0.00  0.00    +0.000 A 
ATOM     25  C   UNL     1       8.047   9.836  17.630  0.00  0.00    +0.000 A 
ATOM     26  C   UNL     1       8.068  11.231  17.447  0.00  0.00    +0.000 A 
BRANCH  21  28
ATOM     27  C   UNL     1       7.383  14.064  17.670  0.00  0.00    +0.000 C 
ATOM     28  C   UNL     1       8.704  13.585  18.271  0.00  0.00    +0.000 C 
ATOM     29  C   UNL     1       8.954  14.256  19.625  0.00  0.00    +0.000 C 
ENDBRANCH  21  28
ENDBRANCH  20  24
ENDBRANCH  19  20
ENDBRANCH   1  19
TORSDOF 6
ENDMDL
MODEL 6
REMARK VINA RESULT:      -7.3      1.229      1.645
REMARK  Name = 
REMARK  8 active torsions:
REMARK  status: ('A' for Active; 'I' for Inactive)
REMARK    1  A    between atoms: C_1  and  C_2
REMARK    2  A    between atoms: C_2  and  C_3
REMARK    3  A    between atoms: C_2  and  C_4
REMARK    4  A    between atoms: C_7  and  O_8
REMARK    5  A    between atoms: O_8  and  C_9
REMARK    6  A    between atoms: C_9  and  C_10
REMARK    7  A    between atoms: N_12  and  C_13
REMARK    8  A    between atoms: C_18  and  C_19
REMARK                            x       y       z     vdW  Elec       q    Type
REMARK                         _______ _______ _______ _____ _____    ______ ____
ROOT
ATOM      1  C   UNL     1       5.890   5.147  19.170  0.00  0.00    +0.000 C 
ATOM      2  O   UNL     1       6.789   5.580  19.905  0.00  0.00    +0.000 OA
ATOM      3  N   UNL     1       4.901   4.371  19.740  0.00  0.00    +0.000 N 
ATOM      4  H   UNL     1       5.119   4.023  20.671  0.00  0.00    +0.000 HD
ENDROOT
BRANCH   3   5
ATOM      5  C   UNL     1       3.828   3.791  19.059  0.00  0.00    +0.000 A 
ATOM      6  C   UNL     1       4.134   2.798  18.120  0.00  0.00    +0.000 A 
ATOM      7  C   UNL     1       3.113   2.129  17.453  0.00  0.00    +0.000 A 
ATOM      8  C   UNL     1       1.783   2.461  17.708  0.00  0.00    +0.000 A 
ATOM      9  C   UNL     1       1.461   3.483  18.604  0.00  0.00    +0.000 A 
ATOM     10  C   UNL     1       2.492   4.166  19.270  0.00  0.00    +0.000 A 
BRANCH  10  11
ATOM     11  C   UNL     1       2.142   5.349  20.086  0.00  0.00    +0.000 C 
ATOM     12  O   UNL     1       1.804   5.117  21.246  0.00  0.00    +0.000 OA
ATOM     13  N   UNL     1       2.271   6.635  19.561  0.00  0.00    +0.000 N 
ATOM     14  C   UNL     1       2.247   7.769  20.478  0.00  0.00    +0.000 C 
ATOM     15  C   UNL     1       1.649   9.050  19.884  0.00  0.00    +0.000 C 
ATOM     16  O   UNL     1       1.049   8.893  18.603  0.00  0.00    +0.000 OA
ATOM     17  C   UNL     1       1.822   8.178  17.647  0.00  0.00    +0.000 C 
ATOM     18  C   UNL     1       2.596   6.962  18.182  0.00  0.00    +0.000 C 
ENDBRANCH  10  11
ENDBRANCH   3   5
BRANCH   1  19
ATOM     19  C   UNL     1       5.833   5.502  17.661  0.00  0.00    +0.000 C 
BRANCH  19  20
ATOM     20  O   UNL     1       6.843   4.976  16.812  0.00  0.00    +0.000 OA
BRANCH  20  24
ATOM     21  C   UNL     1       5.864   3.814  12.907  0.00  0.00    +0.000 A 
ATOM     22  C   UNL     1       4.968   3.715  13.979  0.00  0.00    +0.000 A 
ATOM     23  C   UNL     1       5.326   4.165  15.254  0.00  0.00    +0.000 A 
ATOM     24  C   UNL     1       6.586   4.719  15.496  0.00  0.00    +0.000 A 
ATOM     25  C   UNL     1       7.435   4.931  14.416  0.00  0.00    +0.000 A 
ATOM     26  C   UNL     1       7.075   4.485  13.130  0.00  0.00    +0.000 A 
BRANCH  21  28
ATOM     27  C   UNL     1       5.978   1.698  11.529  0.00  0.00    +0.000 C 
ATOM     28  C   UNL     1       5.509   3.152  11.583  0.00  0.00    +0.000 C 
ATOM     29  C   UNL     1       4.024   3.252  11.218  0.00  0.00    +0.000 C 
ENDBRANCH  21  28
ENDBRANCH  20  24
ENDBRANCH  19  20
ENDBRANCH   1  19
TORSDOF 6
ENDMDL
MODEL 7
REMARK VINA RESULT:      -7.1      4.487      7.512
REMARK  Name = 
REMARK  8 active torsions:
REMARK  status: ('A' for Active; 'I' for Inactive)
REMARK    1  A    between atoms: C_1  and  C_2
REMARK    2  A    between atoms: C_2  and  C_3
REMARK    3  A    between atoms: C_2  and  C_4
REMARK    4  A    between atoms: C_7  and  O_8
REMARK    5  A    between atoms: O_8  and  C_9
REMARK    6  A    between atoms: C_9  and  C_10
REMARK    7  A    between atoms: N_12  and  C_13
REMARK    8  A    between atoms: C_18  and  C_19
REMARK                            x       y       z     vdW  Elec       q    Type
REMARK                         _______ _______ _______ _____ _____    ______ ____
ROOT
ATOM      1  C   UNL     1       6.593   6.584  16.705  0.00  0.00    +0.000 C 
ATOM      2  O   UNL     1       7.371   6.022  15.923  0.00  0.00    +0.000 OA
ATOM      3  N   UNL     1       5.271   6.185  16.707  0.00  0.00    +0.000 N 
ATOM      4  H   UNL     1       4.996   5.627  15.901  0.00  0.00    +0.000 HD
ENDROOT
BRANCH   3   5
ATOM      5  C   UNL     1       4.259   6.721  17.508  0.00  0.00    +0.000 A 
ATOM      6  C   UNL     1       3.720   7.951  17.111  0.00  0.00    +0.000 A 
ATOM      7  C   UNL     1       2.665   8.512  17.822  0.00  0.00    +0.000 A 
ATOM      8  C   UNL     1       2.155   7.856  18.941  0.00  0.00    +0.000 A 
ATOM      9  C   UNL     1       2.713   6.654  19.381  0.00  0.00    +0.000 A 
ATOM     10  C   UNL     1       3.786   6.092  18.669  0.00  0.00    +0.000 A 
BRANCH  10  11
ATOM     11  C   UNL     1       4.469   4.911  19.241  0.00  0.00    +0.000 C 
ATOM     12  O   UNL     1       5.554   5.129  19.778  0.00  0.00    +0.000 OA
ATOM     13  N   UNL     1       3.855   3.658  19.220  0.00  0.00    +0.000 N 
ATOM     14  C   UNL     1       4.389   2.605  20.076  0.00  0.00    +0.000 C 
ATOM     15  C   UNL     1       4.233   1.189  19.508  0.00  0.00    +0.000 C 
ATOM     16  O   UNL     1       3.760   1.130  18.167  0.00  0.00    +0.000 OA
ATOM     17  C   UNL     1       2.628   1.943  17.880  0.00  0.00    +0.000 C 
ATOM     18  C   UNL     1       2.612   3.331  18.539  0.00  0.00    +0.000 C 
ENDBRANCH  10  11
ENDBRANCH   3   5
BRANCH   1  19
ATOM     19  C   UNL     1       7.082   7.671  17.699  0.00  0.00    +0.000 C 
BRANCH  19  20
ATOM     20  O   UNL     1       8.044   8.610  17.243  0.00  0.00    +0.000 OA
BRANCH  20  24
ATOM     21  C   UNL     1       9.494  11.924  19.358  0.00  0.00    +0.000 A 
ATOM     22  C   UNL     1       8.800  12.037  18.146  0.00  0.00    +0.000 A 
ATOM     23  C   UNL     1       8.291  10.903  17.505  0.00  0.00    +0.000 A 
ATOM     24  C   UNL     1       8.464   9.628  18.050  0.00  0.00    +0.000 A 
ATOM     25  C   UNL     1       9.044   9.518  19.309  0.00  0.00    +0.000 A 
ATOM     26  C   UNL     1       9.552  10.659  19.959  0.00  0.00    +0.000 A 
BRANCH  21  28
ATOM     27  C   UNL     1       9.855  14.416  19.135  0.00  0.00    +0.000 C 
ATOM     28  C   UNL     1      10.186  13.153  19.931  0.00  0.00    +0.000 C 
ATOM     29  C   UNL     1       9.924  13.373  21.424  0.00  0.00    +0.000 C 
ENDBRANCH  21  28
ENDBRANCH  20  24
ENDBRANCH  19  20
ENDBRANCH   1  19
TORSDOF 6
ENDMDL
MODEL 8
REMARK VINA RESULT:      -7.0      4.416      7.065
REMARK  Name = 
REMARK  8 active torsions:
REMARK  status: ('A' for Active; 'I' for Inactive)
REMARK    1  A    between atoms: C_1  and  C_2
REMARK    2  A    between atoms: C_2  and  C_3
REMARK    3  A    between atoms: C_2  and  C_4
REMARK    4  A    between atoms: C_7  and  O_8
REMARK    5  A    between atoms: O_8  and  C_9
REMARK    6  A    between atoms: C_9  and  C_10
REMARK    7  A    between atoms: N_12  and  C_13
REMARK    8  A    between atoms: C_18  and  C_19
REMARK                            x       y       z     vdW  Elec       q    Type
REMARK                         _______ _______ _______ _____ _____    ______ ____
ROOT
ATOM      1  C   UNL     1       7.638   6.161  18.369  0.00  0.00    +0.000 C 
ATOM      2  O   UNL     1       8.030   6.180  19.543  0.00  0.00    +0.000 OA
ATOM      3  N   UNL     1       6.964   5.040  17.926  0.00  0.00    +0.000 N 
ATOM      4  H   UNL     1       7.052   4.226  18.531  0.00  0.00    +0.000 HD
ENDROOT
BRANCH   3   5
ATOM      5  C   UNL     1       6.470   4.844  16.634  0.00  0.00    +0.000 A 
ATOM      6  C   UNL     1       7.414   4.693  15.610  0.00  0.00    +0.000 A 
ATOM      7  C   UNL     1       6.996   4.428  14.310  0.00  0.00    +0.000 A 
ATOM      8  C   UNL     1       5.635   4.329  14.024  0.00  0.00    +0.000 A 
ATOM      9  C   UNL     1       4.679   4.526  15.023  0.00  0.00    +0.000 A 
ATOM     10  C   UNL     1       5.100   4.804  16.335  0.00  0.00    +0.000 A 
BRANCH  10  11
ATOM     11  C   UNL     1       4.079   5.171  17.340  0.00  0.00    +0.000 C 
ATOM     12  O   UNL     1       4.041   6.360  17.653  0.00  0.00    +0.000 OA
ATOM     13  N   UNL     1       3.183   4.217  17.821  0.00  0.00    +0.000 N 
ATOM     14  C   UNL     1       1.996   4.671  18.536  0.00  0.00    +0.000 C 
ATOM     15  C   UNL     1       1.506   3.709  19.625  0.00  0.00    +0.000 C 
ATOM     16  O   UNL     1       2.378   2.617  19.895  0.00  0.00    +0.000 OA
ATOM     17  C   UNL     1       2.860   1.921  18.752  0.00  0.00    +0.000 C 
ATOM     18  C   UNL     1       3.227   2.790  17.539  0.00  0.00    +0.000 C 
ENDBRANCH  10  11
ENDBRANCH   3   5
BRANCH   1  19
ATOM     19  C   UNL     1       7.842   7.374  17.423  0.00  0.00    +0.000 C 
BRANCH  19  20
ATOM     20  O   UNL     1       7.301   8.627  17.817  0.00  0.00    +0.000 OA
BRANCH  20  24
ATOM     21  C   UNL     1       9.740  11.819  19.008  0.00  0.00    +0.000 A 
ATOM     22  C   UNL     1       9.799  10.551  19.601  0.00  0.00    +0.000 A 
ATOM     23  C   UNL     1       9.000   9.503  19.132  0.00  0.00    +0.000 A 
ATOM     24  C   UNL     1       8.117   9.692  18.066  0.00  0.00    +0.000 A 
ATOM     25  C   UNL     1       8.139  10.910  17.395  0.00  0.00    +0.000 A 
ATOM     26  C   UNL     1       8.947  11.964  17.861  0.00  0.00    +0.000 A 
BRANCH  21  28
ATOM     27  C   UNL     1      10.129  14.316  19.018  0.00  0.00    +0.000 C 
ATOM     28  C   UNL     1      10.487  12.975  19.658  0.00  0.00    +0.000 C 
ATOM     29  C   UNL     1      10.322  13.043  21.179  0.00  0.00    +0.000 C 
ENDBRANCH  21  28
ENDBRANCH  20  24
ENDBRANCH  19  20
ENDBRANCH   1  19
TORSDOF 6
ENDMDL
MODEL 9
REMARK VINA RESULT:      -7.0      3.131      9.227
REMARK  Name = 
REMARK  8 active torsions:
REMARK  status: ('A' for Active; 'I' for Inactive)
REMARK    1  A    between atoms: C_1  and  C_2
REMARK    2  A    between atoms: C_2  and  C_3
REMARK    3  A    between atoms: C_2  and  C_4
REMARK    4  A    between atoms: C_7  and  O_8
REMARK    5  A    between atoms: O_8  and  C_9
REMARK    6  A    between atoms: C_9  and  C_10
REMARK    7  A    between atoms: N_12  and  C_13
REMARK    8  A    between atoms: C_18  and  C_19
REMARK                            x       y       z     vdW  Elec       q    Type
REMARK                         _______ _______ _______ _____ _____    ______ ____
ROOT
ATOM      1  C   UNL     1       2.107   7.555  19.246  0.00  0.00    +0.000 C 
ATOM      2  O   UNL     1       2.136   8.563  18.527  0.00  0.00    +0.000 OA
ATOM      3  N   UNL     1       2.733   6.412  18.789  0.00  0.00    +0.000 N 
ATOM      4  H   UNL     1       2.961   6.422  17.798  0.00  0.00    +0.000 HD
ENDROOT
BRANCH   3   5
ATOM      5  C   UNL     1       2.782   5.187  19.460  0.00  0.00    +0.000 A 
ATOM      6  C   UNL     1       2.348   5.175  20.791  0.00  0.00    +0.000 A 
ATOM      7  C   UNL     1       2.307   3.978  21.500  0.00  0.00    +0.000 A 
ATOM      8  C   UNL     1       2.714   2.794  20.888  0.00  0.00    +0.000 A 
ATOM      9  C   UNL     1       3.197   2.796  19.578  0.00  0.00    +0.000 A 
ATOM     10  C   UNL     1       3.249   4.006  18.864  0.00  0.00    +0.000 A 
BRANCH  10  11
ATOM     11  C   UNL     1       3.914   4.017  17.543  0.00  0.00    +0.000 C 
ATOM     12  O   UNL     1       3.271   3.525  16.617  0.00  0.00    +0.000 OA
ATOM     13  N   UNL     1       5.160   4.622  17.382  0.00  0.00    +0.000 N 
ATOM     14  C   UNL     1       5.626   4.914  16.031  0.00  0.00    +0.000 C 
ATOM     15  C   UNL     1       7.147   4.842  15.857  0.00  0.00    +0.000 C 
ATOM     16  O   UNL     1       7.856   4.332  16.981  0.00  0.00    +0.000 OA
ATOM     17  C   UNL     1       7.492   4.890  18.238  0.00  0.00    +0.000 C 
ATOM     18  C   UNL     1       5.993   5.152  18.450  0.00  0.00    +0.000 C 
ENDBRANCH  10  11
ENDBRANCH   3   5
BRANCH   1  19
ATOM     19  C   UNL     1       1.440   7.573  20.647  0.00  0.00    +0.000 C 
BRANCH  19  20
ATOM     20  O   UNL     1       1.676   8.695  21.486  0.00  0.00    +0.000 OA
BRANCH  20  24
ATOM     21  C   UNL     1      -1.201  11.594  22.419  0.00  0.00    +0.000 A 
ATOM     22  C   UNL     1      -0.486  11.591  21.216  0.00  0.00    +0.000 A 
ATOM     23  C   UNL     1       0.427  10.570  20.929  0.00  0.00    +0.000 A 
ATOM     24  C   UNL     1       0.656   9.532  21.835  0.00  0.00    +0.000 A 
ATOM     25  C   UNL     1      -0.135   9.462  22.977  0.00  0.00    +0.000 A 
ATOM     26  C   UNL     1      -1.060  10.484  23.264  0.00  0.00    +0.000 A 
BRANCH  21  28
ATOM     27  C   UNL     1      -3.319  12.420  23.526  0.00  0.00    +0.000 C 
ATOM     28  C   UNL     1      -2.047  12.810  22.773  0.00  0.00    +0.000 C 
ATOM     29  C   UNL     1      -1.282  13.897  23.535  0.00  0.00    +0.000 C 
ENDBRANCH  21  28
ENDBRANCH  20  24
ENDBRANCH  19  20
ENDBRANCH   1  19
TORSDOF 6
ENDMDL
