MODEL 1
REMARK VINA RESULT:      -8.5      0.000      0.000
REMARK  Name = 
REMARK  5 active torsions:
REMARK  status: ('A' for Active; 'I' for Inactive)
REMARK    1  A    between atoms: C_1  and  C_2
REMARK    2  A    between atoms: C_2  and  C_3
REMARK    3  A    between atoms: C_3  and  C_4
REMARK    4  A    between atoms: C_3  and  N_12
REMARK    5  A    between atoms: C_15  and  C_16
REMARK                            x       y       z     vdW  Elec       q    Type
REMARK                         _______ _______ _______ _____ _____    ______ ____
ROOT
ATOM      1  C   UNL     1       5.275   5.413  17.694  0.00  0.00    +0.000 C 
ENDROOT
BRANCH   1   2
ATOM      2  C   UNL     1       6.182   5.556  16.435  0.00  0.00    +0.000 C 
ATOM      3  O   UNL     1       6.956   6.503  16.330  0.00  0.00    +0.000 OA
ATOM      4  N   UNL     1       5.961   4.621  15.451  0.00  0.00    +0.000 N 
ATOM      5  C   UNL     1       6.660   4.694  14.276  0.00  0.00    +0.000 A 
ATOM      6  N   UNL     1       7.655   5.491  13.976  0.00  0.00    +0.000 NA
ATOM      7  C   UNL     1       8.022   5.319  12.664  0.00  0.00    +0.000 A 
ATOM      8  C   UNL     1       7.303   4.369  11.975  0.00  0.00    +0.000 A 
ATOM      9  S   UNL     1       6.159   3.634  13.034  0.00  0.00    +0.000 S 
ATOM     10  H   UNL     1       5.264   3.902  15.588  0.00  0.00    +0.000 HD
ENDBRANCH   1   2
BRANCH   1  11
ATOM     11  N   UNL     1       4.010   4.646  17.358  0.00  0.00    +0.000 NA
ATOM     12  C   UNL     1       4.143   3.217  17.701  0.00  0.00    +0.000 C 
ATOM     13  C   UNL     1       2.851   2.415  17.533  0.00  0.00    +0.000 C 
ATOM     14  C   UNL     1       1.693   3.022  18.328  0.00  0.00    +0.000 C 
ATOM     15  C   UNL     1       1.542   4.485  17.898  0.00  0.00    +0.000 C 
ATOM     16  C   UNL     1       2.852   5.273  18.034  0.00  0.00    +0.000 C 
BRANCH  14  17
ATOM     17  C   UNL     1       1.855   2.872  19.818  0.00  0.00    +0.000 A 
ATOM     18  N   UNL     1       2.966   2.664  20.495  0.00  0.00    +0.000 NA
ATOM     19  N   UNL     1       2.654   2.618  21.833  0.00  0.00    +0.000 NA
ATOM     20  C   UNL     1       1.365   2.805  21.944  0.00  0.00    +0.000 A 
ATOM     21  N   UNL     1       0.819   2.971  20.712  0.00  0.00    +0.000 N 
ATOM     22  H   UNL     1      -0.155   3.140  20.502  0.00  0.00    +0.000 HD
ENDBRANCH  14  17
ENDBRANCH   1  11
BRANCH   1  24
ATOM     23  C   UNL     1       7.266   5.671  19.368  0.00  0.00    +0.000 C 
ATOM     24  C   UNL     1       6.090   4.827  18.886  0.00  0.00    +0.000 C 
ENDBRANCH   1  24
TORSDOF 4
ENDMDL
MODEL 2
REMARK VINA RESULT:      -7.7      3.667      5.552
REMARK  Name = 
REMARK  5 active torsions:
REMARK  status: ('A' for Active; 'I' for Inactive)
REMARK    1  A    between atoms: C_1  and  C_2
REMARK    2  A    between atoms: C_2  and  C_3
REMARK    3  A    between atoms: C_3  and  C_4
REMARK    4  A    between atoms: C_3  and  N_12
REMARK    5  A    between atoms: C_15  and  C_16
REMARK                            x       y       z     vdW  Elec       q    Type
REMARK                         _______ _______ _______ _____ _____    ______ ____
ROOT
ATOM      1  C   UNL     1       4.090   6.446  17.911  0.00  0.00    +0.000 C 
ENDROOT
BRANCH   1   2
ATOM      2  C   UNL     1       2.993   7.540  18.071  0.00  0.00    +0.000 C 
ATOM      3  O   UNL     1       2.747   8.316  17.152  0.00  0.00    +0.000 OA
ATOM      4  N   UNL     1       2.429   7.618  19.324  0.00  0.00    +0.000 N 
ATOM      5  C   UNL     1       1.500   8.586  19.591  0.00  0.00    +0.000 A 
ATOM      6  N   UNL     1       0.939   9.422  18.752  0.00  0.00    +0.000 NA
ATOM      7  C   UNL     1       0.128  10.301  19.427  0.00  0.00    +0.000 A 
ATOM      8  C   UNL     1       0.068  10.111  20.790  0.00  0.00    +0.000 A 
ATOM      9  S   UNL     1       1.027   8.747  21.224  0.00  0.00    +0.000 S 
ATOM     10  H   UNL     1       2.725   6.978  20.048  0.00  0.00    +0.000 HD
ENDBRANCH   1   2
BRANCH   1  11
ATOM     11  N   UNL     1       3.470   5.121  17.509  0.00  0.00    +0.000 NA
ATOM     12  C   UNL     1       4.240   3.985  18.051  0.00  0.00    +0.000 C 
ATOM     13  C   UNL     1       3.585   2.622  17.815  0.00  0.00    +0.000 C 
ATOM     14  C   UNL     1       2.156   2.572  18.362  0.00  0.00    +0.000 C 
ATOM     15  C   UNL     1       1.370   3.725  17.729  0.00  0.00    +0.000 C 
ATOM     16  C   UNL     1       2.053   5.083  17.936  0.00  0.00    +0.000 C 
BRANCH  14  17
ATOM     17  C   UNL     1       2.097   2.590  19.866  0.00  0.00    +0.000 A 
ATOM     18  N   UNL     1       3.092   2.448  20.718  0.00  0.00    +0.000 NA
ATOM     19  N   UNL     1       2.589   2.558  21.992  0.00  0.00    +0.000 NA
ATOM     20  C   UNL     1       1.303   2.771  21.891  0.00  0.00    +0.000 A 
ATOM     21  N   UNL     1       0.945   2.802  20.582  0.00  0.00    +0.000 N 
ATOM     22  H   UNL     1       0.017   2.957  20.214  0.00  0.00    +0.000 HD
ENDBRANCH  14  17
ENDBRANCH   1  11
BRANCH   1  24
ATOM     23  C   UNL     1       5.259   6.305  15.576  0.00  0.00    +0.000 C 
ATOM     24  C   UNL     1       5.220   6.946  16.961  0.00  0.00    +0.000 C 
ENDBRANCH   1  24
TORSDOF 4
ENDMDL
MODEL 3
REMARK VINA RESULT:      -7.6      3.783      7.504
REMARK  Name = 
REMARK  5 active torsions:
REMARK  status: ('A' for Active; 'I' for Inactive)
REMARK    1  A    between atoms: C_1  and  C_2
REMARK    2  A    between atoms: C_2  and  C_3
REMARK    3  A    between atoms: C_3  and  C_4
REMARK    4  A    between atoms: C_3  and  N_12
REMARK    5  A    between atoms: C_15  and  C_16
REMARK                            x       y       z     vdW  Elec       q    Type
REMARK                         _______ _______ _______ _____ _____    ______ ____
ROOT
ATOM      1  C   UNL     1       3.138   5.439  18.610  0.00  0.00    +0.000 C 
ENDROOT
BRANCH   1   2
ATOM      2  C   UNL     1       2.409   6.263  19.713  0.00  0.00    +0.000 C 
ATOM      3  O   UNL     1       2.044   5.724  20.754  0.00  0.00    +0.000 OA
ATOM      4  N   UNL     1       2.132   7.568  19.376  0.00  0.00    +0.000 N 
ATOM      5  C   UNL     1       1.438   8.361  20.248  0.00  0.00    +0.000 A 
ATOM      6  N   UNL     1       1.085   8.091  21.480  0.00  0.00    +0.000 NA
ATOM      7  C   UNL     1       0.318   9.111  21.990  0.00  0.00    +0.000 A 
ATOM      8  C   UNL     1       0.107  10.167  21.132  0.00  0.00    +0.000 A 
ATOM      9  S   UNL     1       0.946   9.884  19.654  0.00  0.00    +0.000 S 
ATOM     10  H   UNL     1       2.416   7.925  18.474  0.00  0.00    +0.000 HD
ENDBRANCH   1   2
BRANCH   1  11
ATOM     11  N   UNL     1       4.617   5.776  18.579  0.00  0.00    +0.000 NA
ATOM     12  C   UNL     1       5.441   4.556  18.494  0.00  0.00    +0.000 C 
ATOM     13  C   UNL     1       6.935   4.828  18.303  0.00  0.00    +0.000 C 
ATOM     14  C   UNL     1       7.205   5.709  17.080  0.00  0.00    +0.000 C 
ATOM     15  C   UNL     1       6.384   6.993  17.236  0.00  0.00    +0.000 C 
ATOM     16  C   UNL     1       4.893   6.711  17.465  0.00  0.00    +0.000 C 
BRANCH  14  17
ATOM     17  C   UNL     1       6.938   5.007  15.775  0.00  0.00    +0.000 A 
ATOM     18  N   UNL     1       6.209   3.929  15.569  0.00  0.00    +0.000 NA
ATOM     19  N   UNL     1       6.218   3.653  14.223  0.00  0.00    +0.000 NA
ATOM     20  C   UNL     1       6.945   4.569  13.636  0.00  0.00    +0.000 A 
ATOM     21  N   UNL     1       7.416   5.441  14.564  0.00  0.00    +0.000 N 
ATOM     22  H   UNL     1       7.998   6.249  14.390  0.00  0.00    +0.000 HD
ENDBRANCH  14  17
ENDBRANCH   1  11
BRANCH   1  24
ATOM     23  C   UNL     1       1.589   3.416  18.026  0.00  0.00    +0.000 C 
ATOM     24  C   UNL     1       2.823   3.921  18.768  0.00  0.00    +0.000 C 
ENDBRANCH   1  24
TORSDOF 4
ENDMDL
MODEL 4
REMARK VINA RESULT:      -7.6      3.949      7.462
REMARK  Name = 
REMARK  5 active torsions:
REMARK  status: ('A' for Active; 'I' for Inactive)
REMARK    1  A    between atoms: C_1  and  C_2
REMARK    2  A    between atoms: C_2  and  C_3
REMARK    3  A    between atoms: C_3  and  C_4
REMARK    4  A    between atoms: C_3  and  N_12
REMARK    5  A    between atoms: C_15  and  C_16
REMARK                            x       y       z     vdW  Elec       q    Type
REMARK                         _______ _______ _______ _____ _____    ______ ____
ROOT
ATOM      1  C   UNL     1       2.946   6.019  18.070  0.00  0.00    +0.000 C 
ENDROOT
BRANCH   1   2
ATOM      2  C   UNL     1       2.305   7.396  18.419  0.00  0.00    +0.000 C 
ATOM      3  O   UNL     1       2.255   8.290  17.580  0.00  0.00    +0.000 OA
ATOM      4  N   UNL     1       1.917   7.539  19.732  0.00  0.00    +0.000 N 
ATOM      5  C   UNL     1       1.401   8.732  20.160  0.00  0.00    +0.000 A 
ATOM      6  N   UNL     1       1.084   9.780  19.441  0.00  0.00    +0.000 NA
ATOM      7  C   UNL     1       0.685  10.812  20.256  0.00  0.00    +0.000 A 
ATOM      8  C   UNL     1       0.688  10.527  21.603  0.00  0.00    +0.000 A 
ATOM      9  S   UNL     1       1.162   8.888  21.843  0.00  0.00    +0.000 S 
ATOM     10  H   UNL     1       2.043   6.773  20.379  0.00  0.00    +0.000 HD
ENDBRANCH   1   2
BRANCH   1  11
ATOM     11  N   UNL     1       4.450   6.066  18.258  0.00  0.00    +0.000 NA
ATOM     12  C   UNL     1       5.035   4.712  18.228  0.00  0.00    +0.000 C 
ATOM     13  C   UNL     1       6.565   4.695  18.256  0.00  0.00    +0.000 C 
ATOM     14  C   UNL     1       7.167   5.532  17.125  0.00  0.00    +0.000 C 
ATOM     15  C   UNL     1       6.587   6.947  17.227  0.00  0.00    +0.000 C 
ATOM     16  C   UNL     1       5.053   6.952  17.237  0.00  0.00    +0.000 C 
BRANCH  14  17
ATOM     17  C   UNL     1       6.963   4.921  15.763  0.00  0.00    +0.000 A 
ATOM     18  N   UNL     1       6.222   3.879  15.446  0.00  0.00    +0.000 NA
ATOM     19  N   UNL     1       6.305   3.688  14.087  0.00  0.00    +0.000 NA
ATOM     20  C   UNL     1       7.088   4.619  13.605  0.00  0.00    +0.000 A 
ATOM     21  N   UNL     1       7.523   5.417  14.613  0.00  0.00    +0.000 N 
ATOM     22  H   UNL     1       8.133   6.218  14.526  0.00  0.00    +0.000 HD
ENDBRANCH  14  17
ENDBRANCH   1  11
BRANCH   1  24
ATOM     23  C   UNL     1       1.410   3.903  18.005  0.00  0.00    +0.000 C 
ATOM     24  C   UNL     1       2.231   4.874  18.849  0.00  0.00    +0.000 C 
ENDBRANCH   1  24
TORSDOF 4
ENDMDL
MODEL 5
REMARK VINA RESULT:      -7.5      3.679      7.002
REMARK  Name = 
REMARK  5 active torsions:
REMARK  status: ('A' for Active; 'I' for Inactive)
REMARK    1  A    between atoms: C_1  and  C_2
REMARK    2  A    between atoms: C_2  and  C_3
REMARK    3  A    between atoms: C_3  and  C_4
REMARK    4  A    between atoms: C_3  and  N_12
REMARK    5  A    between atoms: C_15  and  C_16
REMARK                            x       y       z     vdW  Elec       q    Type
REMARK                         _______ _______ _______ _____ _____    ______ ____
ROOT
ATOM      1  C   UNL     1       3.485   4.869  17.525  0.00  0.00    +0.000 C 
ENDROOT
BRANCH   1   2
ATOM      2  C   UNL     1       2.837   5.862  18.536  0.00  0.00    +0.000 C 
ATOM      3  O   UNL     1       2.424   5.465  19.622  0.00  0.00    +0.000 OA
ATOM      4  N   UNL     1       2.683   7.147  18.070  0.00  0.00    +0.000 N 
ATOM      5  C   UNL     1       2.067   8.084  18.854  0.00  0.00    +0.000 A 
ATOM      6  N   UNL     1       1.691   7.971  20.104  0.00  0.00    +0.000 NA
ATOM      7  C   UNL     1       1.023   9.103  20.504  0.00  0.00    +0.000 A 
ATOM      8  C   UNL     1       0.912  10.085  19.545  0.00  0.00    +0.000 A 
ATOM      9  S   UNL     1       1.719   9.580  18.108  0.00  0.00    +0.000 S 
ATOM     10  H   UNL     1       2.998   7.385  17.140  0.00  0.00    +0.000 HD
ENDBRANCH   1   2
BRANCH   1  11
ATOM     11  N   UNL     1       4.893   4.508  17.957  0.00  0.00    +0.000 NA
ATOM     12  C   UNL     1       5.857   4.710  16.859  0.00  0.00    +0.000 C 
ATOM     13  C   UNL     1       7.318   4.513  17.271  0.00  0.00    +0.000 C 
ATOM     14  C   UNL     1       7.704   5.403  18.454  0.00  0.00    +0.000 C 
ATOM     15  C   UNL     1       6.722   5.119  19.596  0.00  0.00    +0.000 C 
ATOM     16  C   UNL     1       5.259   5.281  19.165  0.00  0.00    +0.000 C 
BRANCH  14  17
ATOM     17  C   UNL     1       7.768   6.865  18.099  0.00  0.00    +0.000 A 
ATOM     18  N   UNL     1       7.129   7.493  17.133  0.00  0.00    +0.000 NA
ATOM     19  N   UNL     1       7.462   8.825  17.189  0.00  0.00    +0.000 NA
ATOM     20  C   UNL     1       8.292   8.982  18.188  0.00  0.00    +0.000 A 
ATOM     21  N   UNL     1       8.514   7.787  18.791  0.00  0.00    +0.000 N 
ATOM     22  H   UNL     1       9.105   7.616  19.592  0.00  0.00    +0.000 HD
ENDBRANCH  14  17
ENDBRANCH   1  11
BRANCH   1  24
ATOM     23  C   UNL     1       3.079   2.297  17.761  0.00  0.00    +0.000 C 
ATOM     24  C   UNL     1       2.547   3.647  17.288  0.00  0.00    +0.000 C 
ENDBRANCH   1  24
TORSDOF 4
ENDMDL
MODEL 6
REMARK VINA RESULT:      -7.2      4.553      6.359
REMARK  Name = 
REMARK  5 active torsions:
REMARK  status: ('A' for Active; 'I' for Inactive)
REMARK    1  A    between atoms: C_1  and  C_2
REMARK    2  A    between atoms: C_2  and  C_3
REMARK    3  A    between atoms: C_3  and  C_4
REMARK    4  A    between atoms: C_3  and  N_12
REMARK    5  A    between atoms: C_15  and  C_16
REMARK                            x       y       z     vdW  Elec       q    Type
REMARK                         _______ _______ _______ _____ _____    ______ ____
ROOT
ATOM      1  C   UNL     1       2.881   7.035  18.632  0.00  0.00    +0.000 C 
ENDROOT
BRANCH   1   2
ATOM      2  C   UNL     1       2.136   8.392  18.459  0.00  0.00    +0.000 C 
ATOM      3  O   UNL     1       2.220   9.019  17.407  0.00  0.00    +0.000 OA
ATOM      4  N   UNL     1       1.492   8.849  19.586  0.00  0.00    +0.000 N 
ATOM      5  C   UNL     1       0.860  10.062  19.561  0.00  0.00    +0.000 A 
ATOM      6  N   UNL     1       0.653  10.845  18.532  0.00  0.00    +0.000 NA
ATOM      7  C   UNL     1       0.065  12.019  18.937  0.00  0.00    +0.000 A 
ATOM      8  C   UNL     1      -0.187  12.109  20.287  0.00  0.00    +0.000 A 
ATOM      9  S   UNL     1       0.289  10.645  21.061  0.00  0.00    +0.000 S 
ATOM     10  H   UNL     1       1.515   8.301  20.434  0.00  0.00    +0.000 HD
ENDBRANCH   1   2
BRANCH   1  11
ATOM     11  N   UNL     1       1.897   5.915  18.915  0.00  0.00    +0.000 NA
ATOM     12  C   UNL     1       1.971   4.865  17.882  0.00  0.00    +0.000 C 
ATOM     13  C   UNL     1       1.116   3.633  18.188  0.00  0.00    +0.000 C 
ATOM     14  C   UNL     1       1.455   3.027  19.552  0.00  0.00    +0.000 C 
ATOM     15  C   UNL     1       1.304   4.128  20.606  0.00  0.00    +0.000 C 
ATOM     16  C   UNL     1       2.134   5.375  20.273  0.00  0.00    +0.000 C 
BRANCH  14  17
ATOM     17  C   UNL     1       2.810   2.372  19.589  0.00  0.00    +0.000 A 
ATOM     18  N   UNL     1       3.755   2.517  20.496  0.00  0.00    +0.000 NA
ATOM     19  N   UNL     1       4.814   1.713  20.149  0.00  0.00    +0.000 NA
ATOM     20  C   UNL     1       4.492   1.092  19.044  0.00  0.00    +0.000 A 
ATOM     21  N   UNL     1       3.248   1.468  18.654  0.00  0.00    +0.000 N 
ATOM     22  H   UNL     1       2.746   1.140  17.840  0.00  0.00    +0.000 HD
ENDBRANCH  14  17
ENDBRANCH   1  11
BRANCH   1  24
ATOM     23  C   UNL     1       5.233   6.293  17.761  0.00  0.00    +0.000 C 
ATOM     24  C   UNL     1       3.825   6.776  17.420  0.00  0.00    +0.000 C 
ENDBRANCH   1  24
TORSDOF 4
ENDMDL
MODEL 7
REMARK VINA RESULT:      -7.1      3.489      5.441
REMARK  Name = 
REMARK  5 active torsions:
REMARK  status: ('A' for Active; 'I' for Inactive)
REMARK    1  A    between atoms: C_1  and  C_2
REMARK    2  A    between atoms: C_2  and  C_3
REMARK    3  A    between atoms: C_3  and  C_4
REMARK    4  A    between atoms: C_3  and  N_12
REMARK    5  A    between atoms: C_15  and  C_16
REMARK                            x       y       z     vdW  Elec       q    Type
REMARK                         _______ _______ _______ _____ _____    ______ ____
ROOT
ATOM      1  C   UNL     1       4.099   6.170  17.797  0.00  0.00    +0.000 C 
ENDROOT
BRANCH   1   2
ATOM      2  C   UNL     1       3.163   6.947  18.769  0.00  0.00    +0.000 C 
ATOM      3  O   UNL     1       2.948   6.521  19.900  0.00  0.00    +0.000 OA
ATOM      4  N   UNL     1       2.543   8.048  18.223  0.00  0.00    +0.000 N 
ATOM      5  C   UNL     1       1.650   8.765  18.972  0.00  0.00    +0.000 A 
ATOM      6  N   UNL     1       1.372   8.631  20.245  0.00  0.00    +0.000 NA
ATOM      7  C   UNL     1       0.351   9.478  20.600  0.00  0.00    +0.000 A 
ATOM      8  C   UNL     1      -0.131  10.271  19.582  0.00  0.00    +0.000 A 
ATOM      9  S   UNL     1       0.768   9.969  18.144  0.00  0.00    +0.000 S 
ATOM     10  H   UNL     1       2.728   8.304  17.263  0.00  0.00    +0.000 HD
ENDBRANCH   1   2
BRANCH   1  11
ATOM     11  N   UNL     1       3.521   4.806  17.472  0.00  0.00    +0.000 NA
ATOM     12  C   UNL     1       4.293   3.730  18.122  0.00  0.00    +0.000 C 
ATOM     13  C   UNL     1       3.674   2.339  17.963  0.00  0.00    +0.000 C 
ATOM     14  C   UNL     1       2.227   2.297  18.460  0.00  0.00    +0.000 C 
ATOM     15  C   UNL     1       1.442   3.383  17.716  0.00  0.00    +0.000 C 
ATOM     16  C   UNL     1       2.090   4.768  17.848  0.00  0.00    +0.000 C 
BRANCH  14  17
ATOM     17  C   UNL     1       2.110   2.423  19.956  0.00  0.00    +0.000 A 
ATOM     18  N   UNL     1       3.071   2.339  20.853  0.00  0.00    +0.000 NA
ATOM     19  N   UNL     1       2.521   2.542  22.096  0.00  0.00    +0.000 NA
ATOM     20  C   UNL     1       1.240   2.750  21.931  0.00  0.00    +0.000 A 
ATOM     21  N   UNL     1       0.933   2.688  20.611  0.00  0.00    +0.000 N 
ATOM     22  H   UNL     1       0.020   2.819  20.197  0.00  0.00    +0.000 HD
ENDBRANCH  14  17
ENDBRANCH   1  11
BRANCH   1  24
ATOM     23  C   UNL     1       5.266   6.368  15.465  0.00  0.00    +0.000 C 
ATOM     24  C   UNL     1       4.434   7.045  16.551  0.00  0.00    +0.000 C 
ENDBRANCH   1  24
TORSDOF 4
ENDMDL
MODEL 8
REMARK VINA RESULT:      -7.0      3.955      7.467
REMARK  Name = 
REMARK  5 active torsions:
REMARK  status: ('A' for Active; 'I' for Inactive)
REMARK    1  A    between atoms: C_1  and  C_2
REMARK    2  A    between atoms: C_2  and  C_3
REMARK    3  A    between atoms: C_3  and  C_4
REMARK    4  A    between atoms: C_3  and  N_12
REMARK    5  A    between atoms: C_15  and  C_16
REMARK                            x       y       z     vdW  Elec       q    Type
REMARK                         _______ _______ _______ _____ _____    ______ ____
ROOT
ATOM      1  C   UNL     1       3.003   6.289  17.977  0.00  0.00    +0.000 C 
ENDROOT
BRANCH   1   2
ATOM      2  C   UNL     1       2.390   7.250  19.039  0.00  0.00    +0.000 C 
ATOM      3  O   UNL     1       2.408   6.953  20.230  0.00  0.00    +0.000 OA
ATOM      4  N   UNL     1       1.761   8.360  18.524  0.00  0.00    +0.000 N 
ATOM      5  C   UNL     1       1.134   9.236  19.368  0.00  0.00    +0.000 A 
ATOM      6  N   UNL     1       1.148   9.248  20.677  0.00  0.00    +0.000 NA
ATOM      7  C   UNL     1       0.317  10.233  21.153  0.00  0.00    +0.000 A 
ATOM      8  C   UNL     1      -0.317  10.980  20.185  0.00  0.00    +0.000 A 
ATOM      9  S   UNL     1       0.193  10.453  18.626  0.00  0.00    +0.000 S 
ATOM     10  H   UNL     1       1.740   8.506  17.525  0.00  0.00    +0.000 HD
ENDBRANCH   1   2
BRANCH   1  11
ATOM     11  N   UNL     1       4.483   6.080  18.234  0.00  0.00    +0.000 NA
ATOM     12  C   UNL     1       4.853   4.658  18.103  0.00  0.00    +0.000 C 
ATOM     13  C   UNL     1       6.358   4.396  18.196  0.00  0.00    +0.000 C 
ATOM     14  C   UNL     1       7.146   5.221  17.176  0.00  0.00    +0.000 C 
ATOM     15  C   UNL     1       6.787   6.696  17.386  0.00  0.00    +0.000 C 
ATOM     16  C   UNL     1       5.274   6.944  17.329  0.00  0.00    +0.000 C 
BRANCH  14  17
ATOM     17  C   UNL     1       6.930   4.770  15.756  0.00  0.00    +0.000 A 
ATOM     18  N   UNL     1       6.172   3.783  15.326  0.00  0.00    +0.000 NA
ATOM     19  N   UNL     1       6.250   3.743  13.955  0.00  0.00    +0.000 NA
ATOM     20  C   UNL     1       7.047   4.708  13.577  0.00  0.00    +0.000 A 
ATOM     21  N   UNL     1       7.498   5.382  14.666  0.00  0.00    +0.000 N 
ATOM     22  H   UNL     1       8.121   6.177  14.668  0.00  0.00    +0.000 HD
ENDBRANCH  14  17
ENDBRANCH   1  11
BRANCH   1  24
ATOM     23  C   UNL     1       1.641   4.430  19.212  0.00  0.00    +0.000 C 
ATOM     24  C   UNL     1       2.169   4.975  17.888  0.00  0.00    +0.000 C 
ENDBRANCH   1  24
TORSDOF 4
ENDMDL
MODEL 9
REMARK VINA RESULT:      -7.0      4.957      7.861
REMARK  Name = 
REMARK  5 active torsions:
REMARK  status: ('A' for Active; 'I' for Inactive)
REMARK    1  A    between atoms: C_1  and  C_2
REMARK    2  A    between atoms: C_2  and  C_3
REMARK    3  A    between atoms: C_3  and  C_4
REMARK    4  A    between atoms: C_3  and  N_12
REMARK    5  A    between atoms: C_15  and  C_16
REMARK                            x       y       z     vdW  Elec       q    Type
REMARK                         _______ _______ _______ _____ _____    ______ ____
ROOT
ATOM      1  C   UNL     1       2.440   7.405  19.200  0.00  0.00    +0.000 C 
ENDROOT
BRANCH   1   2
ATOM      2  C   UNL     1       1.603   7.879  20.426  0.00  0.00    +0.000 C 
ATOM      3  O   UNL     1       1.167   7.065  21.235  0.00  0.00    +0.000 OA
ATOM      4  N   UNL     1       1.322   9.226  20.451  0.00  0.00    +0.000 N 
ATOM      5  C   UNL     1       0.539   9.736  21.451  0.00  0.00    +0.000 A 
ATOM      6  N   UNL     1       0.093   9.125  22.520  0.00  0.00    +0.000 NA
ATOM      7  C   UNL     1      -0.739   9.956  23.231  0.00  0.00    +0.000 A 
ATOM      8  C   UNL     1      -0.905  11.213  22.695  0.00  0.00    +0.000 A 
ATOM      9  S   UNL     1       0.059  11.365  21.275  0.00  0.00    +0.000 S 
ATOM     10  H   UNL     1       1.669   9.825  19.716  0.00  0.00    +0.000 HD
ENDBRANCH   1   2
BRANCH   1  11
ATOM     11  N   UNL     1       2.526   5.891  19.163  0.00  0.00    +0.000 NA
ATOM     12  C   UNL     1       2.258   5.374  17.808  0.00  0.00    +0.000 C 
ATOM     13  C   UNL     1       2.480   3.867  17.663  0.00  0.00    +0.000 C 
ATOM     14  C   UNL     1       3.889   3.452  18.095  0.00  0.00    +0.000 C 
ATOM     15  C   UNL     1       4.108   3.949  19.528  0.00  0.00    +0.000 C 
ATOM     16  C   UNL     1       3.846   5.454  19.672  0.00  0.00    +0.000 C 
BRANCH  14  17
ATOM     17  C   UNL     1       4.961   3.927  17.149  0.00  0.00    +0.000 A 
ATOM     18  N   UNL     1       4.832   4.268  15.883  0.00  0.00    +0.000 NA
ATOM     19  N   UNL     1       6.061   4.663  15.414  0.00  0.00    +0.000 NA
ATOM     20  C   UNL     1       6.912   4.562  16.403  0.00  0.00    +0.000 A 
ATOM     21  N   UNL     1       6.273   4.107  17.511  0.00  0.00    +0.000 N 
ATOM     22  H   UNL     1       6.684   3.943  18.419  0.00  0.00    +0.000 HD
ENDBRANCH  14  17
ENDBRANCH   1  11
BRANCH   1  24
ATOM     23  C   UNL     1       2.250   9.527  17.683  0.00  0.00    +0.000 C 
ATOM     24  C   UNL     1       1.900   8.056  17.891  0.00  0.00    +0.000 C 
ENDBRANCH   1  24
TORSDOF 4
ENDMDL
