MODEL 1
REMARK VINA RESULT:      -7.3      0.000      0.000
REMARK  Name = 
REMARK  10 active torsions:
REMARK  status: ('A' for Active; 'I' for Inactive)
REMARK    1  A    between atoms: C_1  and  C_2
REMARK    2  A    between atoms: C_2  and  C_3
REMARK    3  A    between atoms: C_5  and  C_6
REMARK    4  A    between atoms: N_8  and  C_9
REMARK    5  A    between atoms: C_9  and  C_10
REMARK    6  A    between atoms: C_10  and  C_11
REMARK    7  A    between atoms: C_11  and  N_12
REMARK    8  A    between atoms: C_13  and  C_15
REMARK    9  A    between atoms: C_20  and  C_21
REMARK   10  A    between atoms: C_20  and  C_22
REMARK                            x       y       z     vdW  Elec       q    Type
REMARK                         _______ _______ _______ _____ _____    ______ ____
ROOT
ATOM      1  C   UNL     1       2.030   7.125  20.121  0.00  0.00    +0.000 C 
ATOM      2  O   UNL     1       2.261   7.856  19.169  0.00  0.00    +0.000 OA
ATOM      3  N   UNL     1       1.676   7.578  21.372  0.00  0.00    +0.000 N 
ATOM      4  H   UNL     1       1.649   6.929  22.144  0.00  0.00    +0.000 HD
ENDROOT
BRANCH   1   9
ATOM      5  C   UNL     1       1.886   2.553  21.577  0.00  0.00    +0.000 C 
ATOM      6  C   UNL     1       1.764   3.364  20.281  0.00  0.00    +0.000 C 
ATOM      7  C   UNL     1       0.790   2.661  19.328  0.00  0.00    +0.000 C 
ATOM      8  C   UNL     1       1.331   4.758  20.579  0.00  0.00    +0.000 C 
ATOM      9  C   UNL     1       2.162   5.653  20.023  0.00  0.00    +0.000 C 
ATOM     10  C   UNL     1       3.218   4.952  19.216  0.00  0.00    +0.000 C 
ATOM     11  C   UNL     1       4.654   5.415  19.503  0.00  0.00    +0.000 C 
ATOM     12  C   UNL     1       2.960   5.026  17.701  0.00  0.00    +0.000 C 
ATOM     13  N   UNL     1       3.087   3.512  19.627  0.00  0.00    +0.000 NA
ATOM     14  H   UNL     1       3.811   3.318  20.318  0.00  0.00    +0.000 HD
ENDBRANCH   1   9
BRANCH   3  15
ATOM     15  C   UNL     1       1.480   8.981  21.679  0.00  0.00    +0.000 C 
BRANCH  15  16
ATOM     16  C   UNL     1       0.082   9.450  21.298  0.00  0.00    +0.000 C 
BRANCH  16  17
ATOM     17  C   UNL     1       0.146  10.661  20.374  0.00  0.00    +0.000 C 
BRANCH  17  18
ATOM     18  N   UNL     1      -0.650  10.462  19.183  0.00  0.00    +0.000 N 
ATOM     19  C   UNL     1      -1.833  11.127  18.942  0.00  0.00    +0.000 C 
ATOM     20  O   UNL     1      -2.298  11.930  19.751  0.00  0.00    +0.000 OA
ATOM     21  H   UNL     1      -0.285   9.874  18.444  0.00  0.00    +0.000 HD
BRANCH  19  22
ATOM     22  C   UNL     1      -2.484  10.808  17.675  0.00  0.00    +0.000 A 
ATOM     23  C   UNL     1      -2.008   9.973  16.679  0.00  0.00    +0.000 A 
ATOM     24  C   UNL     1      -2.893   9.888  15.564  0.00  0.00    +0.000 A 
ATOM     25  C   UNL     1      -4.018  10.659  15.741  0.00  0.00    +0.000 A 
ATOM     26  S   UNL     1      -4.005  11.475  17.241  0.00  0.00    +0.000 S 
ENDBRANCH  19  22
ENDBRANCH  17  18
ENDBRANCH  16  17
ENDBRANCH  15  16
ENDBRANCH   3  15
TORSDOF 6
ENDMDL
MODEL 2
REMARK VINA RESULT:      -7.2      4.215      6.590
REMARK  Name = 
REMARK  10 active torsions:
REMARK  status: ('A' for Active; 'I' for Inactive)
REMARK    1  A    between atoms: C_1  and  C_2
REMARK    2  A    between atoms: C_2  and  C_3
REMARK    3  A    between atoms: C_5  and  C_6
REMARK    4  A    between atoms: N_8  and  C_9
REMARK    5  A    between atoms: C_9  and  C_10
REMARK    6  A    between atoms: C_10  and  C_11
REMARK    7  A    between atoms: C_11  and  N_12
REMARK    8  A    between atoms: C_13  and  C_15
REMARK    9  A    between atoms: C_20  and  C_21
REMARK   10  A    between atoms: C_20  and  C_22
REMARK                            x       y       z     vdW  Elec       q    Type
REMARK                         _______ _______ _______ _____ _____    ______ ____
ROOT
ATOM      1  C   UNL     1       5.032   3.646  18.466  0.00  0.00    +0.000 C 
ATOM      2  O   UNL     1       5.378   3.895  19.611  0.00  0.00    +0.000 OA
ATOM      3  N   UNL     1       4.127   2.663  18.132  0.00  0.00    +0.000 N 
ATOM      4  H   UNL     1       4.004   2.414  17.161  0.00  0.00    +0.000 HD
ENDROOT
BRANCH   1   9
ATOM      5  C   UNL     1       6.200   4.442  13.878  0.00  0.00    +0.000 C 
ATOM      6  C   UNL     1       5.901   5.236  15.155  0.00  0.00    +0.000 C 
ATOM      7  C   UNL     1       5.230   6.564  14.787  0.00  0.00    +0.000 C 
ATOM      8  C   UNL     1       5.055   4.433  16.082  0.00  0.00    +0.000 C 
ATOM      9  C   UNL     1       5.604   4.366  17.305  0.00  0.00    +0.000 C 
ATOM     10  C   UNL     1       6.859   5.191  17.358  0.00  0.00    +0.000 C 
ATOM     11  C   UNL     1       8.074   4.467  17.957  0.00  0.00    +0.000 C 
ATOM     12  C   UNL     1       6.663   6.531  18.087  0.00  0.00    +0.000 C 
ATOM     13  N   UNL     1       7.147   5.498  15.916  0.00  0.00    +0.000 NA
ATOM     14  H   UNL     1       7.863   4.847  15.595  0.00  0.00    +0.000 HD
ENDBRANCH   1   9
BRANCH   3  15
ATOM     15  C   UNL     1       3.441   1.852  19.117  0.00  0.00    +0.000 C 
BRANCH  15  16
ATOM     16  C   UNL     1       1.940   1.802  18.857  0.00  0.00    +0.000 C 
BRANCH  16  17
ATOM     17  C   UNL     1       1.202   2.800  19.741  0.00  0.00    +0.000 C 
BRANCH  17  18
ATOM     18  N   UNL     1       1.414   4.160  19.298  0.00  0.00    +0.000 N 
ATOM     19  C   UNL     1       2.035   5.120  20.068  0.00  0.00    +0.000 C 
ATOM     20  O   UNL     1       2.435   4.876  21.206  0.00  0.00    +0.000 OA
ATOM     21  H   UNL     1       1.179   4.405  18.344  0.00  0.00    +0.000 HD
BRANCH  19  22
ATOM     22  C   UNL     1       2.177   6.430  19.441  0.00  0.00    +0.000 A 
ATOM     23  C   UNL     1       2.765   6.713  18.219  0.00  0.00    +0.000 A 
ATOM     24  C   UNL     1       2.744   8.104  17.908  0.00  0.00    +0.000 A 
ATOM     25  C   UNL     1       2.139   8.843  18.897  0.00  0.00    +0.000 A 
ATOM     26  S   UNL     1       1.602   7.865  20.190  0.00  0.00    +0.000 S 
ENDBRANCH  19  22
ENDBRANCH  17  18
ENDBRANCH  16  17
ENDBRANCH  15  16
ENDBRANCH   3  15
TORSDOF 6
ENDMDL
MODEL 3
REMARK VINA RESULT:      -7.1      2.364      3.701
REMARK  Name = 
REMARK  10 active torsions:
REMARK  status: ('A' for Active; 'I' for Inactive)
REMARK    1  A    between atoms: C_1  and  C_2
REMARK    2  A    between atoms: C_2  and  C_3
REMARK    3  A    between atoms: C_5  and  C_6
REMARK    4  A    between atoms: N_8  and  C_9
REMARK    5  A    between atoms: C_9  and  C_10
REMARK    6  A    between atoms: C_10  and  C_11
REMARK    7  A    between atoms: C_11  and  N_12
REMARK    8  A    between atoms: C_13  and  C_15
REMARK    9  A    between atoms: C_20  and  C_21
REMARK   10  A    between atoms: C_20  and  C_22
REMARK                            x       y       z     vdW  Elec       q    Type
REMARK                         _______ _______ _______ _____ _____    ______ ____
ROOT
ATOM      1  C   UNL     1       2.781   5.803  17.889  0.00  0.00    +0.000 C 
ATOM      2  O   UNL     1       1.630   5.392  17.899  0.00  0.00    +0.000 OA
ATOM      3  N   UNL     1       3.154   7.058  18.313  0.00  0.00    +0.000 N 
ATOM      4  H   UNL     1       4.094   7.382  18.135  0.00  0.00    +0.000 HD
ENDROOT
BRANCH   1   9
ATOM      5  C   UNL     1       5.951   4.169  14.675  0.00  0.00    +0.000 C 
ATOM      6  C   UNL     1       5.811   4.322  16.194  0.00  0.00    +0.000 C 
ATOM      7  C   UNL     1       7.190   4.581  16.811  0.00  0.00    +0.000 C 
ATOM      8  C   UNL     1       4.850   5.412  16.521  0.00  0.00    +0.000 C 
ATOM      9  C   UNL     1       3.896   4.983  17.362  0.00  0.00    +0.000 C 
ATOM     10  C   UNL     1       4.156   3.557  17.759  0.00  0.00    +0.000 C 
ATOM     11  C   UNL     1       2.941   2.626  17.627  0.00  0.00    +0.000 C 
ATOM     12  C   UNL     1       4.737   3.427  19.177  0.00  0.00    +0.000 C 
ATOM     13  N   UNL     1       5.214   3.103  16.793  0.00  0.00    +0.000 NA
ATOM     14  H   UNL     1       4.756   2.573  16.053  0.00  0.00    +0.000 HD
ENDBRANCH   1   9
BRANCH   3  15
ATOM     15  C   UNL     1       2.221   8.013  18.876  0.00  0.00    +0.000 C 
BRANCH  15  16
ATOM     16  C   UNL     1       1.713   8.991  17.824  0.00  0.00    +0.000 C 
BRANCH  16  17
ATOM     17  C   UNL     1       1.067  10.207  18.478  0.00  0.00    +0.000 C 
BRANCH  17  18
ATOM     18  N   UNL     1      -0.245  10.469  17.931  0.00  0.00    +0.000 N 
ATOM     19  C   UNL     1      -1.322  10.861  18.696  0.00  0.00    +0.000 C 
ATOM     20  O   UNL     1      -1.232  10.997  19.917  0.00  0.00    +0.000 OA
ATOM     21  H   UNL     1      -0.368  10.451  16.926  0.00  0.00    +0.000 HD
BRANCH  19  22
ATOM     22  C   UNL     1      -2.561  11.098  17.961  0.00  0.00    +0.000 A 
ATOM     23  C   UNL     1      -3.745  11.610  18.464  0.00  0.00    +0.000 A 
ATOM     24  C   UNL     1      -4.767  11.706  17.474  0.00  0.00    +0.000 A 
ATOM     25  C   UNL     1      -4.334  11.265  16.245  0.00  0.00    +0.000 A 
ATOM     26  S   UNL     1      -2.708  10.743  16.288  0.00  0.00    +0.000 S 
ENDBRANCH  19  22
ENDBRANCH  17  18
ENDBRANCH  16  17
ENDBRANCH  15  16
ENDBRANCH   3  15
TORSDOF 6
ENDMDL
MODEL 4
REMARK VINA RESULT:      -7.0      2.306      3.568
REMARK  Name = 
REMARK  10 active torsions:
REMARK  status: ('A' for Active; 'I' for Inactive)
REMARK    1  A    between atoms: C_1  and  C_2
REMARK    2  A    between atoms: C_2  and  C_3
REMARK    3  A    between atoms: C_5  and  C_6
REMARK    4  A    between atoms: N_8  and  C_9
REMARK    5  A    between atoms: C_9  and  C_10
REMARK    6  A    between atoms: C_10  and  C_11
REMARK    7  A    between atoms: C_11  and  N_12
REMARK    8  A    between atoms: C_13  and  C_15
REMARK    9  A    between atoms: C_20  and  C_21
REMARK   10  A    between atoms: C_20  and  C_22
REMARK                            x       y       z     vdW  Elec       q    Type
REMARK                         _______ _______ _______ _____ _____    ______ ____
ROOT
ATOM      1  C   UNL     1       3.250   6.289  18.595  0.00  0.00    +0.000 C 
ATOM      2  O   UNL     1       2.826   5.999  19.704  0.00  0.00    +0.000 OA
ATOM      3  N   UNL     1       2.813   7.369  17.862  0.00  0.00    +0.000 N 
ATOM      4  H   UNL     1       3.096   7.460  16.897  0.00  0.00    +0.000 HD
ENDROOT
BRANCH   1   9
ATOM      5  C   UNL     1       6.448   5.080  15.224  0.00  0.00    +0.000 C 
ATOM      6  C   UNL     1       6.159   4.803  16.705  0.00  0.00    +0.000 C 
ATOM      7  C   UNL     1       7.480   4.589  17.452  0.00  0.00    +0.000 C 
ATOM      8  C   UNL     1       5.367   5.916  17.298  0.00  0.00    +0.000 C 
ATOM      9  C   UNL     1       4.262   5.456  17.905  0.00  0.00    +0.000 C 
ATOM     10  C   UNL     1       4.226   3.955  17.852  0.00  0.00    +0.000 C 
ATOM     11  C   UNL     1       2.894   3.365  17.365  0.00  0.00    +0.000 C 
ATOM     12  C   UNL     1       4.606   3.300  19.191  0.00  0.00    +0.000 C 
ATOM     13  N   UNL     1       5.297   3.605  16.857  0.00  0.00    +0.000 NA
ATOM     14  H   UNL     1       4.844   3.419  15.963  0.00  0.00    +0.000 HD
ENDBRANCH   1   9
BRANCH   3  15
ATOM     15  C   UNL     1       1.836   8.319  18.358  0.00  0.00    +0.000 C 
BRANCH  15  16
ATOM     16  C   UNL     1       2.168   9.742  17.928  0.00  0.00    +0.000 C 
BRANCH  16  17
ATOM     17  C   UNL     1       1.223  10.742  18.583  0.00  0.00    +0.000 C 
BRANCH  17  18
ATOM     18  N   UNL     1      -0.087  10.715  17.970  0.00  0.00    +0.000 N 
ATOM     19  C   UNL     1      -1.151  11.466  18.421  0.00  0.00    +0.000 C 
ATOM     20  O   UNL     1      -1.052  12.204  19.402  0.00  0.00    +0.000 OA
ATOM     21  H   UNL     1      -0.215  10.189  17.115  0.00  0.00    +0.000 HD
BRANCH  19  22
ATOM     22  C   UNL     1      -2.388  11.320  17.660  0.00  0.00    +0.000 A 
ATOM     23  C   UNL     1      -2.515  10.915  16.342  0.00  0.00    +0.000 A 
ATOM     24  C   UNL     1      -3.872  10.888  15.904  0.00  0.00    +0.000 A 
ATOM     25  C   UNL     1      -4.741  11.271  16.898  0.00  0.00    +0.000 A 
ATOM     26  S   UNL     1      -3.925  11.657  18.348  0.00  0.00    +0.000 S 
ENDBRANCH  19  22
ENDBRANCH  17  18
ENDBRANCH  16  17
ENDBRANCH  15  16
ENDBRANCH   3  15
TORSDOF 6
ENDMDL
MODEL 5
REMARK VINA RESULT:      -6.9      3.567      7.744
REMARK  Name = 
REMARK  10 active torsions:
REMARK  status: ('A' for Active; 'I' for Inactive)
REMARK    1  A    between atoms: C_1  and  C_2
REMARK    2  A    between atoms: C_2  and  C_3
REMARK    3  A    between atoms: C_5  and  C_6
REMARK    4  A    between atoms: N_8  and  C_9
REMARK    5  A    between atoms: C_9  and  C_10
REMARK    6  A    between atoms: C_10  and  C_11
REMARK    7  A    between atoms: C_11  and  N_12
REMARK    8  A    between atoms: C_13  and  C_15
REMARK    9  A    between atoms: C_20  and  C_21
REMARK   10  A    between atoms: C_20  and  C_22
REMARK                            x       y       z     vdW  Elec       q    Type
REMARK                         _______ _______ _______ _____ _____    ______ ____
ROOT
ATOM      1  C   UNL     1       2.171   7.057  19.900  0.00  0.00    +0.000 C 
ATOM      2  O   UNL     1       3.060   6.737  19.124  0.00  0.00    +0.000 OA
ATOM      3  N   UNL     1       1.636   6.215  20.848  0.00  0.00    +0.000 N 
ATOM      4  H   UNL     1       0.807   6.498  21.349  0.00  0.00    +0.000 HD
ENDROOT
BRANCH   1   9
ATOM      5  C   UNL     1       1.599  11.643  18.599  0.00  0.00    +0.000 C 
ATOM      6  C   UNL     1       0.753  10.457  19.079  0.00  0.00    +0.000 C 
ATOM      7  C   UNL     1      -0.639  10.531  18.441  0.00  0.00    +0.000 C 
ATOM      8  C   UNL     1       1.434   9.170  18.763  0.00  0.00    +0.000 C 
ATOM      9  C   UNL     1       1.545   8.398  19.855  0.00  0.00    +0.000 C 
ATOM     10  C   UNL     1       0.875   9.057  21.027  0.00  0.00    +0.000 C 
ATOM     11  C   UNL     1       1.728   9.110  22.304  0.00  0.00    +0.000 C 
ATOM     12  C   UNL     1      -0.492   8.435  21.362  0.00  0.00    +0.000 C 
ATOM     13  N   UNL     1       0.628  10.463  20.557  0.00  0.00    +0.000 NA
ATOM     14  H   UNL     1       1.366  11.054  20.939  0.00  0.00    +0.000 HD
ENDBRANCH   1   9
BRANCH   3  15
ATOM     15  C   UNL     1       2.115   4.865  21.068  0.00  0.00    +0.000 C 
BRANCH  15  16
ATOM     16  C   UNL     1       1.301   3.845  20.282  0.00  0.00    +0.000 C 
BRANCH  16  17
ATOM     17  C   UNL     1       2.214   2.874  19.542  0.00  0.00    +0.000 C 
BRANCH  17  18
ATOM     18  N   UNL     1       3.098   3.567  18.632  0.00  0.00    +0.000 N 
ATOM     19  C   UNL     1       4.472   3.536  18.739  0.00  0.00    +0.000 C 
ATOM     20  O   UNL     1       5.036   2.920  19.644  0.00  0.00    +0.000 OA
ATOM     21  H   UNL     1       2.703   4.028  17.822  0.00  0.00    +0.000 HD
BRANCH  19  22
ATOM     22  C   UNL     1       5.197   4.282  17.715  0.00  0.00    +0.000 A 
ATOM     23  C   UNL     1       4.779   4.546  16.421  0.00  0.00    +0.000 A 
ATOM     24  C   UNL     1       5.737   5.296  15.677  0.00  0.00    +0.000 A 
ATOM     25  C   UNL     1       6.856   5.584  16.422  0.00  0.00    +0.000 A 
ATOM     26  S   UNL     1       6.750   4.956  18.007  0.00  0.00    +0.000 S 
ENDBRANCH  19  22
ENDBRANCH  17  18
ENDBRANCH  16  17
ENDBRANCH  15  16
ENDBRANCH   3  15
TORSDOF 6
ENDMDL
MODEL 6
REMARK VINA RESULT:      -6.9      3.361      5.818
REMARK  Name = 
REMARK  10 active torsions:
REMARK  status: ('A' for Active; 'I' for Inactive)
REMARK    1  A    between atoms: C_1  and  C_2
REMARK    2  A    between atoms: C_2  and  C_3
REMARK    3  A    between atoms: C_5  and  C_6
REMARK    4  A    between atoms: N_8  and  C_9
REMARK    5  A    between atoms: C_9  and  C_10
REMARK    6  A    between atoms: C_10  and  C_11
REMARK    7  A    between atoms: C_11  and  N_12
REMARK    8  A    between atoms: C_13  and  C_15
REMARK    9  A    between atoms: C_20  and  C_21
REMARK   10  A    between atoms: C_20  and  C_22
REMARK                            x       y       z     vdW  Elec       q    Type
REMARK                         _______ _______ _______ _____ _____    ______ ____
ROOT
ATOM      1  C   UNL     1       4.936   3.938  18.590  0.00  0.00    +0.000 C 
ATOM      2  O   UNL     1       5.574   3.847  19.628  0.00  0.00    +0.000 OA
ATOM      3  N   UNL     1       3.633   3.517  18.447  0.00  0.00    +0.000 N 
ATOM      4  H   UNL     1       3.222   3.484  17.526  0.00  0.00    +0.000 HD
ENDROOT
BRANCH   1   9
ATOM      5  C   UNL     1       6.126   4.101  13.942  0.00  0.00    +0.000 C 
ATOM      6  C   UNL     1       5.872   5.061  15.110  0.00  0.00    +0.000 C 
ATOM      7  C   UNL     1       5.267   6.365  14.578  0.00  0.00    +0.000 C 
ATOM      8  C   UNL     1       4.990   4.422  16.127  0.00  0.00    +0.000 C 
ATOM      9  C   UNL     1       5.539   4.480  17.350  0.00  0.00    +0.000 C 
ATOM     10  C   UNL     1       6.834   5.241  17.304  0.00  0.00    +0.000 C 
ATOM     11  C   UNL     1       8.014   4.537  17.992  0.00  0.00    +0.000 C 
ATOM     12  C   UNL     1       6.708   6.669  17.861  0.00  0.00    +0.000 C 
ATOM     13  N   UNL     1       7.132   5.353  15.835  0.00  0.00    +0.000 NA
ATOM     14  H   UNL     1       7.813   4.632  15.599  0.00  0.00    +0.000 HD
ENDBRANCH   1   9
BRANCH   3  15
ATOM     15  C   UNL     1       2.854   2.970  19.540  0.00  0.00    +0.000 C 
BRANCH  15  16
ATOM     16  C   UNL     1       1.754   3.926  19.980  0.00  0.00    +0.000 C 
BRANCH  16  17
ATOM     17  C   UNL     1       2.280   4.929  21.000  0.00  0.00    +0.000 C 
BRANCH  17  18
ATOM     18  N   UNL     1       1.836   6.272  20.701  0.00  0.00    +0.000 N 
ATOM     19  C   UNL     1       2.302   7.004  19.629  0.00  0.00    +0.000 C 
ATOM     20  O   UNL     1       3.153   6.555  18.861  0.00  0.00    +0.000 OA
ATOM     21  H   UNL     1       1.083   6.671  21.246  0.00  0.00    +0.000 HD
BRANCH  19  22
ATOM     22  C   UNL     1       1.720   8.334  19.479  0.00  0.00    +0.000 A 
ATOM     23  C   UNL     1       1.772   9.147  18.358  0.00  0.00    +0.000 A 
ATOM     24  C   UNL     1       1.105  10.392  18.551  0.00  0.00    +0.000 A 
ATOM     25  C   UNL     1       0.562  10.495  19.811  0.00  0.00    +0.000 A 
ATOM     26  S   UNL     1       0.854   9.099  20.750  0.00  0.00    +0.000 S 
ENDBRANCH  19  22
ENDBRANCH  17  18
ENDBRANCH  16  17
ENDBRANCH  15  16
ENDBRANCH   3  15
TORSDOF 6
ENDMDL
MODEL 7
REMARK VINA RESULT:      -6.9      6.072      7.743
REMARK  Name = 
REMARK  10 active torsions:
REMARK  status: ('A' for Active; 'I' for Inactive)
REMARK    1  A    between atoms: C_1  and  C_2
REMARK    2  A    between atoms: C_2  and  C_3
REMARK    3  A    between atoms: C_5  and  C_6
REMARK    4  A    between atoms: N_8  and  C_9
REMARK    5  A    between atoms: C_9  and  C_10
REMARK    6  A    between atoms: C_10  and  C_11
REMARK    7  A    between atoms: C_11  and  N_12
REMARK    8  A    between atoms: C_13  and  C_15
REMARK    9  A    between atoms: C_20  and  C_21
REMARK   10  A    between atoms: C_20  and  C_22
REMARK                            x       y       z     vdW  Elec       q    Type
REMARK                         _______ _______ _______ _____ _____    ______ ____
ROOT
ATOM      1  C   UNL     1       4.569   5.265  19.183  0.00  0.00    +0.000 C 
ATOM      2  O   UNL     1       4.356   6.344  18.651  0.00  0.00    +0.000 OA
ATOM      3  N   UNL     1       5.817   4.831  19.568  0.00  0.00    +0.000 N 
ATOM      4  H   UNL     1       5.939   3.872  19.861  0.00  0.00    +0.000 HD
ENDROOT
BRANCH   1   9
ATOM      5  C   UNL     1       1.710   2.341  21.696  0.00  0.00    +0.000 C 
ATOM      6  C   UNL     1       1.685   3.157  20.398  0.00  0.00    +0.000 C 
ATOM      7  C   UNL     1       0.258   3.652  20.133  0.00  0.00    +0.000 C 
ATOM      8  C   UNL     1       2.653   4.287  20.475  0.00  0.00    +0.000 C 
ATOM      9  C   UNL     1       3.484   4.286  19.422  0.00  0.00    +0.000 C 
ATOM     10  C   UNL     1       3.115   3.185  18.469  0.00  0.00    +0.000 C 
ATOM     11  C   UNL     1       4.292   2.304  18.024  0.00  0.00    +0.000 C 
ATOM     12  C   UNL     1       2.373   3.697  17.222  0.00  0.00    +0.000 C 
ATOM     13  N   UNL     1       2.152   2.339  19.253  0.00  0.00    +0.000 NA
ATOM     14  H   UNL     1       2.667   1.538  19.619  0.00  0.00    +0.000 HD
ENDBRANCH   1   9
BRANCH   3  15
ATOM     15  C   UNL     1       7.013   5.639  19.436  0.00  0.00    +0.000 C 
BRANCH  15  16
ATOM     16  C   UNL     1       7.776   5.310  18.159  0.00  0.00    +0.000 C 
BRANCH  16  17
ATOM     17  C   UNL     1       7.385   6.259  17.032  0.00  0.00    +0.000 C 
BRANCH  17  18
ATOM     18  N   UNL     1       7.334   5.577  15.758  0.00  0.00    +0.000 N 
ATOM     19  C   UNL     1       6.160   5.157  15.170  0.00  0.00    +0.000 C 
ATOM     20  O   UNL     1       5.068   5.326  15.714  0.00  0.00    +0.000 OA
ATOM     21  H   UNL     1       8.187   5.475  15.224  0.00  0.00    +0.000 HD
BRANCH  19  22
ATOM     22  C   UNL     1       6.308   4.504  13.873  0.00  0.00    +0.000 A 
ATOM     23  C   UNL     1       5.487   3.529  13.331  0.00  0.00    +0.000 A 
ATOM     24  C   UNL     1       5.923   3.098  12.043  0.00  0.00    +0.000 A 
ATOM     25  C   UNL     1       7.061   3.756  11.639  0.00  0.00    +0.000 A 
ATOM     26  S   UNL     1       7.597   4.884  12.803  0.00  0.00    +0.000 S 
ENDBRANCH  19  22
ENDBRANCH  17  18
ENDBRANCH  16  17
ENDBRANCH  15  16
ENDBRANCH   3  15
TORSDOF 6
ENDMDL
MODEL 8
REMARK VINA RESULT:      -6.8      2.684      3.520
REMARK  Name = 
REMARK  10 active torsions:
REMARK  status: ('A' for Active; 'I' for Inactive)
REMARK    1  A    between atoms: C_1  and  C_2
REMARK    2  A    between atoms: C_2  and  C_3
REMARK    3  A    between atoms: C_5  and  C_6
REMARK    4  A    between atoms: N_8  and  C_9
REMARK    5  A    between atoms: C_9  and  C_10
REMARK    6  A    between atoms: C_10  and  C_11
REMARK    7  A    between atoms: C_11  and  N_12
REMARK    8  A    between atoms: C_13  and  C_15
REMARK    9  A    between atoms: C_20  and  C_21
REMARK   10  A    between atoms: C_20  and  C_22
REMARK                            x       y       z     vdW  Elec       q    Type
REMARK                         _______ _______ _______ _____ _____    ______ ____
ROOT
ATOM      1  C   UNL     1       3.164   6.556  17.893  0.00  0.00    +0.000 C 
ATOM      2  O   UNL     1       4.111   6.776  17.152  0.00  0.00    +0.000 OA
ATOM      3  N   UNL     1       2.234   7.504  18.256  0.00  0.00    +0.000 N 
ATOM      4  H   UNL     1       1.570   7.292  18.987  0.00  0.00    +0.000 HD
ENDROOT
BRANCH   1   9
ATOM      5  C   UNL     1       1.474   3.357  21.049  0.00  0.00    +0.000 C 
ATOM      6  C   UNL     1       1.953   3.412  19.593  0.00  0.00    +0.000 C 
ATOM      7  C   UNL     1       1.175   2.387  18.760  0.00  0.00    +0.000 C 
ATOM      8  C   UNL     1       1.804   4.790  19.047  0.00  0.00    +0.000 C 
ATOM      9  C   UNL     1       2.956   5.230  18.518  0.00  0.00    +0.000 C 
ATOM     10  C   UNL     1       4.003   4.154  18.583  0.00  0.00    +0.000 C 
ATOM     11  C   UNL     1       5.351   4.609  19.162  0.00  0.00    +0.000 C 
ATOM     12  C   UNL     1       4.244   3.471  17.226  0.00  0.00    +0.000 C 
ATOM     13  N   UNL     1       3.406   3.129  19.506  0.00  0.00    +0.000 NA
ATOM     14  H   UNL     1       3.816   3.264  20.430  0.00  0.00    +0.000 HD
ENDBRANCH   1   9
BRANCH   3  15
ATOM     15  C   UNL     1       2.246   8.861  17.746  0.00  0.00    +0.000 C 
BRANCH  15  16
ATOM     16  C   UNL     1       0.965   9.606  18.099  0.00  0.00    +0.000 C 
BRANCH  16  17
ATOM     17  C   UNL     1       1.269  10.855  18.918  0.00  0.00    +0.000 C 
BRANCH  17  18
ATOM     18  N   UNL     1       0.123  11.271  19.695  0.00  0.00    +0.000 N 
ATOM     19  C   UNL     1       0.092  11.251  21.072  0.00  0.00    +0.000 C 
ATOM     20  O   UNL     1       1.050  10.851  21.734  0.00  0.00    +0.000 OA
ATOM     21  H   UNL     1      -0.668  11.683  19.216  0.00  0.00    +0.000 HD
BRANCH  19  22
ATOM     22  C   UNL     1      -1.146  11.729  21.679  0.00  0.00    +0.000 A 
ATOM     23  C   UNL     1      -1.531  11.604  23.003  0.00  0.00    +0.000 A 
ATOM     24  C   UNL     1      -2.811  12.177  23.261  0.00  0.00    +0.000 A 
ATOM     25  C   UNL     1      -3.366  12.724  22.128  0.00  0.00    +0.000 A 
ATOM     26  S   UNL     1      -2.350  12.548  20.767  0.00  0.00    +0.000 S 
ENDBRANCH  19  22
ENDBRANCH  17  18
ENDBRANCH  16  17
ENDBRANCH  15  16
ENDBRANCH   3  15
TORSDOF 6
ENDMDL
MODEL 9
REMARK VINA RESULT:      -6.8      3.008      8.108
REMARK  Name = 
REMARK  10 active torsions:
REMARK  status: ('A' for Active; 'I' for Inactive)
REMARK    1  A    between atoms: C_1  and  C_2
REMARK    2  A    between atoms: C_2  and  C_3
REMARK    3  A    between atoms: C_5  and  C_6
REMARK    4  A    between atoms: N_8  and  C_9
REMARK    5  A    between atoms: C_9  and  C_10
REMARK    6  A    between atoms: C_10  and  C_11
REMARK    7  A    between atoms: C_11  and  N_12
REMARK    8  A    between atoms: C_13  and  C_15
REMARK    9  A    between atoms: C_20  and  C_21
REMARK   10  A    between atoms: C_20  and  C_22
REMARK                            x       y       z     vdW  Elec       q    Type
REMARK                         _______ _______ _______ _____ _____    ______ ____
ROOT
ATOM      1  C   UNL     1       0.331   9.828  18.961  0.00  0.00    +0.000 C 
ATOM      2  O   UNL     1       0.605  10.016  20.137  0.00  0.00    +0.000 OA
ATOM      3  N   UNL     1       1.079   9.045  18.111  0.00  0.00    +0.000 N 
ATOM      4  H   UNL     1       0.879   9.057  17.122  0.00  0.00    +0.000 HD
ENDROOT
BRANCH   1   9
ATOM      5  C   UNL     1      -2.838  10.831  15.497  0.00  0.00    +0.000 C 
ATOM      6  C   UNL     1      -2.750  10.836  17.028  0.00  0.00    +0.000 C 
ATOM      7  C   UNL     1      -4.124  10.500  17.619  0.00  0.00    +0.000 C 
ATOM      8  C   UNL     1      -1.704   9.882  17.492  0.00  0.00    +0.000 C 
ATOM      9  C   UNL     1      -0.833  10.481  18.319  0.00  0.00    +0.000 C 
ATOM     10  C   UNL     1      -1.245  11.904  18.566  0.00  0.00    +0.000 C 
ATOM     11  C   UNL     1      -0.121  12.936  18.386  0.00  0.00    +0.000 C 
ATOM     12  C   UNL     1      -1.897  12.108  19.944  0.00  0.00    +0.000 C 
ATOM     13  N   UNL     1      -2.300  12.158  17.525  0.00  0.00    +0.000 NA
ATOM     14  H   UNL     1      -1.862  12.660  16.753  0.00  0.00    +0.000 HD
ENDBRANCH   1   9
BRANCH   3  15
ATOM     15  C   UNL     1       2.250   8.307  18.541  0.00  0.00    +0.000 C 
BRANCH  15  16
ATOM     16  C   UNL     1       3.330   8.291  17.466  0.00  0.00    +0.000 C 
BRANCH  16  17
ATOM     17  C   UNL     1       4.042   6.943  17.432  0.00  0.00    +0.000 C 
BRANCH  17  18
ATOM     18  N   UNL     1       3.307   5.936  18.164  0.00  0.00    +0.000 N 
ATOM     19  C   UNL     1       3.824   5.257  19.246  0.00  0.00    +0.000 C 
ATOM     20  O   UNL     1       4.970   5.459  19.648  0.00  0.00    +0.000 OA
ATOM     21  H   UNL     1       2.334   5.777  17.934  0.00  0.00    +0.000 HD
BRANCH  19  22
ATOM     22  C   UNL     1       2.923   4.291  19.868  0.00  0.00    +0.000 A 
ATOM     23  C   UNL     1       2.292   4.408  21.095  0.00  0.00    +0.000 A 
ATOM     24  C   UNL     1       1.484   3.275  21.407  0.00  0.00    +0.000 A 
ATOM     25  C   UNL     1       1.520   2.328  20.411  0.00  0.00    +0.000 A 
ATOM     26  S   UNL     1       2.520   2.803  19.111  0.00  0.00    +0.000 S 
ENDBRANCH  19  22
ENDBRANCH  17  18
ENDBRANCH  16  17
ENDBRANCH  15  16
ENDBRANCH   3  15
TORSDOF 6
ENDMDL
