MODEL 1
REMARK VINA RESULT:      -6.0      0.000      0.000
REMARK  Name = 
REMARK  5 active torsions:
REMARK  status: ('A' for Active; 'I' for Inactive)
REMARK    1  A    between atoms: C_2  and  N_4
REMARK    2  A    between atoms: N_7  and  C_8
REMARK    3  A    between atoms: C_8  and  C_9
REMARK    4  A    between atoms: C_9  and  C_10
REMARK    5  A    between atoms: C_10  and  O_12
REMARK                            x       y       z     vdW  Elec       q    Type
REMARK                         _______ _______ _______ _____ _____    ______ ____
ROOT
ATOM      1  N   UNL     1       3.385   3.484  19.889  0.00  0.00    +0.000 NA
ATOM      2  C   UNL     1       4.531   2.933  19.674  0.00  0.00    +0.000 C 
ATOM      3  N   UNL     1       4.995   1.749  20.156  0.00  0.00    +0.000 N 
ATOM      4  N   UNL     1       5.509   3.484  18.900  0.00  0.00    +0.000 N 
ATOM      5  H   UNL     1       4.332   1.416  20.870  0.00  0.00    +0.000 HD
ATOM      6  H   UNL     1       5.909   1.849  20.573  0.00  0.00    +0.000 HD
ATOM      7  H   UNL     1       6.061   2.787  18.413  0.00  0.00    +0.000 HD
ENDROOT
BRANCH   1   9
ATOM      8  N   UNL     1       2.665   2.633  21.916  0.00  0.00    +0.000 NA
ATOM      9  C   UNL     1       2.435   2.913  20.678  0.00  0.00    +0.000 C 
ATOM     10  N   UNL     1       1.233   2.656  20.117  0.00  0.00    +0.000 N 
ATOM     11  H   UNL     1       1.804   2.248  22.309  0.00  0.00    +0.000 HD
ATOM     12  H   UNL     1       0.708   1.893  20.517  0.00  0.00    +0.000 HD
ATOM     13  H   UNL     1       1.300   2.608  19.107  0.00  0.00    +0.000 HD
ENDBRANCH   1   9
BRANCH   4  14
ATOM     14  C   UNL     1       5.347   4.736  18.181  0.00  0.00    +0.000 C 
BRANCH  14  15
ATOM     15  C   UNL     1       5.684   4.507  16.716  0.00  0.00    +0.000 C 
BRANCH  15  16
ATOM     16  C   UNL     1       7.113   4.875  16.443  0.00  0.00    +0.000 C 
ATOM     17  O   UNL     1       7.478   5.713  15.636  0.00  0.00    +0.000 OA
BRANCH  16  18
ATOM     18  O   UNL     1       7.994   4.129  17.154  0.00  0.00    +0.000 OA
ATOM     19  H   UNL     1       8.699   3.722  16.613  0.00  0.00    +0.000 HD
ENDBRANCH  16  18
ENDBRANCH  15  16
ENDBRANCH  14  15
ENDBRANCH   4  14
TORSDOF 5
ENDMDL
MODEL 2
REMARK VINA RESULT:      -5.9      0.689      1.075
REMARK  Name = 
REMARK  5 active torsions:
REMARK  status: ('A' for Active; 'I' for Inactive)
REMARK    1  A    between atoms: C_2  and  N_4
REMARK    2  A    between atoms: N_7  and  C_8
REMARK    3  A    between atoms: C_8  and  C_9
REMARK    4  A    between atoms: C_9  and  C_10
REMARK    5  A    between atoms: C_10  and  O_12
REMARK                            x       y       z     vdW  Elec       q    Type
REMARK                         _______ _______ _______ _____ _____    ______ ____
ROOT
ATOM      1  N   UNL     1       3.255   3.303  19.242  0.00  0.00    +0.000 NA
ATOM      2  C   UNL     1       4.463   2.893  19.437  0.00  0.00    +0.000 C 
ATOM      3  N   UNL     1       4.869   1.724  20.001  0.00  0.00    +0.000 N 
ATOM      4  N   UNL     1       5.575   3.607  19.103  0.00  0.00    +0.000 N 
ATOM      5  H   UNL     1       4.042   1.264  20.407  0.00  0.00    +0.000 HD
ATOM      6  H   UNL     1       5.552   1.879  20.730  0.00  0.00    +0.000 HD
ATOM      7  H   UNL     1       6.348   3.016  18.821  0.00  0.00    +0.000 HD
ENDROOT
BRANCH   1   9
ATOM      8  N   UNL     1       1.756   1.578  18.886  0.00  0.00    +0.000 NA
ATOM      9  C   UNL     1       2.167   2.571  19.600  0.00  0.00    +0.000 C 
ATOM     10  N   UNL     1       1.532   2.918  20.741  0.00  0.00    +0.000 N 
ATOM     11  H   UNL     1       0.953   1.166  19.365  0.00  0.00    +0.000 HD
ATOM     12  H   UNL     1       0.548   2.698  20.789  0.00  0.00    +0.000 HD
ATOM     13  H   UNL     1       1.739   3.875  21.002  0.00  0.00    +0.000 HD
ENDBRANCH   1   9
BRANCH   4  14
ATOM     14  C   UNL     1       5.524   4.895  18.432  0.00  0.00    +0.000 C 
BRANCH  14  15
ATOM     15  C   UNL     1       5.711   4.678  16.939  0.00  0.00    +0.000 C 
BRANCH  15  16
ATOM     16  C   UNL     1       7.135   4.941  16.545  0.00  0.00    +0.000 C 
ATOM     17  O   UNL     1       7.489   5.731  15.687  0.00  0.00    +0.000 OA
BRANCH  16  18
ATOM     18  O   UNL     1       8.018   4.153  17.208  0.00  0.00    +0.000 OA
ATOM     19  H   UNL     1       8.476   3.502  16.640  0.00  0.00    +0.000 HD
ENDBRANCH  16  18
ENDBRANCH  15  16
ENDBRANCH  14  15
ENDBRANCH   4  14
TORSDOF 5
ENDMDL
MODEL 3
REMARK VINA RESULT:      -5.9      0.951      1.328
REMARK  Name = 
REMARK  5 active torsions:
REMARK  status: ('A' for Active; 'I' for Inactive)
REMARK    1  A    between atoms: C_2  and  N_4
REMARK    2  A    between atoms: N_7  and  C_8
REMARK    3  A    between atoms: C_8  and  C_9
REMARK    4  A    between atoms: C_9  and  C_10
REMARK    5  A    between atoms: C_10  and  O_12
REMARK                            x       y       z     vdW  Elec       q    Type
REMARK                         _______ _______ _______ _____ _____    ______ ____
ROOT
ATOM      1  N   UNL     1       3.269   3.428  19.766  0.00  0.00    +0.000 NA
ATOM      2  C   UNL     1       4.457   2.954  19.598  0.00  0.00    +0.000 C 
ATOM      3  N   UNL     1       5.035   1.901  20.235  0.00  0.00    +0.000 N 
ATOM      4  N   UNL     1       5.366   3.465  18.721  0.00  0.00    +0.000 N 
ATOM      5  H   UNL     1       4.420   1.623  21.012  0.00  0.00    +0.000 HD
ATOM      6  H   UNL     1       5.944   2.142  20.604  0.00  0.00    +0.000 HD
ATOM      7  H   UNL     1       5.970   2.754  18.324  0.00  0.00    +0.000 HD
ENDROOT
BRANCH   1   9
ATOM      8  N   UNL     1       2.744   2.618  21.868  0.00  0.00    +0.000 NA
ATOM      9  C   UNL     1       2.390   2.903  20.660  0.00  0.00    +0.000 C 
ATOM     10  N   UNL     1       1.124   2.695  20.239  0.00  0.00    +0.000 N 
ATOM     11  H   UNL     1       1.917   2.272  22.357  0.00  0.00    +0.000 HD
ATOM     12  H   UNL     1       0.614   1.956  20.701  0.00  0.00    +0.000 HD
ATOM     13  H   UNL     1       1.075   2.639  19.228  0.00  0.00    +0.000 HD
ENDBRANCH   1   9
BRANCH   4  14
ATOM     14  C   UNL     1       5.077   4.576  17.829  0.00  0.00    +0.000 C 
BRANCH  14  15
ATOM     15  C   UNL     1       6.207   5.588  17.924  0.00  0.00    +0.000 C 
BRANCH  15  16
ATOM     16  C   UNL     1       7.499   4.902  18.260  0.00  0.00    +0.000 C 
ATOM     17  O   UNL     1       8.099   5.017  19.315  0.00  0.00    +0.000 OA
BRANCH  16  18
ATOM     18  O   UNL     1       7.987   4.166  17.231  0.00  0.00    +0.000 OA
ATOM     19  H   UNL     1       7.298   3.743  16.682  0.00  0.00    +0.000 HD
ENDBRANCH  16  18
ENDBRANCH  15  16
ENDBRANCH  14  15
ENDBRANCH   4  14
TORSDOF 5
ENDMDL
MODEL 4
REMARK VINA RESULT:      -5.8      1.334      1.835
REMARK  Name = 
REMARK  5 active torsions:
REMARK  status: ('A' for Active; 'I' for Inactive)
REMARK    1  A    between atoms: C_2  and  N_4
REMARK    2  A    between atoms: N_7  and  C_8
REMARK    3  A    between atoms: C_8  and  C_9
REMARK    4  A    between atoms: C_9  and  C_10
REMARK    5  A    between atoms: C_10  and  O_12
REMARK                            x       y       z     vdW  Elec       q    Type
REMARK                         _______ _______ _______ _____ _____    ______ ____
ROOT
ATOM      1  N   UNL     1       3.163   3.380  19.088  0.00  0.00    +0.000 NA
ATOM      2  C   UNL     1       4.414   3.093  19.223  0.00  0.00    +0.000 C 
ATOM      3  N   UNL     1       4.963   1.919  19.636  0.00  0.00    +0.000 N 
ATOM      4  N   UNL     1       5.429   3.967  18.970  0.00  0.00    +0.000 N 
ATOM      5  H   UNL     1       4.203   1.320  19.988  0.00  0.00    +0.000 HD
ATOM      6  H   UNL     1       5.639   2.063  20.372  0.00  0.00    +0.000 HD
ATOM      7  H   UNL     1       6.259   3.509  18.612  0.00  0.00    +0.000 HD
ENDROOT
BRANCH   1   9
ATOM      8  N   UNL     1       1.940   1.481  18.589  0.00  0.00    +0.000 NA
ATOM      9  C   UNL     1       2.173   2.489  19.361  0.00  0.00    +0.000 C 
ATOM     10  N   UNL     1       1.444   2.692  20.479  0.00  0.00    +0.000 N 
ATOM     11  H   UNL     1       1.183   0.940  19.010  0.00  0.00    +0.000 HD
ATOM     12  H   UNL     1       0.500   2.335  20.469  0.00  0.00    +0.000 HD
ATOM     13  H   UNL     1       1.502   3.656  20.788  0.00  0.00    +0.000 HD
ENDBRANCH   1   9
BRANCH   4  14
ATOM     14  C   UNL     1       5.216   5.312  18.463  0.00  0.00    +0.000 C 
BRANCH  14  15
ATOM     15  C   UNL     1       6.521   5.828  17.880  0.00  0.00    +0.000 C 
BRANCH  15  16
ATOM     16  C   UNL     1       7.676   4.998  18.361  0.00  0.00    +0.000 C 
ATOM     17  O   UNL     1       8.199   5.097  19.457  0.00  0.00    +0.000 OA
BRANCH  16  18
ATOM     18  O   UNL     1       8.138   4.141  17.417  0.00  0.00    +0.000 OA
ATOM     19  H   UNL     1       9.101   4.202  17.261  0.00  0.00    +0.000 HD
ENDBRANCH  16  18
ENDBRANCH  15  16
ENDBRANCH  14  15
ENDBRANCH   4  14
TORSDOF 5
ENDMDL
MODEL 5
REMARK VINA RESULT:      -5.6      3.269      5.083
REMARK  Name = 
REMARK  5 active torsions:
REMARK  status: ('A' for Active; 'I' for Inactive)
REMARK    1  A    between atoms: C_2  and  N_4
REMARK    2  A    between atoms: N_7  and  C_8
REMARK    3  A    between atoms: C_8  and  C_9
REMARK    4  A    between atoms: C_9  and  C_10
REMARK    5  A    between atoms: C_10  and  O_12
REMARK                            x       y       z     vdW  Elec       q    Type
REMARK                         _______ _______ _______ _____ _____    ______ ____
ROOT
ATOM      1  N   UNL     1       6.368   5.074  19.457  0.00  0.00    +0.000 NA
ATOM      2  C   UNL     1       5.914   4.357  18.486  0.00  0.00    +0.000 C 
ATOM      3  N   UNL     1       6.512   4.085  17.295  0.00  0.00    +0.000 N 
ATOM      4  N   UNL     1       4.699   3.738  18.498  0.00  0.00    +0.000 N 
ATOM      5  H   UNL     1       7.345   4.685  17.215  0.00  0.00    +0.000 HD
ATOM      6  H   UNL     1       5.894   4.270  16.518  0.00  0.00    +0.000 HD
ATOM      7  H   UNL     1       4.703   2.861  17.990  0.00  0.00    +0.000 HD
ENDROOT
BRANCH   1   9
ATOM      8  N   UNL     1       7.830   6.620  18.550  0.00  0.00    +0.000 NA
ATOM      9  C   UNL     1       7.579   5.690  19.409  0.00  0.00    +0.000 C 
ATOM     10  N   UNL     1       8.514   5.296  20.301  0.00  0.00    +0.000 N 
ATOM     11  H   UNL     1       8.781   6.951  18.725  0.00  0.00    +0.000 HD
ATOM     12  H   UNL     1       9.477   5.409  20.019  0.00  0.00    +0.000 HD
ATOM     13  H   UNL     1       8.311   4.372  20.664  0.00  0.00    +0.000 HD
ENDBRANCH   1   9
BRANCH   4  14
ATOM     14  C   UNL     1       3.798   3.771  19.637  0.00  0.00    +0.000 C 
BRANCH  14  15
ATOM     15  C   UNL     1       2.980   2.489  19.653  0.00  0.00    +0.000 C 
BRANCH  15  16
ATOM     16  C   UNL     1       3.027   1.821  18.310  0.00  0.00    +0.000 C 
ATOM     17  O   UNL     1       2.314   2.104  17.363  0.00  0.00    +0.000 OA
BRANCH  16  18
ATOM     18  O   UNL     1       3.921   0.802  18.260  0.00  0.00    +0.000 OA
ATOM     19  H   UNL     1       4.626   0.857  18.933  0.00  0.00    +0.000 HD
ENDBRANCH  16  18
ENDBRANCH  15  16
ENDBRANCH  14  15
ENDBRANCH   4  14
TORSDOF 5
ENDMDL
MODEL 6
REMARK VINA RESULT:      -5.6      3.453      5.389
REMARK  Name = 
REMARK  5 active torsions:
REMARK  status: ('A' for Active; 'I' for Inactive)
REMARK    1  A    between atoms: C_2  and  N_4
REMARK    2  A    between atoms: N_7  and  C_8
REMARK    3  A    between atoms: C_8  and  C_9
REMARK    4  A    between atoms: C_9  and  C_10
REMARK    5  A    between atoms: C_10  and  O_12
REMARK                            x       y       z     vdW  Elec       q    Type
REMARK                         _______ _______ _______ _____ _____    ______ ____
ROOT
ATOM      1  N   UNL     1       3.887   3.614  17.542  0.00  0.00    +0.000 NA
ATOM      2  C   UNL     1       4.154   3.121  18.704  0.00  0.00    +0.000 C 
ATOM      3  N   UNL     1       5.361   3.052  19.326  0.00  0.00    +0.000 N 
ATOM      4  N   UNL     1       3.225   2.554  19.525  0.00  0.00    +0.000 N 
ATOM      5  H   UNL     1       6.085   3.320  18.645  0.00  0.00    +0.000 HD
ATOM      6  H   UNL     1       5.554   2.119  19.663  0.00  0.00    +0.000 HD
ATOM      7  H   UNL     1       3.428   2.703  20.506  0.00  0.00    +0.000 HD
ENDROOT
BRANCH   1   9
ATOM      8  N   UNL     1       5.771   3.441  16.213  0.00  0.00    +0.000 NA
ATOM      9  C   UNL     1       4.840   4.160  16.741  0.00  0.00    +0.000 C 
ATOM     10  N   UNL     1       4.772   5.490  16.511  0.00  0.00    +0.000 N 
ATOM     11  H   UNL     1       6.343   4.057  15.632  0.00  0.00    +0.000 HD
ATOM     12  H   UNL     1       5.644   5.953  16.306  0.00  0.00    +0.000 HD
ATOM     13  H   UNL     1       4.229   5.961  17.225  0.00  0.00    +0.000 HD
ENDBRANCH   1   9
BRANCH   4  14
ATOM     14  C   UNL     1       1.809   2.493  19.204  0.00  0.00    +0.000 C 
BRANCH  14  15
ATOM     15  C   UNL     1       1.057   3.447  20.119  0.00  0.00    +0.000 C 
BRANCH  15  16
ATOM     16  C   UNL     1       1.901   3.808  21.307  0.00  0.00    +0.000 C 
ATOM     17  O   UNL     1       2.098   3.088  22.270  0.00  0.00    +0.000 OA
BRANCH  16  18
ATOM     18  O   UNL     1       2.393   5.070  21.238  0.00  0.00    +0.000 OA
ATOM     19  H   UNL     1       2.641   5.448  22.105  0.00  0.00    +0.000 HD
ENDBRANCH  16  18
ENDBRANCH  15  16
ENDBRANCH  14  15
ENDBRANCH   4  14
TORSDOF 5
ENDMDL
MODEL 7
REMARK VINA RESULT:      -5.5      3.715      5.622
REMARK  Name = 
REMARK  5 active torsions:
REMARK  status: ('A' for Active; 'I' for Inactive)
REMARK    1  A    between atoms: C_2  and  N_4
REMARK    2  A    between atoms: N_7  and  C_8
REMARK    3  A    between atoms: C_8  and  C_9
REMARK    4  A    between atoms: C_9  and  C_10
REMARK    5  A    between atoms: C_10  and  O_12
REMARK                            x       y       z     vdW  Elec       q    Type
REMARK                         _______ _______ _______ _____ _____    ______ ____
ROOT
ATOM      1  N   UNL     1       5.792   4.370  17.040  0.00  0.00    +0.000 NA
ATOM      2  C   UNL     1       5.267   4.337  18.218  0.00  0.00    +0.000 C 
ATOM      3  N   UNL     1       5.874   4.581  19.411  0.00  0.00    +0.000 N 
ATOM      4  N   UNL     1       3.963   4.027  18.465  0.00  0.00    +0.000 N 
ATOM      5  H   UNL     1       6.887   4.646  19.244  0.00  0.00    +0.000 HD
ATOM      6  H   UNL     1       5.695   3.843  20.077  0.00  0.00    +0.000 HD
ATOM      7  H   UNL     1       3.587   4.526  19.263  0.00  0.00    +0.000 HD
ENDROOT
BRANCH   1   9
ATOM      8  N   UNL     1       8.039   4.126  17.527  0.00  0.00    +0.000 NA
ATOM      9  C   UNL     1       7.100   4.670  16.829  0.00  0.00    +0.000 C 
ATOM     10  N   UNL     1       7.386   5.557  15.851  0.00  0.00    +0.000 N 
ATOM     11  H   UNL     1       8.930   4.476  17.170  0.00  0.00    +0.000 HD
ATOM     12  H   UNL     1       8.236   6.089  15.964  0.00  0.00    +0.000 HD
ATOM     13  H   UNL     1       6.582   6.134  15.630  0.00  0.00    +0.000 HD
ENDBRANCH   1   9
BRANCH   4  14
ATOM     14  C   UNL     1       2.996   3.752  17.416  0.00  0.00    +0.000 C 
BRANCH  14  15
ATOM     15  C   UNL     1       1.596   3.882  17.993  0.00  0.00    +0.000 C 
BRANCH  15  16
ATOM     16  C   UNL     1       1.398   2.904  19.115  0.00  0.00    +0.000 C 
ATOM     17  O   UNL     1       1.933   1.812  19.192  0.00  0.00    +0.000 OA
BRANCH  16  18
ATOM     18  O   UNL     1       0.498   3.332  20.034  0.00  0.00    +0.000 OA
ATOM     19  H   UNL     1       0.856   3.398  20.941  0.00  0.00    +0.000 HD
ENDBRANCH  16  18
ENDBRANCH  15  16
ENDBRANCH  14  15
ENDBRANCH   4  14
TORSDOF 5
ENDMDL
MODEL 8
REMARK VINA RESULT:      -5.5      3.567      5.545
REMARK  Name = 
REMARK  5 active torsions:
REMARK  status: ('A' for Active; 'I' for Inactive)
REMARK    1  A    between atoms: C_2  and  N_4
REMARK    2  A    between atoms: N_7  and  C_8
REMARK    3  A    between atoms: C_8  and  C_9
REMARK    4  A    between atoms: C_9  and  C_10
REMARK    5  A    between atoms: C_10  and  O_12
REMARK                            x       y       z     vdW  Elec       q    Type
REMARK                         _______ _______ _______ _____ _____    ______ ____
ROOT
ATOM      1  N   UNL     1       5.786   4.432  16.902  0.00  0.00    +0.000 NA
ATOM      2  C   UNL     1       5.305   4.355  18.096  0.00  0.00    +0.000 C 
ATOM      3  N   UNL     1       5.956   4.546  19.275  0.00  0.00    +0.000 N 
ATOM      4  N   UNL     1       4.008   4.044  18.378  0.00  0.00    +0.000 N 
ATOM      5  H   UNL     1       6.963   4.611  19.073  0.00  0.00    +0.000 HD
ATOM      6  H   UNL     1       5.796   3.783  19.917  0.00  0.00    +0.000 HD
ATOM      7  H   UNL     1       3.665   4.513  19.209  0.00  0.00    +0.000 HD
ENDROOT
BRANCH   1   9
ATOM      8  N   UNL     1       8.048   4.153  17.295  0.00  0.00    +0.000 NA
ATOM      9  C   UNL     1       7.089   4.732  16.655  0.00  0.00    +0.000 C 
ATOM     10  N   UNL     1       7.346   5.657  15.705  0.00  0.00    +0.000 N 
ATOM     11  H   UNL     1       8.928   4.511  16.920  0.00  0.00    +0.000 HD
ATOM     12  H   UNL     1       8.204   6.178  15.808  0.00  0.00    +0.000 HD
ATOM     13  H   UNL     1       6.540   6.248  15.538  0.00  0.00    +0.000 HD
ENDBRANCH   1   9
BRANCH   4  14
ATOM     14  C   UNL     1       3.001   3.819  17.354  0.00  0.00    +0.000 C 
BRANCH  14  15
ATOM     15  C   UNL     1       1.657   3.598  18.029  0.00  0.00    +0.000 C 
BRANCH  15  16
ATOM     16  C   UNL     1       1.741   2.461  19.006  0.00  0.00    +0.000 C 
ATOM     17  O   UNL     1       1.288   2.476  20.137  0.00  0.00    +0.000 OA
BRANCH  16  18
ATOM     18  O   UNL     1       2.438   1.403  18.523  0.00  0.00    +0.000 OA
ATOM     19  H   UNL     1       2.724   0.768  19.209  0.00  0.00    +0.000 HD
ENDBRANCH  16  18
ENDBRANCH  15  16
ENDBRANCH  14  15
ENDBRANCH   4  14
TORSDOF 5
ENDMDL
MODEL 9
REMARK VINA RESULT:      -5.5      3.592      5.821
REMARK  Name = 
REMARK  5 active torsions:
REMARK  status: ('A' for Active; 'I' for Inactive)
REMARK    1  A    between atoms: C_2  and  N_4
REMARK    2  A    between atoms: N_7  and  C_8
REMARK    3  A    between atoms: C_8  and  C_9
REMARK    4  A    between atoms: C_9  and  C_10
REMARK    5  A    between atoms: C_10  and  O_12
REMARK                            x       y       z     vdW  Elec       q    Type
REMARK                         _______ _______ _______ _____ _____    ______ ____
ROOT
ATOM      1  N   UNL     1       5.962   4.308  15.559  0.00  0.00    +0.000 NA
ATOM      2  C   UNL     1       6.538   4.267  16.713  0.00  0.00    +0.000 C 
ATOM      3  N   UNL     1       7.868   4.340  16.986  0.00  0.00    +0.000 N 
ATOM      4  N   UNL     1       5.873   4.127  17.894  0.00  0.00    +0.000 N 
ATOM      5  H   UNL     1       8.379   4.273  16.096  0.00  0.00    +0.000 HD
ATOM      6  H   UNL     1       8.165   3.590  17.595  0.00  0.00    +0.000 HD
ATOM      7  H   UNL     1       6.324   4.617  18.658  0.00  0.00    +0.000 HD
ENDROOT
BRANCH   1   9
ATOM      8  N   UNL     1       7.534   5.366  14.234  0.00  0.00    +0.000 NA
ATOM      9  C   UNL     1       6.656   4.435  14.398  0.00  0.00    +0.000 C 
ATOM     10  N   UNL     1       6.399   3.541  13.418  0.00  0.00    +0.000 N 
ATOM     11  H   UNL     1       7.944   5.242  13.306  0.00  0.00    +0.000 HD
ATOM     12  H   UNL     1       6.558   3.855  12.472  0.00  0.00    +0.000 HD
ATOM     13  H   UNL     1       5.493   3.105  13.545  0.00  0.00    +0.000 HD
ENDBRANCH   1   9
BRANCH   4  14
ATOM     14  C   UNL     1       4.424   4.065  17.991  0.00  0.00    +0.000 C 
BRANCH  14  15
ATOM     15  C   UNL     1       4.025   4.171  19.454  0.00  0.00    +0.000 C 
BRANCH  15  16
ATOM     16  C   UNL     1       3.899   2.805  20.063  0.00  0.00    +0.000 C 
ATOM     17  O   UNL     1       2.932   2.406  20.691  0.00  0.00    +0.000 OA
BRANCH  16  18
ATOM     18  O   UNL     1       5.013   2.050  19.900  0.00  0.00    +0.000 OA
ATOM     19  H   UNL     1       4.856   1.088  19.971  0.00  0.00    +0.000 HD
ENDBRANCH  16  18
ENDBRANCH  15  16
ENDBRANCH  14  15
ENDBRANCH   4  14
TORSDOF 5
ENDMDL
