MODEL 1
REMARK VINA RESULT:      -7.6      0.000      0.000
REMARK  Name = 
REMARK  7 active torsions:
REMARK  status: ('A' for Active; 'I' for Inactive)
REMARK    1  A    between atoms: C_2  and  C_3
REMARK    2  A    between atoms: C_3  and  C_4
REMARK    3  A    between atoms: C_4  and  C_5
REMARK    4  A    between atoms: C_5  and  C_6
REMARK    5  A    between atoms: N_7  and  N_8
REMARK    6  A    between atoms: C_11  and  C_12
REMARK    7  A    between atoms: C_16  and  N_17
REMARK                            x       y       z     vdW  Elec       q    Type
REMARK                         _______ _______ _______ _____ _____    ______ ____
ROOT
ATOM      1  N   UNL     1       4.795   3.552  18.818  0.00  0.00    +0.000 N 
ATOM      2  C   UNL     1       5.568   4.176  17.892  0.00  0.00    +0.000 A 
ATOM      3  N   UNL     1       5.559   3.958  16.596  0.00  0.00    +0.000 NA
ATOM      4  C   UNL     1       6.514   4.728  15.961  0.00  0.00    +0.000 A 
ATOM      5  C   UNL     1       7.184   5.611  16.776  0.00  0.00    +0.000 A 
ATOM      6  S   UNL     1       6.695   5.386  18.402  0.00  0.00    +0.000 S 
ATOM      7  H   UNL     1       5.119   3.610  19.775  0.00  0.00    +0.000 HD
ENDROOT
BRANCH   4   8
ATOM      8  C   UNL     1       6.730   4.603  14.522  0.00  0.00    +0.000 A 
ATOM      9  C   UNL     1       7.684   5.383  13.850  0.00  0.00    +0.000 A 
ATOM     10  C   UNL     1       7.853   5.265  12.467  0.00  0.00    +0.000 A 
ATOM     11  C   UNL     1       7.080   4.360  11.743  0.00  0.00    +0.000 A 
ATOM     12  C   UNL     1       6.147   3.557  12.415  0.00  0.00    +0.000 A 
ATOM     13  C   UNL     1       5.980   3.666  13.800  0.00  0.00    +0.000 A 
BRANCH  12  14
ATOM     14  N   UNL     1       5.326   2.604  11.655  0.00  0.00    +0.000 N 
ATOM     15  O   UNL     1       4.188   2.970  11.322  0.00  0.00    +0.000 OA
ATOM     16  O   UNL     1       5.810   1.495  11.402  0.00  0.00    +0.000 OA
ENDBRANCH  12  14
ENDBRANCH   4   8
BRANCH   1  19
ATOM     17  C   UNL     1       2.498   3.343  18.680  0.00  0.00    +0.000 C 
ATOM     18  C   UNL     1       1.361   2.496  18.148  0.00  0.00    +0.000 C 
ATOM     19  N   UNL     1       3.685   2.846  18.486  0.00  0.00    +0.000 NA
BRANCH  17  20
ATOM     20  C   UNL     1       2.195   4.710  19.284  0.00  0.00    +0.000 C 
BRANCH  20  21
ATOM     21  C   UNL     1       1.403   4.645  20.588  0.00  0.00    +0.000 C 
BRANCH  21  23
ATOM     22  C   UNL     1       1.673   2.517  21.889  0.00  0.00    +0.000 C 
ATOM     23  C   UNL     1       2.069   3.763  21.604  0.00  0.00    +0.000 C 
ENDBRANCH  21  23
ENDBRANCH  20  21
ENDBRANCH  17  20
ENDBRANCH   1  19
TORSDOF 6
ENDMDL
MODEL 2
REMARK VINA RESULT:      -7.6      3.882      7.844
REMARK  Name = 
REMARK  7 active torsions:
REMARK  status: ('A' for Active; 'I' for Inactive)
REMARK    1  A    between atoms: C_2  and  C_3
REMARK    2  A    between atoms: C_3  and  C_4
REMARK    3  A    between atoms: C_4  and  C_5
REMARK    4  A    between atoms: C_5  and  C_6
REMARK    5  A    between atoms: N_7  and  N_8
REMARK    6  A    between atoms: C_11  and  C_12
REMARK    7  A    between atoms: C_16  and  N_17
REMARK                            x       y       z     vdW  Elec       q    Type
REMARK                         _______ _______ _______ _____ _____    ______ ____
ROOT
ATOM      1  N   UNL     1       6.116   4.716  13.828  0.00  0.00    +0.000 N 
ATOM      2  C   UNL     1       5.588   4.905  15.065  0.00  0.00    +0.000 A 
ATOM      3  N   UNL     1       4.830   4.059  15.725  0.00  0.00    +0.000 NA
ATOM      4  C   UNL     1       4.423   4.599  16.929  0.00  0.00    +0.000 A 
ATOM      5  C   UNL     1       4.964   5.828  17.227  0.00  0.00    +0.000 A 
ATOM      6  S   UNL     1       5.909   6.381  15.908  0.00  0.00    +0.000 S 
ATOM      7  H   UNL     1       6.418   5.552  13.345  0.00  0.00    +0.000 HD
ENDROOT
BRANCH   4   8
ATOM      8  C   UNL     1       3.516   3.860  17.804  0.00  0.00    +0.000 A 
ATOM      9  C   UNL     1       2.183   3.611  17.442  0.00  0.00    +0.000 A 
ATOM     10  C   UNL     1       1.327   2.924  18.309  0.00  0.00    +0.000 A 
ATOM     11  C   UNL     1       1.795   2.471  19.539  0.00  0.00    +0.000 A 
ATOM     12  C   UNL     1       3.134   2.691  19.893  0.00  0.00    +0.000 A 
ATOM     13  C   UNL     1       3.997   3.370  19.025  0.00  0.00    +0.000 A 
BRANCH  12  14
ATOM     14  N   UNL     1       3.632   2.219  21.192  0.00  0.00    +0.000 N 
ATOM     15  O   UNL     1       4.769   1.724  21.223  0.00  0.00    +0.000 OA
ATOM     16  O   UNL     1       2.887   2.332  22.173  0.00  0.00    +0.000 OA
ENDBRANCH  12  14
ENDBRANCH   4   8
BRANCH   1  19
ATOM     17  C   UNL     1       5.440   3.200  12.220  0.00  0.00    +0.000 C 
ATOM     18  C   UNL     1       5.718   1.848  11.597  0.00  0.00    +0.000 C 
ATOM     19  N   UNL     1       6.188   3.493  13.243  0.00  0.00    +0.000 NA
BRANCH  17  20
ATOM     20  C   UNL     1       4.421   4.129  11.570  0.00  0.00    +0.000 C 
BRANCH  20  21
ATOM     21  C   UNL     1       3.449   3.417  10.631  0.00  0.00    +0.000 C 
BRANCH  21  23
ATOM     22  C   UNL     1       2.126   4.835   9.040  0.00  0.00    +0.000 C 
ATOM     23  C   UNL     1       3.247   4.177   9.353  0.00  0.00    +0.000 C 
ENDBRANCH  21  23
ENDBRANCH  20  21
ENDBRANCH  17  20
ENDBRANCH   1  19
TORSDOF 6
ENDMDL
MODEL 3
REMARK VINA RESULT:      -7.5      2.521      3.877
REMARK  Name = 
REMARK  7 active torsions:
REMARK  status: ('A' for Active; 'I' for Inactive)
REMARK    1  A    between atoms: C_2  and  C_3
REMARK    2  A    between atoms: C_3  and  C_4
REMARK    3  A    between atoms: C_4  and  C_5
REMARK    4  A    between atoms: C_5  and  C_6
REMARK    5  A    between atoms: N_7  and  N_8
REMARK    6  A    between atoms: C_11  and  C_12
REMARK    7  A    between atoms: C_16  and  N_17
REMARK                            x       y       z     vdW  Elec       q    Type
REMARK                         _______ _______ _______ _____ _____    ______ ____
ROOT
ATOM      1  N   UNL     1       1.935   6.036  20.777  0.00  0.00    +0.000 N 
ATOM      2  C   UNL     1       2.674   6.272  19.662  0.00  0.00    +0.000 A 
ATOM      3  N   UNL     1       3.712   5.577  19.253  0.00  0.00    +0.000 NA
ATOM      4  C   UNL     1       4.257   6.131  18.112  0.00  0.00    +0.000 A 
ATOM      5  C   UNL     1       3.560   7.199  17.595  0.00  0.00    +0.000 A 
ATOM      6  S   UNL     1       2.259   7.601  18.634  0.00  0.00    +0.000 S 
ATOM      7  H   UNL     1       1.374   6.810  21.107  0.00  0.00    +0.000 HD
ENDROOT
BRANCH   4   8
ATOM      8  C   UNL     1       5.462   5.562  17.514  0.00  0.00    +0.000 A 
ATOM      9  C   UNL     1       6.555   5.162  18.299  0.00  0.00    +0.000 A 
ATOM     10  C   UNL     1       7.708   4.644  17.702  0.00  0.00    +0.000 A 
ATOM     11  C   UNL     1       7.778   4.510  16.317  0.00  0.00    +0.000 A 
ATOM     12  C   UNL     1       6.677   4.880  15.531  0.00  0.00    +0.000 A 
ATOM     13  C   UNL     1       5.517   5.390  16.126  0.00  0.00    +0.000 A 
BRANCH  12  14
ATOM     14  N   UNL     1       6.748   4.745  14.070  0.00  0.00    +0.000 N 
ATOM     15  O   UNL     1       5.977   3.935  13.533  0.00  0.00    +0.000 OA
ATOM     16  O   UNL     1       7.575   5.436  13.464  0.00  0.00    +0.000 OA
ENDBRANCH  12  14
ENDBRANCH   4   8
BRANCH   1  19
ATOM     17  C   UNL     1       1.422   3.790  20.956  0.00  0.00    +0.000 C 
ATOM     18  C   UNL     1       1.661   2.524  21.752  0.00  0.00    +0.000 C 
ATOM     19  N   UNL     1       1.982   4.857  21.447  0.00  0.00    +0.000 NA
BRANCH  17  20
ATOM     20  C   UNL     1       0.663   3.713  19.635  0.00  0.00    +0.000 C 
BRANCH  20  21
ATOM     21  C   UNL     1       0.896   2.414  18.866  0.00  0.00    +0.000 C 
BRANCH  21  23
ATOM     22  C   UNL     1       2.565   3.076  17.113  0.00  0.00    +0.000 C 
ATOM     23  C   UNL     1       2.248   2.385  18.214  0.00  0.00    +0.000 C 
ENDBRANCH  21  23
ENDBRANCH  20  21
ENDBRANCH  17  20
ENDBRANCH   1  19
TORSDOF 6
ENDMDL
MODEL 4
REMARK VINA RESULT:      -7.5      0.975      1.840
REMARK  Name = 
REMARK  7 active torsions:
REMARK  status: ('A' for Active; 'I' for Inactive)
REMARK    1  A    between atoms: C_2  and  C_3
REMARK    2  A    between atoms: C_3  and  C_4
REMARK    3  A    between atoms: C_4  and  C_5
REMARK    4  A    between atoms: C_5  and  C_6
REMARK    5  A    between atoms: N_7  and  N_8
REMARK    6  A    between atoms: C_11  and  C_12
REMARK    7  A    between atoms: C_16  and  N_17
REMARK                            x       y       z     vdW  Elec       q    Type
REMARK                         _______ _______ _______ _____ _____    ______ ____
ROOT
ATOM      1  N   UNL     1       4.956   3.556  18.933  0.00  0.00    +0.000 N 
ATOM      2  C   UNL     1       5.656   4.228  17.982  0.00  0.00    +0.000 A 
ATOM      3  N   UNL     1       5.655   3.978  16.692  0.00  0.00    +0.000 NA
ATOM      4  C   UNL     1       6.526   4.819  16.027  0.00  0.00    +0.000 A 
ATOM      5  C   UNL     1       7.116   5.783  16.812  0.00  0.00    +0.000 A 
ATOM      6  S   UNL     1       6.667   5.553  18.450  0.00  0.00    +0.000 S 
ATOM      7  H   UNL     1       5.282   3.669  19.883  0.00  0.00    +0.000 HD
ENDROOT
BRANCH   4   8
ATOM      8  C   UNL     1       6.739   4.679  14.589  0.00  0.00    +0.000 A 
ATOM      9  C   UNL     1       7.714   5.428  13.912  0.00  0.00    +0.000 A 
ATOM     10  C   UNL     1       7.881   5.296  12.530  0.00  0.00    +0.000 A 
ATOM     11  C   UNL     1       7.083   4.408  11.812  0.00  0.00    +0.000 A 
ATOM     12  C   UNL     1       6.128   3.636  12.488  0.00  0.00    +0.000 A 
ATOM     13  C   UNL     1       5.964   3.758  13.873  0.00  0.00    +0.000 A 
BRANCH  12  14
ATOM     14  N   UNL     1       5.281   2.702  11.734  0.00  0.00    +0.000 N 
ATOM     15  O   UNL     1       4.141   3.084  11.429  0.00  0.00    +0.000 OA
ATOM     16  O   UNL     1       5.748   1.590  11.458  0.00  0.00    +0.000 OA
ENDBRANCH  12  14
ENDBRANCH   4   8
BRANCH   1  19
ATOM     17  C   UNL     1       2.688   3.139  18.788  0.00  0.00    +0.000 C 
ATOM     18  C   UNL     1       1.635   2.168  18.295  0.00  0.00    +0.000 C 
ATOM     19  N   UNL     1       3.916   2.738  18.632  0.00  0.00    +0.000 NA
BRANCH  17  20
ATOM     20  C   UNL     1       2.259   4.505  19.314  0.00  0.00    +0.000 C 
BRANCH  20  21
ATOM     21  C   UNL     1       2.140   5.573  18.230  0.00  0.00    +0.000 C 
BRANCH  21  23
ATOM     22  C   UNL     1       3.342   7.697  17.651  0.00  0.00    +0.000 C 
ATOM     23  C   UNL     1       2.948   6.795  18.557  0.00  0.00    +0.000 C 
ENDBRANCH  21  23
ENDBRANCH  20  21
ENDBRANCH  17  20
ENDBRANCH   1  19
TORSDOF 6
ENDMDL
MODEL 5
REMARK VINA RESULT:      -7.4      0.602      1.461
REMARK  Name = 
REMARK  7 active torsions:
REMARK  status: ('A' for Active; 'I' for Inactive)
REMARK    1  A    between atoms: C_2  and  C_3
REMARK    2  A    between atoms: C_3  and  C_4
REMARK    3  A    between atoms: C_4  and  C_5
REMARK    4  A    between atoms: C_5  and  C_6
REMARK    5  A    between atoms: N_7  and  N_8
REMARK    6  A    between atoms: C_11  and  C_12
REMARK    7  A    between atoms: C_16  and  N_17
REMARK                            x       y       z     vdW  Elec       q    Type
REMARK                         _______ _______ _______ _____ _____    ______ ____
ROOT
ATOM      1  N   UNL     1       4.821   3.512  18.916  0.00  0.00    +0.000 N 
ATOM      2  C   UNL     1       5.572   4.159  17.987  0.00  0.00    +0.000 A 
ATOM      3  N   UNL     1       5.564   3.943  16.691  0.00  0.00    +0.000 NA
ATOM      4  C   UNL     1       6.494   4.740  16.053  0.00  0.00    +0.000 A 
ATOM      5  C   UNL     1       7.141   5.641  16.866  0.00  0.00    +0.000 A 
ATOM      6  S   UNL     1       6.666   5.400  18.494  0.00  0.00    +0.000 S 
ATOM      7  H   UNL     1       5.148   3.578  19.871  0.00  0.00    +0.000 HD
ENDROOT
BRANCH   4   8
ATOM      8  C   UNL     1       6.706   4.623  14.612  0.00  0.00    +0.000 A 
ATOM      9  C   UNL     1       7.674   5.392  13.946  0.00  0.00    +0.000 A 
ATOM     10  C   UNL     1       7.841   5.282  12.563  0.00  0.00    +0.000 A 
ATOM     11  C   UNL     1       7.052   4.397  11.832  0.00  0.00    +0.000 A 
ATOM     12  C   UNL     1       6.104   3.606  12.497  0.00  0.00    +0.000 A 
ATOM     13  C   UNL     1       5.940   3.706  13.883  0.00  0.00    +0.000 A 
BRANCH  12  14
ATOM     14  N   UNL     1       5.265   2.675  11.730  0.00  0.00    +0.000 N 
ATOM     15  O   UNL     1       5.766   1.588  11.407  0.00  0.00    +0.000 OA
ATOM     16  O   UNL     1       4.117   3.033  11.441  0.00  0.00    +0.000 OA
ENDBRANCH  12  14
ENDBRANCH   4   8
BRANCH   1  19
ATOM     17  C   UNL     1       2.696   2.730  19.375  0.00  0.00    +0.000 C 
ATOM     18  C   UNL     1       1.508   1.971  18.822  0.00  0.00    +0.000 C 
ATOM     19  N   UNL     1       3.730   2.774  18.588  0.00  0.00    +0.000 NA
BRANCH  17  20
ATOM     20  C   UNL     1       2.567   3.451  20.713  0.00  0.00    +0.000 C 
BRANCH  20  21
ATOM     21  C   UNL     1       1.685   4.696  20.660  0.00  0.00    +0.000 C 
BRANCH  21  23
ATOM     22  C   UNL     1       2.766   6.648  19.515  0.00  0.00    +0.000 C 
ATOM     23  C   UNL     1       1.998   5.554  19.469  0.00  0.00    +0.000 C 
ENDBRANCH  21  23
ENDBRANCH  20  21
ENDBRANCH  17  20
ENDBRANCH   1  19
TORSDOF 6
ENDMDL
MODEL 6
REMARK VINA RESULT:      -7.4      5.051      8.117
REMARK  Name = 
REMARK  7 active torsions:
REMARK  status: ('A' for Active; 'I' for Inactive)
REMARK    1  A    between atoms: C_2  and  C_3
REMARK    2  A    between atoms: C_3  and  C_4
REMARK    3  A    between atoms: C_4  and  C_5
REMARK    4  A    between atoms: C_5  and  C_6
REMARK    5  A    between atoms: N_7  and  N_8
REMARK    6  A    between atoms: C_11  and  C_12
REMARK    7  A    between atoms: C_16  and  N_17
REMARK                            x       y       z     vdW  Elec       q    Type
REMARK                         _______ _______ _______ _____ _____    ______ ____
ROOT
ATOM      1  N   UNL     1       4.958   3.443  17.771  0.00  0.00    +0.000 N 
ATOM      2  C   UNL     1       4.051   4.147  18.496  0.00  0.00    +0.000 A 
ATOM      3  N   UNL     1       3.636   5.369  18.248  0.00  0.00    +0.000 NA
ATOM      4  C   UNL     1       2.754   5.797  19.222  0.00  0.00    +0.000 A 
ATOM      5  C   UNL     1       2.422   4.847  20.161  0.00  0.00    +0.000 A 
ATOM      6  S   UNL     1       3.333   3.421  19.893  0.00  0.00    +0.000 S 
ATOM      7  H   UNL     1       5.384   2.656  18.242  0.00  0.00    +0.000 HD
ENDROOT
BRANCH   4   8
ATOM      8  C   UNL     1       2.213   7.152  19.188  0.00  0.00    +0.000 A 
ATOM      9  C   UNL     1       2.161   7.895  17.998  0.00  0.00    +0.000 A 
ATOM     10  C   UNL     1       1.662   9.201  17.996  0.00  0.00    +0.000 A 
ATOM     11  C   UNL     1       1.201   9.775  19.179  0.00  0.00    +0.000 A 
ATOM     12  C   UNL     1       1.223   9.026  20.364  0.00  0.00    +0.000 A 
ATOM     13  C   UNL     1       1.713   7.715  20.369  0.00  0.00    +0.000 A 
BRANCH  12  14
ATOM     14  N   UNL     1       0.742   9.629  21.615  0.00  0.00    +0.000 N 
ATOM     15  O   UNL     1      -0.318  10.271  21.569  0.00  0.00    +0.000 OA
ATOM     16  O   UNL     1       1.426   9.472  22.634  0.00  0.00    +0.000 OA
ENDBRANCH  12  14
ENDBRANCH   4   8
BRANCH   1  19
ATOM     17  C   UNL     1       6.376   4.524  16.301  0.00  0.00    +0.000 C 
ATOM     18  C   UNL     1       6.724   4.733  14.842  0.00  0.00    +0.000 C 
ATOM     19  N   UNL     1       5.318   3.796  16.511  0.00  0.00    +0.000 NA
BRANCH  17  20
ATOM     20  C   UNL     1       7.309   5.067  17.379  0.00  0.00    +0.000 C 
BRANCH  20  21
ATOM     21  C   UNL     1       6.891   6.430  17.925  0.00  0.00    +0.000 C 
BRANCH  21  23
ATOM     22  C   UNL     1       8.023   8.666  17.806  0.00  0.00    +0.000 C 
ATOM     23  C   UNL     1       8.063   7.356  18.076  0.00  0.00    +0.000 C 
ENDBRANCH  21  23
ENDBRANCH  20  21
ENDBRANCH  17  20
ENDBRANCH   1  19
TORSDOF 6
ENDMDL
MODEL 7
REMARK VINA RESULT:      -7.3      3.969      7.897
REMARK  Name = 
REMARK  7 active torsions:
REMARK  status: ('A' for Active; 'I' for Inactive)
REMARK    1  A    between atoms: C_2  and  C_3
REMARK    2  A    between atoms: C_3  and  C_4
REMARK    3  A    between atoms: C_4  and  C_5
REMARK    4  A    between atoms: C_5  and  C_6
REMARK    5  A    between atoms: N_7  and  N_8
REMARK    6  A    between atoms: C_11  and  C_12
REMARK    7  A    between atoms: C_16  and  N_17
REMARK                            x       y       z     vdW  Elec       q    Type
REMARK                         _______ _______ _______ _____ _____    ______ ____
ROOT
ATOM      1  N   UNL     1       6.214   4.631  13.732  0.00  0.00    +0.000 N 
ATOM      2  C   UNL     1       5.741   4.787  14.996  0.00  0.00    +0.000 A 
ATOM      3  N   UNL     1       5.075   3.895  15.693  0.00  0.00    +0.000 NA
ATOM      4  C   UNL     1       4.698   4.410  16.919  0.00  0.00    +0.000 A 
ATOM      5  C   UNL     1       5.174   5.672  17.189  0.00  0.00    +0.000 A 
ATOM      6  S   UNL     1       6.010   6.283  15.824  0.00  0.00    +0.000 S 
ATOM      7  H   UNL     1       6.436   5.484  13.235  0.00  0.00    +0.000 HD
ENDROOT
BRANCH   4   8
ATOM      8  C   UNL     1       3.888   3.616  17.839  0.00  0.00    +0.000 A 
ATOM      9  C   UNL     1       3.542   2.285  17.554  0.00  0.00    +0.000 A 
ATOM     10  C   UNL     1       2.744   1.553  18.439  0.00  0.00    +0.000 A 
ATOM     11  C   UNL     1       2.292   2.138  19.620  0.00  0.00    +0.000 A 
ATOM     12  C   UNL     1       2.660   3.457  19.922  0.00  0.00    +0.000 A 
ATOM     13  C   UNL     1       3.467   4.190  19.044  0.00  0.00    +0.000 A 
BRANCH  12  14
ATOM     14  N   UNL     1       2.182   4.080  21.164  0.00  0.00    +0.000 N 
ATOM     15  O   UNL     1       1.836   5.270  21.109  0.00  0.00    +0.000 OA
ATOM     16  O   UNL     1       2.163   3.388  22.189  0.00  0.00    +0.000 OA
ENDBRANCH  12  14
ENDBRANCH   4   8
BRANCH   1  19
ATOM     17  C   UNL     1       5.540   3.065  12.173  0.00  0.00    +0.000 C 
ATOM     18  C   UNL     1       5.871   1.734  11.530  0.00  0.00    +0.000 C 
ATOM     19  N   UNL     1       6.334   3.415  13.142  0.00  0.00    +0.000 NA
BRANCH  17  20
ATOM     20  C   UNL     1       4.414   3.916  11.595  0.00  0.00    +0.000 C 
BRANCH  20  21
ATOM     21  C   UNL     1       3.569   3.192  10.550  0.00  0.00    +0.000 C 
BRANCH  21  23
ATOM     22  C   UNL     1       2.937   4.690   8.639  0.00  0.00    +0.000 C 
ATOM     23  C   UNL     1       2.653   4.132   9.822  0.00  0.00    +0.000 C 
ENDBRANCH  21  23
ENDBRANCH  20  21
ENDBRANCH  17  20
ENDBRANCH   1  19
TORSDOF 6
ENDMDL
MODEL 8
REMARK VINA RESULT:      -7.0      3.661      7.809
REMARK  Name = 
REMARK  7 active torsions:
REMARK  status: ('A' for Active; 'I' for Inactive)
REMARK    1  A    between atoms: C_2  and  C_3
REMARK    2  A    between atoms: C_3  and  C_4
REMARK    3  A    between atoms: C_4  and  C_5
REMARK    4  A    between atoms: C_5  and  C_6
REMARK    5  A    between atoms: N_7  and  N_8
REMARK    6  A    between atoms: C_11  and  C_12
REMARK    7  A    between atoms: C_16  and  N_17
REMARK                            x       y       z     vdW  Elec       q    Type
REMARK                         _______ _______ _______ _____ _____    ______ ____
ROOT
ATOM      1  N   UNL     1       6.220   4.307  14.274  0.00  0.00    +0.000 N 
ATOM      2  C   UNL     1       6.068   4.465  15.615  0.00  0.00    +0.000 A 
ATOM      3  N   UNL     1       4.933   4.625  16.257  0.00  0.00    +0.000 NA
ATOM      4  C   UNL     1       5.153   4.814  17.607  0.00  0.00    +0.000 A 
ATOM      5  C   UNL     1       6.465   4.695  18.004  0.00  0.00    +0.000 A 
ATOM      6  S   UNL     1       7.467   4.465  16.633  0.00  0.00    +0.000 S 
ATOM      7  H   UNL     1       7.145   4.492  13.910  0.00  0.00    +0.000 HD
ENDROOT
BRANCH   4   8
ATOM      8  C   UNL     1       4.036   5.078  18.510  0.00  0.00    +0.000 A 
ATOM      9  C   UNL     1       3.444   6.348  18.599  0.00  0.00    +0.000 A 
ATOM     10  C   UNL     1       2.393   6.582  19.490  0.00  0.00    +0.000 A 
ATOM     11  C   UNL     1       1.915   5.550  20.294  0.00  0.00    +0.000 A 
ATOM     12  C   UNL     1       2.483   4.272  20.187  0.00  0.00    +0.000 A 
ATOM     13  C   UNL     1       3.529   4.031  19.290  0.00  0.00    +0.000 A 
BRANCH  12  14
ATOM     14  N   UNL     1       1.985   3.181  21.037  0.00  0.00    +0.000 N 
ATOM     15  O   UNL     1       2.198   3.264  22.256  0.00  0.00    +0.000 OA
ATOM     16  O   UNL     1       1.395   2.243  20.488  0.00  0.00    +0.000 OA
ENDBRANCH  12  14
ENDBRANCH   4   8
BRANCH   1  19
ATOM     17  C   UNL     1       5.407   3.583  12.236  0.00  0.00    +0.000 C 
ATOM     18  C   UNL     1       4.174   3.128  11.485  0.00  0.00    +0.000 C 
ATOM     19  N   UNL     1       5.189   3.976  13.457  0.00  0.00    +0.000 NA
BRANCH  17  20
ATOM     20  C   UNL     1       6.776   3.456  11.576  0.00  0.00    +0.000 C 
BRANCH  20  21
ATOM     21  C   UNL     1       7.326   2.031  11.567  0.00  0.00    +0.000 C 
BRANCH  21  23
ATOM     22  C   UNL     1       6.185  -0.190  11.319  0.00  0.00    +0.000 C 
ATOM     23  C   UNL     1       6.378   1.070  10.910  0.00  0.00    +0.000 C 
ENDBRANCH  21  23
ENDBRANCH  20  21
ENDBRANCH  17  20
ENDBRANCH   1  19
TORSDOF 6
ENDMDL
MODEL 9
REMARK VINA RESULT:      -6.9      6.490      8.977
REMARK  Name = 
REMARK  7 active torsions:
REMARK  status: ('A' for Active; 'I' for Inactive)
REMARK    1  A    between atoms: C_2  and  C_3
REMARK    2  A    between atoms: C_3  and  C_4
REMARK    3  A    between atoms: C_4  and  C_5
REMARK    4  A    between atoms: C_5  and  C_6
REMARK    5  A    between atoms: N_7  and  N_8
REMARK    6  A    between atoms: C_11  and  C_12
REMARK    7  A    between atoms: C_16  and  N_17
REMARK                            x       y       z     vdW  Elec       q    Type
REMARK                         _______ _______ _______ _____ _____    ______ ____
ROOT
ATOM      1  N   UNL     1       3.229   5.377  19.108  0.00  0.00    +0.000 N 
ATOM      2  C   UNL     1       2.836   6.647  18.830  0.00  0.00    +0.000 A 
ATOM      3  N   UNL     1       1.960   7.357  19.505  0.00  0.00    +0.000 NA
ATOM      4  C   UNL     1       1.758   8.586  18.909  0.00  0.00    +0.000 A 
ATOM      5  C   UNL     1       2.568   8.847  17.828  0.00  0.00    +0.000 A 
ATOM      6  S   UNL     1       3.520   7.469  17.469  0.00  0.00    +0.000 S 
ATOM      7  H   UNL     1       3.670   4.876  18.348  0.00  0.00    +0.000 HD
ENDROOT
BRANCH   4   8
ATOM      8  C   UNL     1       0.774   9.520  19.451  0.00  0.00    +0.000 A 
ATOM      9  C   UNL     1      -0.084  10.253  18.615  0.00  0.00    +0.000 A 
ATOM     10  C   UNL     1      -0.999  11.160  19.156  0.00  0.00    +0.000 A 
ATOM     11  C   UNL     1      -1.075  11.338  20.535  0.00  0.00    +0.000 A 
ATOM     12  C   UNL     1      -0.241  10.587  21.375  0.00  0.00    +0.000 A 
ATOM     13  C   UNL     1       0.671   9.670  20.839  0.00  0.00    +0.000 A 
BRANCH  12  14
ATOM     14  N   UNL     1      -0.313  10.775  22.831  0.00  0.00    +0.000 N 
ATOM     15  O   UNL     1       0.105   9.853  23.547  0.00  0.00    +0.000 OA
ATOM     16  O   UNL     1      -0.795  11.832  23.255  0.00  0.00    +0.000 OA
ENDBRANCH  12  14
ENDBRANCH   4   8
BRANCH   1  19
ATOM     17  C   UNL     1       2.002   3.968  20.467  0.00  0.00    +0.000 C 
ATOM     18  C   UNL     1       1.944   3.292  21.821  0.00  0.00    +0.000 C 
ATOM     19  N   UNL     1       2.999   4.788  20.309  0.00  0.00    +0.000 NA
BRANCH  17  20
ATOM     20  C   UNL     1       0.993   3.577  19.391  0.00  0.00    +0.000 C 
BRANCH  20  21
ATOM     21  C   UNL     1       1.224   2.185  18.807  0.00  0.00    +0.000 C 
BRANCH  21  23
ATOM     22  C   UNL     1       3.572   1.497  18.253  0.00  0.00    +0.000 C 
ATOM     23  C   UNL     1       2.444   2.141  17.933  0.00  0.00    +0.000 C 
ENDBRANCH  21  23
ENDBRANCH  20  21
ENDBRANCH  17  20
ENDBRANCH   1  19
TORSDOF 6
ENDMDL
