MODEL 1
REMARK VINA RESULT:      -7.7      0.000      0.000
REMARK  Name = 
REMARK  8 active torsions:
REMARK  status: ('A' for Active; 'I' for Inactive)
REMARK    1  A    between atoms: C_2  and  O_3
REMARK    2  A    between atoms: C_2  and  C_4
REMARK    3  A    between atoms: C_4  and  O_5
REMARK    4  A    between atoms: C_6  and  C_7
REMARK    5  A    between atoms: C_7  and  C_9
REMARK    6  A    between atoms: N_11  and  C_12
REMARK    7  A    between atoms: C_12  and  C_13
REMARK    8  A    between atoms: C_22  and  N_23
REMARK                            x       y       z     vdW  Elec       q    Type
REMARK                         _______ _______ _______ _____ _____    ______ ____
ROOT
ATOM      1  C   UNL     1       2.021   7.556  18.945  0.00  0.00    +0.000 A 
ATOM      2  C   UNL     1       1.514   8.626  18.312  0.00  0.00    +0.000 A 
ATOM      3  N   UNL     1       0.761   9.649  18.877  0.00  0.00    +0.000 N 
ATOM      4  C   UNL     1       0.504   9.623  20.267  0.00  0.00    +0.000 A 
ATOM      5  C   UNL     1      -0.187  10.641  20.949  0.00  0.00    +0.000 A 
ATOM      6  C   UNL     1      -0.355  10.656  22.346  0.00  0.00    +0.000 A 
ATOM      7  C   UNL     1       0.148   9.578  23.074  0.00  0.00    +0.000 A 
ATOM      8  C   UNL     1       0.805   8.526  22.433  0.00  0.00    +0.000 A 
ATOM      9  C   UNL     1       0.990   8.555  21.045  0.00  0.00    +0.000 A 
ATOM     10  C   UNL     1       1.741   7.447  20.398  0.00  0.00    +0.000 A 
ATOM     11  O   UNL     1       2.126   6.486  21.060  0.00  0.00    +0.000 OA
ENDROOT
BRANCH   6  12
ATOM     12  N   UNL     1      -0.998  11.744  22.919  0.00  0.00    +0.000 N 
ATOM     13  C   UNL     1      -2.398  11.696  23.345  0.00  0.00    +0.000 C 
ATOM     14  C   UNL     1      -3.041  12.904  22.677  0.00  0.00    +0.000 C 
ATOM     15  C   UNL     1      -1.906  13.913  22.623  0.00  0.00    +0.000 C 
ATOM     16  C   UNL     1      -0.680  13.052  22.329  0.00  0.00    +0.000 C 
ENDBRANCH   6  12
BRANCH   1  17
ATOM     17  C   UNL     1       2.801   6.571  18.138  0.00  0.00    +0.000 C 
ATOM     18  O   UNL     1       3.948   6.820  17.780  0.00  0.00    +0.000 OA
BRANCH  17  20
ATOM     19  C   UNL     1       2.520   4.122  18.515  0.00  0.00    +0.000 C 
ATOM     20  C   UNL     1       2.163   5.249  17.880  0.00  0.00    +0.000 C 
BRANCH  19  22
ATOM     21  O   UNL     1       0.679   2.663  18.677  0.00  0.00    +0.000 OA
ATOM     22  C   UNL     1       1.828   2.819  18.285  0.00  0.00    +0.000 C 
BRANCH  22  23
ATOM     23  O   UNL     1       2.543   1.849  17.692  0.00  0.00    +0.000 OA
ATOM     24  H   UNL     1       3.462   1.750  18.000  0.00  0.00    +0.000 HD
ENDBRANCH  22  23
ENDBRANCH  19  22
BRANCH  19  25
ATOM     25  O   UNL     1       3.515   4.106  19.479  0.00  0.00    +0.000 OA
ATOM     26  H   UNL     1       3.580   3.176  19.782  0.00  0.00    +0.000 HD
ENDBRANCH  19  25
ENDBRANCH  17  20
ENDBRANCH   1  17
BRANCH   3  27
ATOM     27  C   UNL     1       0.304  10.799  18.064  0.00  0.00    +0.000 C 
BRANCH  27  28
ATOM     28  C   UNL     1      -1.202  10.866  17.846  0.00  0.00    +0.000 A 
ATOM     29  C   UNL     1      -2.019  11.859  18.416  0.00  0.00    +0.000 A 
ATOM     30  C   UNL     1      -3.404  11.835  18.243  0.00  0.00    +0.000 A 
ATOM     31  C   UNL     1      -3.982  10.833  17.477  0.00  0.00    +0.000 A 
ATOM     32  F   UNL     1      -5.312  10.798  17.330  0.00  0.00    +0.000 F 
ATOM     33  C   UNL     1      -3.199   9.863  16.866  0.00  0.00    +0.000 A 
ATOM     34  C   UNL     1      -1.812   9.880  17.048  0.00  0.00    +0.000 A 
ENDBRANCH  27  28
ENDBRANCH   3  27
TORSDOF 8
ENDMDL
MODEL 2
REMARK VINA RESULT:      -7.5      4.618      8.184
REMARK  Name = 
REMARK  8 active torsions:
REMARK  status: ('A' for Active; 'I' for Inactive)
REMARK    1  A    between atoms: C_2  and  O_3
REMARK    2  A    between atoms: C_2  and  C_4
REMARK    3  A    between atoms: C_4  and  O_5
REMARK    4  A    between atoms: C_6  and  C_7
REMARK    5  A    between atoms: C_7  and  C_9
REMARK    6  A    between atoms: N_11  and  C_12
REMARK    7  A    between atoms: C_12  and  C_13
REMARK    8  A    between atoms: C_22  and  N_23
REMARK                            x       y       z     vdW  Elec       q    Type
REMARK                         _______ _______ _______ _____ _____    ______ ____
ROOT
ATOM      1  C   UNL     1      -0.653  11.706  22.251  0.00  0.00    +0.000 A 
ATOM      2  C   UNL     1      -0.468  12.147  20.995  0.00  0.00    +0.000 A 
ATOM      3  N   UNL     1       0.192  11.482  19.968  0.00  0.00    +0.000 N 
ATOM      4  C   UNL     1       0.712  10.189  20.212  0.00  0.00    +0.000 A 
ATOM      5  C   UNL     1       1.335   9.405  19.225  0.00  0.00    +0.000 A 
ATOM      6  C   UNL     1       1.762   8.082  19.448  0.00  0.00    +0.000 A 
ATOM      7  C   UNL     1       1.600   7.553  20.729  0.00  0.00    +0.000 A 
ATOM      8  C   UNL     1       1.023   8.311  21.748  0.00  0.00    +0.000 A 
ATOM      9  C   UNL     1       0.574   9.613  21.488  0.00  0.00    +0.000 A 
ATOM     10  C   UNL     1      -0.086  10.375  22.580  0.00  0.00    +0.000 A 
ATOM     11  O   UNL     1      -0.167   9.901  23.711  0.00  0.00    +0.000 OA
ENDROOT
BRANCH   6  12
ATOM     12  N   UNL     1       2.306   7.379  18.383  0.00  0.00    +0.000 N 
ATOM     13  C   UNL     1       2.549   5.937  18.434  0.00  0.00    +0.000 C 
ATOM     14  C   UNL     1       4.005   5.780  18.020  0.00  0.00    +0.000 C 
ATOM     15  C   UNL     1       4.214   6.931  17.050  0.00  0.00    +0.000 C 
ATOM     16  C   UNL     1       3.389   8.061  17.659  0.00  0.00    +0.000 C 
ENDBRANCH   6  12
BRANCH   1  17
ATOM     17  C   UNL     1      -1.393  12.591  23.199  0.00  0.00    +0.000 C 
ATOM     18  O   UNL     1      -0.858  13.586  23.679  0.00  0.00    +0.000 OA
BRANCH  17  20
ATOM     19  C   UNL     1      -3.739  13.185  23.800  0.00  0.00    +0.000 C 
ATOM     20  C   UNL     1      -2.826  12.266  23.452  0.00  0.00    +0.000 C 
BRANCH  19  22
ATOM     21  O   UNL     1      -6.044  13.571  23.505  0.00  0.00    +0.000 OA
ATOM     22  C   UNL     1      -5.182  12.849  23.991  0.00  0.00    +0.000 C 
BRANCH  22  23
ATOM     23  O   UNL     1      -5.459  11.777  24.750  0.00  0.00    +0.000 OA
ATOM     24  H   UNL     1      -5.392  11.909  25.713  0.00  0.00    +0.000 HD
ENDBRANCH  22  23
ENDBRANCH  19  22
BRANCH  19  25
ATOM     25  O   UNL     1      -3.416  14.525  23.941  0.00  0.00    +0.000 OA
ATOM     26  H   UNL     1      -3.636  14.759  24.867  0.00  0.00    +0.000 HD
ENDBRANCH  19  25
ENDBRANCH  17  20
ENDBRANCH   1  17
BRANCH   3  27
ATOM     27  C   UNL     1       0.281  12.070  18.612  0.00  0.00    +0.000 C 
BRANCH  27  28
ATOM     28  C   UNL     1       1.241  13.247  18.490  0.00  0.00    +0.000 A 
ATOM     29  C   UNL     1       2.609  13.097  18.199  0.00  0.00    +0.000 A 
ATOM     30  C   UNL     1       3.460  14.203  18.168  0.00  0.00    +0.000 A 
ATOM     31  C   UNL     1       2.947  15.471  18.402  0.00  0.00    +0.000 A 
ATOM     32  F   UNL     1       3.768  16.528  18.393  0.00  0.00    +0.000 F 
ATOM     33  C   UNL     1       1.593  15.656  18.650  0.00  0.00    +0.000 A 
ATOM     34  C   UNL     1       0.741  14.548  18.692  0.00  0.00    +0.000 A 
ENDBRANCH  27  28
ENDBRANCH   3  27
TORSDOF 8
ENDMDL
MODEL 3
REMARK VINA RESULT:      -7.4      1.064      1.495
REMARK  Name = 
REMARK  8 active torsions:
REMARK  status: ('A' for Active; 'I' for Inactive)
REMARK    1  A    between atoms: C_2  and  O_3
REMARK    2  A    between atoms: C_2  and  C_4
REMARK    3  A    between atoms: C_4  and  O_5
REMARK    4  A    between atoms: C_6  and  C_7
REMARK    5  A    between atoms: C_7  and  C_9
REMARK    6  A    between atoms: N_11  and  C_12
REMARK    7  A    between atoms: C_12  and  C_13
REMARK    8  A    between atoms: C_22  and  N_23
REMARK                            x       y       z     vdW  Elec       q    Type
REMARK                         _______ _______ _______ _____ _____    ______ ____
ROOT
ATOM      1  C   UNL     1       1.799   8.262  19.129  0.00  0.00    +0.000 A 
ATOM      2  C   UNL     1       1.198   9.309  18.540  0.00  0.00    +0.000 A 
ATOM      3  N   UNL     1       0.362  10.239  19.146  0.00  0.00    +0.000 N 
ATOM      4  C   UNL     1       0.113  10.135  20.534  0.00  0.00    +0.000 A 
ATOM      5  C   UNL     1      -0.661  11.060  21.257  0.00  0.00    +0.000 A 
ATOM      6  C   UNL     1      -0.824  11.005  22.654  0.00  0.00    +0.000 A 
ATOM      7  C   UNL     1      -0.226   9.946  23.337  0.00  0.00    +0.000 A 
ATOM      8  C   UNL     1       0.517   8.982  22.654  0.00  0.00    +0.000 A 
ATOM      9  C   UNL     1       0.693   9.083  21.267  0.00  0.00    +0.000 A 
ATOM     10  C   UNL     1       1.535   8.071  20.576  0.00  0.00    +0.000 A 
ATOM     11  O   UNL     1       2.005   7.121  21.198  0.00  0.00    +0.000 OA
ENDROOT
BRANCH   6  12
ATOM     12  N   UNL     1      -1.556  12.008  23.270  0.00  0.00    +0.000 N 
ATOM     13  C   UNL     1      -3.017  11.977  23.358  0.00  0.00    +0.000 C 
ATOM     14  C   UNL     1      -3.461  13.327  22.813  0.00  0.00    +0.000 C 
ATOM     15  C   UNL     1      -2.322  14.250  23.210  0.00  0.00    +0.000 C 
ATOM     16  C   UNL     1      -1.081  13.379  23.033  0.00  0.00    +0.000 C 
ENDBRANCH   6  12
BRANCH   1  17
ATOM     17  C   UNL     1       2.658   7.383  18.282  0.00  0.00    +0.000 C 
ATOM     18  O   UNL     1       3.320   7.849  17.360  0.00  0.00    +0.000 OA
BRANCH  17  20
ATOM     19  C   UNL     1       3.902   5.259  18.685  0.00  0.00    +0.000 C 
ATOM     20  C   UNL     1       2.750   5.947  18.671  0.00  0.00    +0.000 C 
BRANCH  19  22
ATOM     21  O   UNL     1       2.956   3.229  19.412  0.00  0.00    +0.000 OA
ATOM     22  C   UNL     1       3.982   3.837  19.135  0.00  0.00    +0.000 C 
BRANCH  22  23
ATOM     23  O   UNL     1       5.210   3.310  19.264  0.00  0.00    +0.000 OA
ATOM     24  H   UNL     1       5.937   3.949  19.368  0.00  0.00    +0.000 HD
ENDBRANCH  22  23
ENDBRANCH  19  22
BRANCH  19  25
ATOM     25  O   UNL     1       5.111   5.844  18.344  0.00  0.00    +0.000 OA
ATOM     26  H   UNL     1       4.887   6.709  17.939  0.00  0.00    +0.000 HD
ENDBRANCH  19  25
ENDBRANCH  17  20
ENDBRANCH   1  17
BRANCH   3  27
ATOM     27  C   UNL     1      -0.197  11.377  18.380  0.00  0.00    +0.000 C 
BRANCH  27  28
ATOM     28  C   UNL     1      -1.666  11.230  18.003  0.00  0.00    +0.000 A 
ATOM     29  C   UNL     1      -2.108  10.439  16.927  0.00  0.00    +0.000 A 
ATOM     30  C   UNL     1      -3.460  10.393  16.579  0.00  0.00    +0.000 A 
ATOM     31  C   UNL     1      -4.383  11.117  17.319  0.00  0.00    +0.000 A 
ATOM     32  F   UNL     1      -5.676  11.090  16.972  0.00  0.00    +0.000 F 
ATOM     33  C   UNL     1      -3.983  11.874  18.413  0.00  0.00    +0.000 A 
ATOM     34  C   UNL     1      -2.628  11.929  18.756  0.00  0.00    +0.000 A 
ENDBRANCH  27  28
ENDBRANCH   3  27
TORSDOF 8
ENDMDL
MODEL 4
REMARK VINA RESULT:      -7.4      3.809      7.513
REMARK  Name = 
REMARK  8 active torsions:
REMARK  status: ('A' for Active; 'I' for Inactive)
REMARK    1  A    between atoms: C_2  and  O_3
REMARK    2  A    between atoms: C_2  and  C_4
REMARK    3  A    between atoms: C_4  and  O_5
REMARK    4  A    between atoms: C_6  and  C_7
REMARK    5  A    between atoms: C_7  and  C_9
REMARK    6  A    between atoms: N_11  and  C_12
REMARK    7  A    between atoms: C_12  and  C_13
REMARK    8  A    between atoms: C_22  and  N_23
REMARK                            x       y       z     vdW  Elec       q    Type
REMARK                         _______ _______ _______ _____ _____    ______ ____
ROOT
ATOM      1  C   UNL     1      -0.824  11.569  22.177  0.00  0.00    +0.000 A 
ATOM      2  C   UNL     1      -0.893  11.876  20.871  0.00  0.00    +0.000 A 
ATOM      3  N   UNL     1      -0.282  11.198  19.822  0.00  0.00    +0.000 N 
ATOM      4  C   UNL     1       0.475  10.038  20.105  0.00  0.00    +0.000 A 
ATOM      5  C   UNL     1       1.076   9.242  19.114  0.00  0.00    +0.000 A 
ATOM      6  C   UNL     1       1.745   8.036  19.395  0.00  0.00    +0.000 A 
ATOM      7  C   UNL     1       1.856   7.648  20.731  0.00  0.00    +0.000 A 
ATOM      8  C   UNL     1       1.310   8.430  21.750  0.00  0.00    +0.000 A 
ATOM      9  C   UNL     1       0.617   9.608  21.438  0.00  0.00    +0.000 A 
ATOM     10  C   UNL     1      -0.001  10.389  22.541  0.00  0.00    +0.000 A 
ATOM     11  O   UNL     1       0.159  10.050  23.711  0.00  0.00    +0.000 OA
ENDROOT
BRANCH   6  12
ATOM     12  N   UNL     1       2.245   7.298  18.332  0.00  0.00    +0.000 N 
ATOM     13  C   UNL     1       2.350   5.839  18.366  0.00  0.00    +0.000 C 
ATOM     14  C   UNL     1       3.795   5.552  17.980  0.00  0.00    +0.000 C 
ATOM     15  C   UNL     1       4.130   6.690  17.031  0.00  0.00    +0.000 C 
ATOM     16  C   UNL     1       3.401   7.885  17.640  0.00  0.00    +0.000 C 
ENDBRANCH   6  12
BRANCH   1  17
ATOM     17  C   UNL     1      -1.560  12.441  23.139  0.00  0.00    +0.000 C 
ATOM     18  O   UNL     1      -0.989  13.360  23.719  0.00  0.00    +0.000 OA
BRANCH  17  20
ATOM     19  C   UNL     1      -3.929  13.198  23.327  0.00  0.00    +0.000 C 
ATOM     20  C   UNL     1      -3.025  12.207  23.283  0.00  0.00    +0.000 C 
BRANCH  19  22
ATOM     21  O   UNL     1      -5.940  12.233  22.572  0.00  0.00    +0.000 OA
ATOM     22  C   UNL     1      -5.397  12.940  23.412  0.00  0.00    +0.000 C 
BRANCH  22  23
ATOM     23  O   UNL     1      -6.066  13.558  24.399  0.00  0.00    +0.000 OA
ATOM     24  H   UNL     1      -6.820  13.067  24.773  0.00  0.00    +0.000 HD
ENDBRANCH  22  23
ENDBRANCH  19  22
BRANCH  19  25
ATOM     25  O   UNL     1      -3.563  14.531  23.231  0.00  0.00    +0.000 OA
ATOM     26  H   UNL     1      -3.424  14.839  24.151  0.00  0.00    +0.000 HD
ENDBRANCH  19  25
ENDBRANCH  17  20
ENDBRANCH   1  17
BRANCH   3  27
ATOM     27  C   UNL     1      -0.485  11.623  18.418  0.00  0.00    +0.000 C 
BRANCH  27  28
ATOM     28  C   UNL     1      -1.921  11.515  17.922  0.00  0.00    +0.000 A 
ATOM     29  C   UNL     1      -2.256  11.104  16.619  0.00  0.00    +0.000 A 
ATOM     30  C   UNL     1      -3.585  11.090  16.191  0.00  0.00    +0.000 A 
ATOM     31  C   UNL     1      -4.593  11.460  17.070  0.00  0.00    +0.000 A 
ATOM     32  F   UNL     1      -5.865  11.466  16.653  0.00  0.00    +0.000 F 
ATOM     33  C   UNL     1      -4.297  11.829  18.376  0.00  0.00    +0.000 A 
ATOM     34  C   UNL     1      -2.966  11.854  18.802  0.00  0.00    +0.000 A 
ENDBRANCH  27  28
ENDBRANCH   3  27
TORSDOF 8
ENDMDL
MODEL 5
REMARK VINA RESULT:      -7.4      1.375      2.344
REMARK  Name = 
REMARK  8 active torsions:
REMARK  status: ('A' for Active; 'I' for Inactive)
REMARK    1  A    between atoms: C_2  and  O_3
REMARK    2  A    between atoms: C_2  and  C_4
REMARK    3  A    between atoms: C_4  and  O_5
REMARK    4  A    between atoms: C_6  and  C_7
REMARK    5  A    between atoms: C_7  and  C_9
REMARK    6  A    between atoms: N_11  and  C_12
REMARK    7  A    between atoms: C_12  and  C_13
REMARK    8  A    between atoms: C_22  and  N_23
REMARK                            x       y       z     vdW  Elec       q    Type
REMARK                         _______ _______ _______ _____ _____    ______ ____
ROOT
ATOM      1  C   UNL     1       2.064   7.605  18.918  0.00  0.00    +0.000 A 
ATOM      2  C   UNL     1       1.538   8.669  18.290  0.00  0.00    +0.000 A 
ATOM      3  N   UNL     1       0.775   9.681  18.861  0.00  0.00    +0.000 N 
ATOM      4  C   UNL     1       0.526   9.648  20.254  0.00  0.00    +0.000 A 
ATOM      5  C   UNL     1      -0.174  10.655  20.941  0.00  0.00    +0.000 A 
ATOM      6  C   UNL     1      -0.334  10.666  22.339  0.00  0.00    +0.000 A 
ATOM      7  C   UNL     1       0.189   9.593  23.063  0.00  0.00    +0.000 A 
ATOM      8  C   UNL     1       0.856   8.552  22.415  0.00  0.00    +0.000 A 
ATOM      9  C   UNL     1       1.032   8.586  21.026  0.00  0.00    +0.000 A 
ATOM     10  C   UNL     1       1.794   7.489  20.373  0.00  0.00    +0.000 A 
ATOM     11  O   UNL     1       2.196   6.532  21.030  0.00  0.00    +0.000 OA
ENDROOT
BRANCH   6  12
ATOM     12  N   UNL     1      -0.988  11.743  22.918  0.00  0.00    +0.000 N 
ATOM     13  C   UNL     1      -2.403  11.699  23.288  0.00  0.00    +0.000 C 
ATOM     14  C   UNL     1      -3.008  12.932  22.631  0.00  0.00    +0.000 C 
ATOM     15  C   UNL     1      -1.862  13.930  22.651  0.00  0.00    +0.000 C 
ATOM     16  C   UNL     1      -0.634  13.065  22.380  0.00  0.00    +0.000 C 
ENDBRANCH   6  12
BRANCH   1  17
ATOM     17  C   UNL     1       2.852   6.633  18.105  0.00  0.00    +0.000 C 
ATOM     18  O   UNL     1       2.354   5.574  17.732  0.00  0.00    +0.000 OA
BRANCH  17  20
ATOM     19  C   UNL     1       5.263   6.206  17.630  0.00  0.00    +0.000 C 
ATOM     20  C   UNL     1       4.221   7.051  17.688  0.00  0.00    +0.000 C 
BRANCH  19  22
ATOM     21  O   UNL     1       6.868   7.824  17.036  0.00  0.00    +0.000 OA
ATOM     22  C   UNL     1       6.613   6.632  17.153  0.00  0.00    +0.000 C 
BRANCH  22  23
ATOM     23  O   UNL     1       7.474   5.656  16.821  0.00  0.00    +0.000 OA
ATOM     24  H   UNL     1       7.595   4.953  17.484  0.00  0.00    +0.000 HD
ENDBRANCH  22  23
ENDBRANCH  19  22
BRANCH  19  25
ATOM     25  O   UNL     1       5.140   4.864  17.947  0.00  0.00    +0.000 OA
ATOM     26  H   UNL     1       4.468   4.502  17.331  0.00  0.00    +0.000 HD
ENDBRANCH  19  25
ENDBRANCH  17  20
ENDBRANCH   1  17
BRANCH   3  27
ATOM     27  C   UNL     1       0.298  10.826  18.053  0.00  0.00    +0.000 C 
BRANCH  27  28
ATOM     28  C   UNL     1      -1.212  10.882  17.858  0.00  0.00    +0.000 A 
ATOM     29  C   UNL     1      -2.027  11.873  18.434  0.00  0.00    +0.000 A 
ATOM     30  C   UNL     1      -3.414  11.839  18.282  0.00  0.00    +0.000 A 
ATOM     31  C   UNL     1      -3.997  10.828  17.532  0.00  0.00    +0.000 A 
ATOM     32  F   UNL     1      -5.329  10.783  17.405  0.00  0.00    +0.000 F 
ATOM     33  C   UNL     1      -3.217   9.859  16.916  0.00  0.00    +0.000 A 
ATOM     34  C   UNL     1      -1.828   9.886  17.076  0.00  0.00    +0.000 A 
ENDBRANCH  27  28
ENDBRANCH   3  27
TORSDOF 8
ENDMDL
MODEL 6
REMARK VINA RESULT:      -7.4      4.722      8.243
REMARK  Name = 
REMARK  8 active torsions:
REMARK  status: ('A' for Active; 'I' for Inactive)
REMARK    1  A    between atoms: C_2  and  O_3
REMARK    2  A    between atoms: C_2  and  C_4
REMARK    3  A    between atoms: C_4  and  O_5
REMARK    4  A    between atoms: C_6  and  C_7
REMARK    5  A    between atoms: C_7  and  C_9
REMARK    6  A    between atoms: N_11  and  C_12
REMARK    7  A    between atoms: C_12  and  C_13
REMARK    8  A    between atoms: C_22  and  N_23
REMARK                            x       y       z     vdW  Elec       q    Type
REMARK                         _______ _______ _______ _____ _____    ______ ____
ROOT
ATOM      1  C   UNL     1      -0.820  11.904  22.270  0.00  0.00    +0.000 A 
ATOM      2  C   UNL     1      -0.576  12.338  21.023  0.00  0.00    +0.000 A 
ATOM      3  N   UNL     1       0.109  11.659  20.022  0.00  0.00    +0.000 N 
ATOM      4  C   UNL     1       0.592  10.356  20.287  0.00  0.00    +0.000 A 
ATOM      5  C   UNL     1       1.237   9.557  19.326  0.00  0.00    +0.000 A 
ATOM      6  C   UNL     1       1.628   8.226  19.566  0.00  0.00    +0.000 A 
ATOM      7  C   UNL     1       1.405   7.702  20.840  0.00  0.00    +0.000 A 
ATOM      8  C   UNL     1       0.804   8.474  21.836  0.00  0.00    +0.000 A 
ATOM      9  C   UNL     1       0.392   9.784  21.557  0.00  0.00    +0.000 A 
ATOM     10  C   UNL     1      -0.293  10.562  22.622  0.00  0.00    +0.000 A 
ATOM     11  O   UNL     1      -0.428  10.092  23.750  0.00  0.00    +0.000 OA
ENDROOT
BRANCH   6  12
ATOM     12  N   UNL     1       2.199   7.511  18.525  0.00  0.00    +0.000 N 
ATOM     13  C   UNL     1       2.559   6.097  18.645  0.00  0.00    +0.000 C 
ATOM     14  C   UNL     1       4.012   6.034  18.194  0.00  0.00    +0.000 C 
ATOM     15  C   UNL     1       4.099   7.142  17.158  0.00  0.00    +0.000 C 
ATOM     16  C   UNL     1       3.202   8.235  17.731  0.00  0.00    +0.000 C 
ENDBRANCH   6  12
BRANCH   1  17
ATOM     17  C   UNL     1      -1.577  12.805  23.188  0.00  0.00    +0.000 C 
ATOM     18  O   UNL     1      -1.014  13.726  23.772  0.00  0.00    +0.000 OA
BRANCH  17  20
ATOM     19  C   UNL     1      -3.816  13.160  24.227  0.00  0.00    +0.000 C 
ATOM     20  C   UNL     1      -3.051  12.595  23.281  0.00  0.00    +0.000 C 
BRANCH  19  22
ATOM     21  O   UNL     1      -5.776  11.861  24.364  0.00  0.00    +0.000 OA
ATOM     22  C   UNL     1      -5.299  12.985  24.268  0.00  0.00    +0.000 C 
BRANCH  22  23
ATOM     23  O   UNL     1      -6.045  14.094  24.141  0.00  0.00    +0.000 OA
ATOM     24  H   UNL     1      -6.495  14.207  23.284  0.00  0.00    +0.000 HD
ENDBRANCH  22  23
ENDBRANCH  19  22
BRANCH  19  25
ATOM     25  O   UNL     1      -3.290  14.000  25.195  0.00  0.00    +0.000 OA
ATOM     26  H   UNL     1      -2.976  13.415  25.917  0.00  0.00    +0.000 HD
ENDBRANCH  19  25
ENDBRANCH  17  20
ENDBRANCH   1  17
BRANCH   3  27
ATOM     27  C   UNL     1       0.263  12.243  18.670  0.00  0.00    +0.000 C 
BRANCH  27  28
ATOM     28  C   UNL     1       1.221  13.425  18.593  0.00  0.00    +0.000 A 
ATOM     29  C   UNL     1       0.814  14.758  18.779  0.00  0.00    +0.000 A 
ATOM     30  C   UNL     1       1.718  15.811  18.628  0.00  0.00    +0.000 A 
ATOM     31  C   UNL     1       3.043  15.539  18.316  0.00  0.00    +0.000 A 
ATOM     32  F   UNL     1       3.904  16.550  18.151  0.00  0.00    +0.000 F 
ATOM     33  C   UNL     1       3.484  14.231  18.169  0.00  0.00    +0.000 A 
ATOM     34  C   UNL     1       2.577  13.176  18.309  0.00  0.00    +0.000 A 
ENDBRANCH  27  28
ENDBRANCH   3  27
TORSDOF 8
ENDMDL
MODEL 7
REMARK VINA RESULT:      -7.3      2.632      3.378
REMARK  Name = 
REMARK  8 active torsions:
REMARK  status: ('A' for Active; 'I' for Inactive)
REMARK    1  A    between atoms: C_2  and  O_3
REMARK    2  A    between atoms: C_2  and  C_4
REMARK    3  A    between atoms: C_4  and  O_5
REMARK    4  A    between atoms: C_6  and  C_7
REMARK    5  A    between atoms: C_7  and  C_9
REMARK    6  A    between atoms: N_11  and  C_12
REMARK    7  A    between atoms: C_12  and  C_13
REMARK    8  A    between atoms: C_22  and  N_23
REMARK                            x       y       z     vdW  Elec       q    Type
REMARK                         _______ _______ _______ _____ _____    ______ ____
ROOT
ATOM      1  C   UNL     1       1.778   8.430  19.013  0.00  0.00    +0.000 A 
ATOM      2  C   UNL     1       1.312   9.567  18.471  0.00  0.00    +0.000 A 
ATOM      3  N   UNL     1       0.515  10.521  19.093  0.00  0.00    +0.000 N 
ATOM      4  C   UNL     1       0.159  10.337  20.450  0.00  0.00    +0.000 A 
ATOM      5  C   UNL     1      -0.584  11.272  21.191  0.00  0.00    +0.000 A 
ATOM      6  C   UNL     1      -0.852  11.130  22.566  0.00  0.00    +0.000 A 
ATOM      7  C   UNL     1      -0.396   9.973  23.201  0.00  0.00    +0.000 A 
ATOM      8  C   UNL     1       0.310   9.000  22.493  0.00  0.00    +0.000 A 
ATOM      9  C   UNL     1       0.594   9.186  21.133  0.00  0.00    +0.000 A 
ATOM     10  C   UNL     1       1.395   8.157  20.421  0.00  0.00    +0.000 A 
ATOM     11  O   UNL     1       1.737   7.125  20.994  0.00  0.00    +0.000 OA
ENDROOT
BRANCH   6  12
ATOM     12  N   UNL     1      -1.540  12.146  23.211  0.00  0.00    +0.000 N 
ATOM     13  C   UNL     1      -2.991  12.119  23.398  0.00  0.00    +0.000 C 
ATOM     14  C   UNL     1      -3.471  13.460  22.858  0.00  0.00    +0.000 C 
ATOM     15  C   UNL     1      -2.306  14.388  23.158  0.00  0.00    +0.000 C 
ATOM     16  C   UNL     1      -1.081  13.511  22.914  0.00  0.00    +0.000 C 
ENDBRANCH   6  12
BRANCH   1  17
ATOM     17  C   UNL     1       2.619   7.541  18.158  0.00  0.00    +0.000 C 
ATOM     18  O   UNL     1       3.691   7.933  17.707  0.00  0.00    +0.000 OA
BRANCH  17  20
ATOM     19  C   UNL     1       2.841   5.067  18.373  0.00  0.00    +0.000 C 
ATOM     20  C   UNL     1       2.147   6.140  17.965  0.00  0.00    +0.000 C 
BRANCH  19  22
ATOM     21  O   UNL     1       1.349   3.461  17.512  0.00  0.00    +0.000 OA
ATOM     22  C   UNL     1       2.323   3.674  18.223  0.00  0.00    +0.000 C 
BRANCH  22  23
ATOM     23  O   UNL     1       2.939   2.717  18.937  0.00  0.00    +0.000 OA
ATOM     24  H   UNL     1       3.269   2.987  19.812  0.00  0.00    +0.000 HD
ENDBRANCH  22  23
ENDBRANCH  19  22
BRANCH  19  25
ATOM     25  O   UNL     1       4.059   5.182  19.022  0.00  0.00    +0.000 OA
ATOM     26  H   UNL     1       4.169   4.355  19.536  0.00  0.00    +0.000 HD
ENDBRANCH  19  25
ENDBRANCH  17  20
ENDBRANCH   1  17
BRANCH   3  27
ATOM     27  C   UNL     1       0.112  11.757  18.386  0.00  0.00    +0.000 C 
BRANCH  27  28
ATOM     28  C   UNL     1       1.071  12.929  18.554  0.00  0.00    +0.000 A 
ATOM     29  C   UNL     1       2.419  12.883  18.157  0.00  0.00    +0.000 A 
ATOM     30  C   UNL     1       3.275  13.959  18.398  0.00  0.00    +0.000 A 
ATOM     31  C   UNL     1       2.784  15.101  19.013  0.00  0.00    +0.000 A 
ATOM     32  F   UNL     1       3.610  16.125  19.263  0.00  0.00    +0.000 F 
ATOM     33  C   UNL     1       1.447  15.194  19.378  0.00  0.00    +0.000 A 
ATOM     34  C   UNL     1       0.592  14.112  19.147  0.00  0.00    +0.000 A 
ENDBRANCH  27  28
ENDBRANCH   3  27
TORSDOF 8
ENDMDL
MODEL 8
REMARK VINA RESULT:      -7.3      4.351      6.944
REMARK  Name = 
REMARK  8 active torsions:
REMARK  status: ('A' for Active; 'I' for Inactive)
REMARK    1  A    between atoms: C_2  and  O_3
REMARK    2  A    between atoms: C_2  and  C_4
REMARK    3  A    between atoms: C_4  and  O_5
REMARK    4  A    between atoms: C_6  and  C_7
REMARK    5  A    between atoms: C_7  and  C_9
REMARK    6  A    between atoms: N_11  and  C_12
REMARK    7  A    between atoms: C_12  and  C_13
REMARK    8  A    between atoms: C_22  and  N_23
REMARK                            x       y       z     vdW  Elec       q    Type
REMARK                         _______ _______ _______ _____ _____    ______ ____
ROOT
ATOM      1  C   UNL     1       3.602   3.449  19.548  0.00  0.00    +0.000 A 
ATOM      2  C   UNL     1       4.227   4.276  18.694  0.00  0.00    +0.000 A 
ATOM      3  N   UNL     1       3.932   5.614  18.464  0.00  0.00    +0.000 N 
ATOM      4  C   UNL     1       2.894   6.225  19.207  0.00  0.00    +0.000 A 
ATOM      5  C   UNL     1       2.561   7.587  19.101  0.00  0.00    +0.000 A 
ATOM      6  C   UNL     1       1.594   8.209  19.913  0.00  0.00    +0.000 A 
ATOM      7  C   UNL     1       0.903   7.414  20.828  0.00  0.00    +0.000 A 
ATOM      8  C   UNL     1       1.175   6.049  20.938  0.00  0.00    +0.000 A 
ATOM      9  C   UNL     1       2.168   5.464  20.142  0.00  0.00    +0.000 A 
ATOM     10  C   UNL     1       2.471   4.020  20.321  0.00  0.00    +0.000 A 
ATOM     11  O   UNL     1       1.810   3.335  21.098  0.00  0.00    +0.000 OA
ENDROOT
BRANCH   6  12
ATOM     12  N   UNL     1       1.392   9.573  19.765  0.00  0.00    +0.000 N 
ATOM     13  C   UNL     1       0.867  10.413  20.843  0.00  0.00    +0.000 C 
ATOM     14  C   UNL     1      -0.302  11.156  20.213  0.00  0.00    +0.000 C 
ATOM     15  C   UNL     1       0.128  11.310  18.764  0.00  0.00    +0.000 C 
ATOM     16  C   UNL     1       0.849   9.998  18.467  0.00  0.00    +0.000 C 
ENDBRANCH   6  12
BRANCH   1  17
ATOM     17  C   UNL     1       4.085   2.039  19.635  0.00  0.00    +0.000 C 
ATOM     18  O   UNL     1       3.974   1.276  18.679  0.00  0.00    +0.000 OA
BRANCH  17  20
ATOM     19  C   UNL     1       5.501   0.507  21.001  0.00  0.00    +0.000 C 
ATOM     20  C   UNL     1       4.789   1.638  20.887  0.00  0.00    +0.000 C 
BRANCH  19  22
ATOM     21  O   UNL     1       6.955   0.991  22.789  0.00  0.00    +0.000 OA
ATOM     22  C   UNL     1       6.248   0.153  22.245  0.00  0.00    +0.000 C 
BRANCH  22  23
ATOM     23  O   UNL     1       6.140  -1.114  22.677  0.00  0.00    +0.000 OA
ATOM     24  H   UNL     1       6.979  -1.590  22.810  0.00  0.00    +0.000 HD
ENDBRANCH  22  23
ENDBRANCH  19  22
BRANCH  19  25
ATOM     25  O   UNL     1       5.646  -0.380  19.947  0.00  0.00    +0.000 OA
ATOM     26  H   UNL     1       5.878   0.165  19.166  0.00  0.00    +0.000 HD
ENDBRANCH  19  25
ENDBRANCH  17  20
ENDBRANCH   1  17
BRANCH   3  27
ATOM     27  C   UNL     1       4.739   6.423  17.522  0.00  0.00    +0.000 C 
BRANCH  27  28
ATOM     28  C   UNL     1       5.402   5.626  16.406  0.00  0.00    +0.000 A 
ATOM     29  C   UNL     1       6.794   5.597  16.203  0.00  0.00    +0.000 A 
ATOM     30  C   UNL     1       7.347   4.907  15.123  0.00  0.00    +0.000 A 
ATOM     31  C   UNL     1       6.516   4.219  14.251  0.00  0.00    +0.000 A 
ATOM     32  F   UNL     1       7.045   3.576  13.203  0.00  0.00    +0.000 F 
ATOM     33  C   UNL     1       5.142   4.193  14.449  0.00  0.00    +0.000 A 
ATOM     34  C   UNL     1       4.585   4.892  15.524  0.00  0.00    +0.000 A 
ENDBRANCH  27  28
ENDBRANCH   3  27
TORSDOF 8
ENDMDL
MODEL 9
REMARK VINA RESULT:      -7.2      4.418      8.708
REMARK  Name = 
REMARK  8 active torsions:
REMARK  status: ('A' for Active; 'I' for Inactive)
REMARK    1  A    between atoms: C_2  and  O_3
REMARK    2  A    between atoms: C_2  and  C_4
REMARK    3  A    between atoms: C_4  and  O_5
REMARK    4  A    between atoms: C_6  and  C_7
REMARK    5  A    between atoms: C_7  and  C_9
REMARK    6  A    between atoms: N_11  and  C_12
REMARK    7  A    between atoms: C_12  and  C_13
REMARK    8  A    between atoms: C_22  and  N_23
REMARK                            x       y       z     vdW  Elec       q    Type
REMARK                         _______ _______ _______ _____ _____    ______ ____
ROOT
ATOM      1  C   UNL     1       1.799   9.581  18.757  0.00  0.00    +0.000 A 
ATOM      2  C   UNL     1       2.507   8.987  17.783  0.00  0.00    +0.000 A 
ATOM      3  N   UNL     1       2.916   7.659  17.741  0.00  0.00    +0.000 N 
ATOM      4  C   UNL     1       2.544   6.795  18.797  0.00  0.00    +0.000 A 
ATOM      5  C   UNL     1       2.848   5.422  18.820  0.00  0.00    +0.000 A 
ATOM      6  C   UNL     1       2.391   4.548  19.825  0.00  0.00    +0.000 A 
ATOM      7  C   UNL     1       1.646   5.092  20.871  0.00  0.00    +0.000 A 
ATOM      8  C   UNL     1       1.357   6.457  20.909  0.00  0.00    +0.000 A 
ATOM      9  C   UNL     1       1.793   7.297  19.876  0.00  0.00    +0.000 A 
ATOM     10  C   UNL     1       1.423   8.736  19.917  0.00  0.00    +0.000 A 
ATOM     11  O   UNL     1       0.810   9.195  20.878  0.00  0.00    +0.000 OA
ENDROOT
BRANCH   6  12
ATOM     12  N   UNL     1       2.697   3.200  19.712  0.00  0.00    +0.000 N 
ATOM     13  C   UNL     1       3.745   2.561  20.509  0.00  0.00    +0.000 C 
ATOM     14  C   UNL     1       4.619   1.847  19.487  0.00  0.00    +0.000 C 
ATOM     15  C   UNL     1       3.633   1.465  18.397  0.00  0.00    +0.000 C 
ATOM     16  C   UNL     1       2.681   2.657  18.346  0.00  0.00    +0.000 C 
ENDBRANCH   6  12
BRANCH   1  17
ATOM     17  C   UNL     1       1.469  11.028  18.598  0.00  0.00    +0.000 C 
ATOM     18  O   UNL     1       2.358  11.873  18.535  0.00  0.00    +0.000 OA
BRANCH  17  20
ATOM     19  C   UNL     1      -0.732  11.876  19.407  0.00  0.00    +0.000 C 
ATOM     20  C   UNL     1       0.032  11.381  18.421  0.00  0.00    +0.000 C 
BRANCH  19  22
ATOM     21  O   UNL     1      -2.863  12.542  20.157  0.00  0.00    +0.000 OA
ATOM     22  C   UNL     1      -2.155  12.278  19.193  0.00  0.00    +0.000 C 
BRANCH  22  23
ATOM     23  O   UNL     1      -2.602  12.275  17.927  0.00  0.00    +0.000 OA
ATOM     24  H   UNL     1      -2.472  11.446  17.433  0.00  0.00    +0.000 HD
ENDBRANCH  22  23
ENDBRANCH  19  22
BRANCH  19  25
ATOM     25  O   UNL     1      -0.232  12.109  20.678  0.00  0.00    +0.000 OA
ATOM     26  H   UNL     1      -0.793  11.584  21.288  0.00  0.00    +0.000 HD
ENDBRANCH  19  25
ENDBRANCH  17  20
ENDBRANCH   1  17
BRANCH   3  27
ATOM     27  C   UNL     1       3.655   7.124  16.575  0.00  0.00    +0.000 C 
BRANCH  27  28
ATOM     28  C   UNL     1       4.921   6.352  16.924  0.00  0.00    +0.000 A 
ATOM     29  C   UNL     1       6.012   6.927  17.599  0.00  0.00    +0.000 A 
ATOM     30  C   UNL     1       7.178   6.196  17.832  0.00  0.00    +0.000 A 
ATOM     31  C   UNL     1       7.253   4.874  17.417  0.00  0.00    +0.000 A 
ATOM     32  F   UNL     1       8.379   4.179  17.622  0.00  0.00    +0.000 F 
ATOM     33  C   UNL     1       6.177   4.264  16.787  0.00  0.00    +0.000 A 
ATOM     34  C   UNL     1       5.012   5.000  16.542  0.00  0.00    +0.000 A 
ENDBRANCH  27  28
ENDBRANCH   3  27
TORSDOF 8
ENDMDL
