MODEL 1
REMARK VINA RESULT:      -7.8      0.000      0.000
REMARK  Name = 
REMARK  6 active torsions:
REMARK  status: ('A' for Active; 'I' for Inactive)
REMARK    1  A    between atoms: C_1  and  O_2
REMARK    2  A    between atoms: O_2  and  C_3
REMARK    3  A    between atoms: C_8  and  N_9
REMARK    4  A    between atoms: C_10  and  C_12
REMARK    5  A    between atoms: N_16  and  C_17
REMARK    6  A    between atoms: C_24  and  C_25
REMARK                            x       y       z     vdW  Elec       q    Type
REMARK                         _______ _______ _______ _____ _____    ______ ____
ROOT
ATOM      1  C   UNL     1       6.265   6.918  17.406  0.00  0.00    +0.000 C 
ATOM      2  C   UNL     1       7.651   6.956  18.050  0.00  0.00    +0.000 C 
ATOM      3  C   UNL     1       7.920   5.681  18.832  0.00  0.00    +0.000 C 
ATOM      4  C   UNL     1       6.810   5.377  19.843  0.00  0.00    +0.000 C 
ATOM      5  N   UNL     1       5.445   5.586  19.319  0.00  0.00    +0.000 N 
ATOM      6  C   UNL     1       5.223   6.765  18.492  0.00  0.00    +0.000 C 
ENDROOT
BRANCH   5   7
ATOM      7  C   UNL     1       4.687   4.479  18.955  0.00  0.00    +0.000 A 
ATOM      8  N   UNL     1       5.278   3.257  19.074  0.00  0.00    +0.000 NA
ATOM      9  C   UNL     1       4.619   2.163  18.668  0.00  0.00    +0.000 A 
ATOM     10  N   UNL     1       3.430   2.109  18.086  0.00  0.00    +0.000 NA
ATOM     11  C   UNL     1       2.878   3.331  17.990  0.00  0.00    +0.000 A 
ATOM     12  O   UNL     1       1.666   3.538  17.406  0.00  0.00    +0.000 OA
ATOM     13  N   UNL     1       1.319   4.862  17.512  0.00  0.00    +0.000 NA
ATOM     14  C   UNL     1       2.302   5.467  18.209  0.00  0.00    +0.000 A 
ATOM     15  C   UNL     1       3.375   4.527  18.423  0.00  0.00    +0.000 A 
BRANCH  14  16
ATOM     16  C   UNL     1       2.085   6.856  18.668  0.00  0.00    +0.000 A 
ATOM     17  C   UNL     1       1.856   7.137  20.023  0.00  0.00    +0.000 A 
ATOM     18  C   UNL     1       1.515   8.427  20.448  0.00  0.00    +0.000 A 
ATOM     19  C   UNL     1       1.366   9.445  19.516  0.00  0.00    +0.000 A 
ATOM     20  F   UNL     1       0.975  10.660  19.923  0.00  0.00    +0.000 F 
ATOM     21  C   UNL     1       1.592   9.204  18.169  0.00  0.00    +0.000 A 
ATOM     22  C   UNL     1       1.963   7.918  17.748  0.00  0.00    +0.000 A 
ENDBRANCH  14  16
ENDBRANCH   5   7
BRANCH   1  24
ATOM     23  N   UNL     1       7.000   5.237  15.482  0.00  0.00    +0.000 N 
ATOM     24  C   UNL     1       6.132   6.224  16.013  0.00  0.00    +0.000 C 
ATOM     25  O   UNL     1       5.167   6.667  15.380  0.00  0.00    +0.000 OA
ATOM     26  H   UNL     1       7.868   5.016  15.955  0.00  0.00    +0.000 HD
BRANCH  23  32
ATOM     27  C   UNL     1       7.523   4.924  12.943  0.00  0.00    +0.000 A 
ATOM     28  C   UNL     1       7.102   4.354  11.708  0.00  0.00    +0.000 A 
ATOM     29  C   UNL     1       6.092   3.402  11.630  0.00  0.00    +0.000 A 
ATOM     30  C   UNL     1       5.479   2.997  12.789  0.00  0.00    +0.000 A 
ATOM     31  C   UNL     1       5.844   3.584  14.009  0.00  0.00    +0.000 A 
ATOM     32  C   UNL     1       6.812   4.600  14.151  0.00  0.00    +0.000 A 
BRANCH  27  34
ATOM     33  C   UNL     1       8.778   6.689  11.857  0.00  0.00    +0.000 C 
ATOM     34  O   UNL     1       8.634   5.757  12.960  0.00  0.00    +0.000 OA
ENDBRANCH  27  34
ENDBRANCH  23  32
ENDBRANCH   1  24
TORSDOF 5
ENDMDL
MODEL 2
REMARK VINA RESULT:      -7.8      7.222     10.908
REMARK  Name = 
REMARK  6 active torsions:
REMARK  status: ('A' for Active; 'I' for Inactive)
REMARK    1  A    between atoms: C_1  and  O_2
REMARK    2  A    between atoms: O_2  and  C_3
REMARK    3  A    between atoms: C_8  and  N_9
REMARK    4  A    between atoms: C_10  and  C_12
REMARK    5  A    between atoms: N_16  and  C_17
REMARK    6  A    between atoms: C_24  and  C_25
REMARK                            x       y       z     vdW  Elec       q    Type
REMARK                         _______ _______ _______ _____ _____    ______ ____
ROOT
ATOM      1  C   UNL     1      -0.755  13.176  21.358  0.00  0.00    +0.000 C 
ATOM      2  C   UNL     1      -1.108  12.958  22.829  0.00  0.00    +0.000 C 
ATOM      3  C   UNL     1      -2.385  12.146  22.966  0.00  0.00    +0.000 C 
ATOM      4  C   UNL     1      -3.544  12.751  22.167  0.00  0.00    +0.000 C 
ATOM      5  N   UNL     1      -3.166  13.214  20.817  0.00  0.00    +0.000 N 
ATOM      6  C   UNL     1      -1.892  13.911  20.684  0.00  0.00    +0.000 C 
ENDROOT
BRANCH   5   7
ATOM      7  C   UNL     1      -3.512  12.438  19.717  0.00  0.00    +0.000 A 
ATOM      8  N   UNL     1      -2.491  11.955  18.953  0.00  0.00    +0.000 NA
ATOM      9  C   UNL     1      -2.770  11.263  17.841  0.00  0.00    +0.000 A 
ATOM     10  N   UNL     1      -3.965  11.016  17.324  0.00  0.00    +0.000 NA
ATOM     11  C   UNL     1      -4.944  11.502  18.106  0.00  0.00    +0.000 A 
ATOM     12  O   UNL     1      -6.260  11.394  17.775  0.00  0.00    +0.000 OA
ATOM     13  N   UNL     1      -7.036  11.911  18.783  0.00  0.00    +0.000 NA
ATOM     14  C   UNL     1      -6.194  12.296  19.764  0.00  0.00    +0.000 A 
ATOM     15  C   UNL     1      -4.836  12.155  19.301  0.00  0.00    +0.000 A 
BRANCH  14  16
ATOM     16  C   UNL     1      -6.770  12.685  21.070  0.00  0.00    +0.000 A 
ATOM     17  C   UNL     1      -6.702  14.012  21.517  0.00  0.00    +0.000 A 
ATOM     18  C   UNL     1      -7.120  14.364  22.807  0.00  0.00    +0.000 A 
ATOM     19  C   UNL     1      -7.581  13.384  23.676  0.00  0.00    +0.000 A 
ATOM     20  F   UNL     1      -7.916  13.718  24.928  0.00  0.00    +0.000 F 
ATOM     21  C   UNL     1      -7.668  12.063  23.263  0.00  0.00    +0.000 A 
ATOM     22  C   UNL     1      -7.277  11.717  21.960  0.00  0.00    +0.000 A 
ENDBRANCH  14  16
ENDBRANCH   5   7
BRANCH   1  24
ATOM     23  N   UNL     1      -0.353  10.723  20.414  0.00  0.00    +0.000 N 
ATOM     24  C   UNL     1       0.065  12.059  20.637  0.00  0.00    +0.000 C 
ATOM     25  O   UNL     1       1.179  12.470  20.295  0.00  0.00    +0.000 OA
ATOM     26  H   UNL     1      -1.199  10.376  20.849  0.00  0.00    +0.000 HD
BRANCH  23  32
ATOM     27  C   UNL     1       1.177   8.610  20.311  0.00  0.00    +0.000 A 
ATOM     28  C   UNL     1       2.070   7.831  19.521  0.00  0.00    +0.000 A 
ATOM     29  C   UNL     1       2.210   8.014  18.151  0.00  0.00    +0.000 A 
ATOM     30  C   UNL     1       1.456   8.983  17.537  0.00  0.00    +0.000 A 
ATOM     31  C   UNL     1       0.609   9.793  18.304  0.00  0.00    +0.000 A 
ATOM     32  C   UNL     1       0.470   9.706  19.705  0.00  0.00    +0.000 A 
BRANCH  27  34
ATOM     33  C   UNL     1       1.469   9.210  22.640  0.00  0.00    +0.000 C 
ATOM     34  O   UNL     1       0.983   8.273  21.644  0.00  0.00    +0.000 OA
ENDBRANCH  27  34
ENDBRANCH  23  32
ENDBRANCH   1  24
TORSDOF 5
ENDMDL
MODEL 3
REMARK VINA RESULT:      -7.5      8.599     12.285
REMARK  Name = 
REMARK  6 active torsions:
REMARK  status: ('A' for Active; 'I' for Inactive)
REMARK    1  A    between atoms: C_1  and  O_2
REMARK    2  A    between atoms: O_2  and  C_3
REMARK    3  A    between atoms: C_8  and  N_9
REMARK    4  A    between atoms: C_10  and  C_12
REMARK    5  A    between atoms: N_16  and  C_17
REMARK    6  A    between atoms: C_24  and  C_25
REMARK                            x       y       z     vdW  Elec       q    Type
REMARK                         _______ _______ _______ _____ _____    ______ ____
ROOT
ATOM      1  C   UNL     1      -2.061  11.847  17.939  0.00  0.00    +0.000 C 
ATOM      2  C   UNL     1      -1.697  10.493  17.329  0.00  0.00    +0.000 C 
ATOM      3  C   UNL     1      -1.047   9.590  18.364  0.00  0.00    +0.000 C 
ATOM      4  C   UNL     1       0.144  10.263  19.053  0.00  0.00    +0.000 C 
ATOM      5  N   UNL     1      -0.094  11.673  19.424  0.00  0.00    +0.000 N 
ATOM      6  C   UNL     1      -0.802  12.505  18.460  0.00  0.00    +0.000 C 
ENDROOT
BRANCH   5   7
ATOM      7  C   UNL     1      -0.359  11.984  20.753  0.00  0.00    +0.000 A 
ATOM      8  N   UNL     1      -0.996  11.036  21.496  0.00  0.00    +0.000 NA
ATOM      9  C   UNL     1      -1.341  11.311  22.761  0.00  0.00    +0.000 A 
ATOM     10  N   UNL     1      -1.187  12.458  23.406  0.00  0.00    +0.000 NA
ATOM     11  C   UNL     1      -0.552  13.365  22.644  0.00  0.00    +0.000 A 
ATOM     12  O   UNL     1      -0.299  14.630  23.078  0.00  0.00    +0.000 OA
ATOM     13  N   UNL     1       0.421  15.311  22.128  0.00  0.00    +0.000 NA
ATOM     14  C   UNL     1       0.654  14.445  21.121  0.00  0.00    +0.000 A 
ATOM     15  C   UNL     1      -0.066  13.222  21.376  0.00  0.00    +0.000 A 
BRANCH  14  16
ATOM     16  C   UNL     1       1.603  14.843  20.058  0.00  0.00    +0.000 A 
ATOM     17  C   UNL     1       1.379  15.995  19.292  0.00  0.00    +0.000 A 
ATOM     18  C   UNL     1       2.195  16.307  18.197  0.00  0.00    +0.000 A 
ATOM     19  C   UNL     1       3.225  15.449  17.836  0.00  0.00    +0.000 A 
ATOM     20  F   UNL     1       3.958  15.719  16.748  0.00  0.00    +0.000 F 
ATOM     21  C   UNL     1       3.479  14.304  18.577  0.00  0.00    +0.000 A 
ATOM     22  C   UNL     1       2.679  14.010  19.692  0.00  0.00    +0.000 A 
ENDBRANCH  14  16
ENDBRANCH   5   7
BRANCH   1  24
ATOM     23  N   UNL     1      -3.782  12.931  19.651  0.00  0.00    +0.000 N 
ATOM     24  C   UNL     1      -3.434  11.965  18.673  0.00  0.00    +0.000 C 
ATOM     25  O   UNL     1      -4.210  11.069  18.321  0.00  0.00    +0.000 OA
ATOM     26  H   UNL     1      -3.074  13.545  20.033  0.00  0.00    +0.000 HD
BRANCH  23  32
ATOM     27  C   UNL     1      -5.413  12.669  21.673  0.00  0.00    +0.000 A 
ATOM     28  C   UNL     1      -6.770  12.611  22.101  0.00  0.00    +0.000 A 
ATOM     29  C   UNL     1      -7.830  12.973  21.278  0.00  0.00    +0.000 A 
ATOM     30  C   UNL     1      -7.555  13.402  20.003  0.00  0.00    +0.000 A 
ATOM     31  C   UNL     1      -6.230  13.417  19.547  0.00  0.00    +0.000 A 
ATOM     32  C   UNL     1      -5.117  13.002  20.306  0.00  0.00    +0.000 A 
BRANCH  27  34
ATOM     33  C   UNL     1      -4.690  12.742  23.984  0.00  0.00    +0.000 C 
ATOM     34  O   UNL     1      -4.402  12.434  22.595  0.00  0.00    +0.000 OA
ENDBRANCH  27  34
ENDBRANCH  23  32
ENDBRANCH   1  24
TORSDOF 5
ENDMDL
MODEL 4
REMARK VINA RESULT:      -7.5      8.623     12.299
REMARK  Name = 
REMARK  6 active torsions:
REMARK  status: ('A' for Active; 'I' for Inactive)
REMARK    1  A    between atoms: C_1  and  O_2
REMARK    2  A    between atoms: O_2  and  C_3
REMARK    3  A    between atoms: C_8  and  N_9
REMARK    4  A    between atoms: C_10  and  C_12
REMARK    5  A    between atoms: N_16  and  C_17
REMARK    6  A    between atoms: C_24  and  C_25
REMARK                            x       y       z     vdW  Elec       q    Type
REMARK                         _______ _______ _______ _____ _____    ______ ____
ROOT
ATOM      1  C   UNL     1      -2.305  11.940  17.828  0.00  0.00    +0.000 C 
ATOM      2  C   UNL     1      -2.009  10.651  17.062  0.00  0.00    +0.000 C 
ATOM      3  C   UNL     1      -1.259   9.661  17.937  0.00  0.00    +0.000 C 
ATOM      4  C   UNL     1      -0.002  10.275  18.560  0.00  0.00    +0.000 C 
ATOM      5  N   UNL     1      -0.197  11.643  19.082  0.00  0.00    +0.000 N 
ATOM      6  C   UNL     1      -0.998  12.555  18.276  0.00  0.00    +0.000 C 
ENDROOT
BRANCH   5   7
ATOM      7  C   UNL     1      -0.323  11.829  20.454  0.00  0.00    +0.000 A 
ATOM      8  N   UNL     1      -0.694  10.746  21.194  0.00  0.00    +0.000 NA
ATOM      9  C   UNL     1      -0.902  10.887  22.510  0.00  0.00    +0.000 A 
ATOM     10  N   UNL     1      -0.845  12.005  23.219  0.00  0.00    +0.000 NA
ATOM     11  C   UNL     1      -0.471  13.047  22.457  0.00  0.00    +0.000 A 
ATOM     12  O   UNL     1      -0.364  14.310  22.955  0.00  0.00    +0.000 OA
ATOM     13  N   UNL     1       0.102  15.155  21.978  0.00  0.00    +0.000 NA
ATOM     14  C   UNL     1       0.329  14.399  20.885  0.00  0.00    +0.000 A 
ATOM     15  C   UNL     1      -0.146  13.060  21.130  0.00  0.00    +0.000 A 
BRANCH  14  16
ATOM     16  C   UNL     1       1.049  15.010  19.746  0.00  0.00    +0.000 A 
ATOM     17  C   UNL     1       2.178  14.389  19.194  0.00  0.00    +0.000 A 
ATOM     18  C   UNL     1       2.944  15.023  18.208  0.00  0.00    +0.000 A 
ATOM     19  C   UNL     1       2.608  16.303  17.787  0.00  0.00    +0.000 A 
ATOM     20  F   UNL     1       3.384  16.929  16.893  0.00  0.00    +0.000 F 
ATOM     21  C   UNL     1       1.493  16.943  18.307  0.00  0.00    +0.000 A 
ATOM     22  C   UNL     1       0.709  16.294  19.273  0.00  0.00    +0.000 A 
ENDBRANCH  14  16
ENDBRANCH   5   7
BRANCH   1  24
ATOM     23  N   UNL     1      -3.904  12.944  19.700  0.00  0.00    +0.000 N 
ATOM     24  C   UNL     1      -3.595  11.981  18.707  0.00  0.00    +0.000 C 
ATOM     25  O   UNL     1      -4.339  11.025  18.458  0.00  0.00    +0.000 OA
ATOM     26  H   UNL     1      -3.203  13.616  19.991  0.00  0.00    +0.000 HD
BRANCH  23  32
ATOM     27  C   UNL     1      -5.286  12.597  21.888  0.00  0.00    +0.000 A 
ATOM     28  C   UNL     1      -6.582  12.461  22.461  0.00  0.00    +0.000 A 
ATOM     29  C   UNL     1      -7.745  12.753  21.759  0.00  0.00    +0.000 A 
ATOM     30  C   UNL     1      -7.637  13.190  20.462  0.00  0.00    +0.000 A 
ATOM     31  C   UNL     1      -6.373  13.282  19.864  0.00  0.00    +0.000 A 
ATOM     32  C   UNL     1      -5.160  12.939  20.496  0.00  0.00    +0.000 A 
BRANCH  27  34
ATOM     33  C   UNL     1      -4.339  12.660  24.117  0.00  0.00    +0.000 C 
ATOM     34  O   UNL     1      -4.168  12.430  22.694  0.00  0.00    +0.000 OA
ENDBRANCH  27  34
ENDBRANCH  23  32
ENDBRANCH   1  24
TORSDOF 5
ENDMDL
MODEL 5
REMARK VINA RESULT:      -7.4      6.835     11.844
REMARK  Name = 
REMARK  6 active torsions:
REMARK  status: ('A' for Active; 'I' for Inactive)
REMARK    1  A    between atoms: C_1  and  O_2
REMARK    2  A    between atoms: O_2  and  C_3
REMARK    3  A    between atoms: C_8  and  N_9
REMARK    4  A    between atoms: C_10  and  C_12
REMARK    5  A    between atoms: N_16  and  C_17
REMARK    6  A    between atoms: C_24  and  C_25
REMARK                            x       y       z     vdW  Elec       q    Type
REMARK                         _______ _______ _______ _____ _____    ______ ____
ROOT
ATOM      1  C   UNL     1      -2.732  11.976  17.821  0.00  0.00    +0.000 C 
ATOM      2  C   UNL     1      -2.658  10.801  16.846  0.00  0.00    +0.000 C 
ATOM      3  C   UNL     1      -2.127   9.557  17.537  0.00  0.00    +0.000 C 
ATOM      4  C   UNL     1      -0.796   9.813  18.250  0.00  0.00    +0.000 C 
ATOM      5  N   UNL     1      -0.750  11.086  18.998  0.00  0.00    +0.000 N 
ATOM      6  C   UNL     1      -1.347  12.254  18.362  0.00  0.00    +0.000 C 
ENDROOT
BRANCH   5   7
ATOM      7  C   UNL     1      -0.877  11.059  20.382  0.00  0.00    +0.000 A 
ATOM      8  N   UNL     1      -1.861  11.827  20.928  0.00  0.00    +0.000 NA
ATOM      9  C   UNL     1      -1.981  11.896  22.261  0.00  0.00    +0.000 A 
ATOM     10  N   UNL     1      -1.199  11.332  23.170  0.00  0.00    +0.000 NA
ATOM     11  C   UNL     1      -0.245  10.580  22.594  0.00  0.00    +0.000 A 
ATOM     12  O   UNL     1       0.697   9.918  23.321  0.00  0.00    +0.000 OA
ATOM     13  N   UNL     1       1.493   9.177  22.482  0.00  0.00    +0.000 NA
ATOM     14  C   UNL     1       1.009   9.346  21.235  0.00  0.00    +0.000 A 
ATOM     15  C   UNL     1      -0.035  10.340  21.265  0.00  0.00    +0.000 A 
BRANCH  14  16
ATOM     16  C   UNL     1       1.537   8.485  20.155  0.00  0.00    +0.000 A 
ATOM     17  C   UNL     1       1.763   7.118  20.373  0.00  0.00    +0.000 A 
ATOM     18  C   UNL     1       2.388   6.324  19.403  0.00  0.00    +0.000 A 
ATOM     19  C   UNL     1       2.824   6.897  18.216  0.00  0.00    +0.000 A 
ATOM     20  F   UNL     1       3.480   6.145  17.322  0.00  0.00    +0.000 F 
ATOM     21  C   UNL     1       2.610   8.244  17.965  0.00  0.00    +0.000 A 
ATOM     22  C   UNL     1       1.956   9.032  18.925  0.00  0.00    +0.000 A 
ENDBRANCH  14  16
ENDBRANCH   5   7
BRANCH   1  24
ATOM     23  N   UNL     1      -4.278  13.121  19.657  0.00  0.00    +0.000 N 
ATOM     24  C   UNL     1      -4.016  12.108  18.700  0.00  0.00    +0.000 C 
ATOM     25  O   UNL     1      -4.803  11.179  18.488  0.00  0.00    +0.000 OA
ATOM     26  H   UNL     1      -3.547  13.771  19.922  0.00  0.00    +0.000 HD
BRANCH  23  32
ATOM     27  C   UNL     1      -6.778  13.778  20.026  0.00  0.00    +0.000 A 
ATOM     28  C   UNL     1      -7.832  13.947  20.968  0.00  0.00    +0.000 A 
ATOM     29  C   UNL     1      -7.750  13.476  22.274  0.00  0.00    +0.000 A 
ATOM     30  C   UNL     1      -6.608  12.824  22.667  0.00  0.00    +0.000 A 
ATOM     31  C   UNL     1      -5.540  12.692  21.769  0.00  0.00    +0.000 A 
ATOM     32  C   UNL     1      -5.531  13.203  20.454  0.00  0.00    +0.000 A 
BRANCH  27  34
ATOM     33  C   UNL     1      -7.371  15.519  18.449  0.00  0.00    +0.000 C 
ATOM     34  O   UNL     1      -6.989  14.142  18.702  0.00  0.00    +0.000 OA
ENDBRANCH  27  34
ENDBRANCH  23  32
ENDBRANCH   1  24
TORSDOF 5
ENDMDL
MODEL 6
REMARK VINA RESULT:      -7.4      8.700     12.367
REMARK  Name = 
REMARK  6 active torsions:
REMARK  status: ('A' for Active; 'I' for Inactive)
REMARK    1  A    between atoms: C_1  and  O_2
REMARK    2  A    between atoms: O_2  and  C_3
REMARK    3  A    between atoms: C_8  and  N_9
REMARK    4  A    between atoms: C_10  and  C_12
REMARK    5  A    between atoms: N_16  and  C_17
REMARK    6  A    between atoms: C_24  and  C_25
REMARK                            x       y       z     vdW  Elec       q    Type
REMARK                         _______ _______ _______ _____ _____    ______ ____
ROOT
ATOM      1  C   UNL     1      -2.172  11.883  17.994  0.00  0.00    +0.000 C 
ATOM      2  C   UNL     1      -1.795  10.521  17.412  0.00  0.00    +0.000 C 
ATOM      3  C   UNL     1      -1.121   9.652  18.460  0.00  0.00    +0.000 C 
ATOM      4  C   UNL     1       0.067  10.357  19.120  0.00  0.00    +0.000 C 
ATOM      5  N   UNL     1      -0.187  11.772  19.461  0.00  0.00    +0.000 N 
ATOM      6  C   UNL     1      -0.918  12.571  18.486  0.00  0.00    +0.000 C 
ENDROOT
BRANCH   5   7
ATOM      7  C   UNL     1      -0.442  12.110  20.786  0.00  0.00    +0.000 A 
ATOM      8  N   UNL     1      -1.131  11.203  21.535  0.00  0.00    +0.000 NA
ATOM      9  C   UNL     1      -1.468  11.510  22.795  0.00  0.00    +0.000 A 
ATOM     10  N   UNL     1      -1.259  12.654  23.429  0.00  0.00    +0.000 NA
ATOM     11  C   UNL     1      -0.574  13.519  22.661  0.00  0.00    +0.000 A 
ATOM     12  O   UNL     1      -0.258  14.774  23.084  0.00  0.00    +0.000 OA
ATOM     13  N   UNL     1       0.500  15.407  22.131  0.00  0.00    +0.000 NA
ATOM     14  C   UNL     1       0.694  14.519  21.134  0.00  0.00    +0.000 A 
ATOM     15  C   UNL     1      -0.089  13.338  21.397  0.00  0.00    +0.000 A 
BRANCH  14  16
ATOM     16  C   UNL     1       1.667  14.857  20.073  0.00  0.00    +0.000 A 
ATOM     17  C   UNL     1       1.549  16.049  19.344  0.00  0.00    +0.000 A 
ATOM     18  C   UNL     1       2.382  16.315  18.250  0.00  0.00    +0.000 A 
ATOM     19  C   UNL     1       3.321  15.373  17.851  0.00  0.00    +0.000 A 
ATOM     20  F   UNL     1       4.067  15.605  16.763  0.00  0.00    +0.000 F 
ATOM     21  C   UNL     1       3.469  14.187  18.553  0.00  0.00    +0.000 A 
ATOM     22  C   UNL     1       2.654  13.936  19.669  0.00  0.00    +0.000 A 
ENDBRANCH  14  16
ENDBRANCH   5   7
BRANCH   1  24
ATOM     23  N   UNL     1      -3.905  13.005  19.669  0.00  0.00    +0.000 N 
ATOM     24  C   UNL     1      -3.539  11.999  18.740  0.00  0.00    +0.000 C 
ATOM     25  O   UNL     1      -4.290  11.062  18.448  0.00  0.00    +0.000 OA
ATOM     26  H   UNL     1      -3.211  13.661  20.008  0.00  0.00    +0.000 HD
BRANCH  23  32
ATOM     27  C   UNL     1      -6.454  13.564  19.761  0.00  0.00    +0.000 A 
ATOM     28  C   UNL     1      -7.601  13.733  20.588  0.00  0.00    +0.000 A 
ATOM     29  C   UNL     1      -7.628  13.337  21.920  0.00  0.00    +0.000 A 
ATOM     30  C   UNL     1      -6.504  12.759  22.456  0.00  0.00    +0.000 A 
ATOM     31  C   UNL     1      -5.349  12.630  21.673  0.00  0.00    +0.000 A 
ATOM     32  C   UNL     1      -5.233  13.070  20.338  0.00  0.00    +0.000 A 
BRANCH  27  34
ATOM     33  C   UNL     1      -7.149  12.833  17.558  0.00  0.00    +0.000 C 
ATOM     34  O   UNL     1      -6.550  13.848  18.405  0.00  0.00    +0.000 OA
ENDBRANCH  27  34
ENDBRANCH  23  32
ENDBRANCH   1  24
TORSDOF 5
ENDMDL
MODEL 7
REMARK VINA RESULT:      -7.3      9.038     11.829
REMARK  Name = 
REMARK  6 active torsions:
REMARK  status: ('A' for Active; 'I' for Inactive)
REMARK    1  A    between atoms: C_1  and  O_2
REMARK    2  A    between atoms: O_2  and  C_3
REMARK    3  A    between atoms: C_8  and  N_9
REMARK    4  A    between atoms: C_10  and  C_12
REMARK    5  A    between atoms: N_16  and  C_17
REMARK    6  A    between atoms: C_24  and  C_25
REMARK                            x       y       z     vdW  Elec       q    Type
REMARK                         _______ _______ _______ _____ _____    ______ ____
ROOT
ATOM      1  C   UNL     1       0.605  12.254  19.454  0.00  0.00    +0.000 C 
ATOM      2  C   UNL     1       0.660  11.821  20.919  0.00  0.00    +0.000 C 
ATOM      3  C   UNL     1       0.419  13.002  21.842  0.00  0.00    +0.000 C 
ATOM      4  C   UNL     1       1.358  14.174  21.542  0.00  0.00    +0.000 C 
ATOM      5  N   UNL     1       1.529  14.452  20.101  0.00  0.00    +0.000 N 
ATOM      6  C   UNL     1       1.666  13.305  19.213  0.00  0.00    +0.000 C 
ENDROOT
BRANCH   5   7
ATOM      7  C   UNL     1       0.861  15.535  19.540  0.00  0.00    +0.000 A 
ATOM      8  N   UNL     1      -0.429  15.736  19.930  0.00  0.00    +0.000 NA
ATOM      9  C   UNL     1      -1.142  16.720  19.366  0.00  0.00    +0.000 A 
ATOM     10  N   UNL     1      -0.763  17.533  18.391  0.00  0.00    +0.000 NA
ATOM     11  C   UNL     1       0.514  17.308  18.038  0.00  0.00    +0.000 A 
ATOM     12  O   UNL     1       1.126  18.003  17.040  0.00  0.00    +0.000 OA
ATOM     13  N   UNL     1       2.440  17.617  16.944  0.00  0.00    +0.000 NA
ATOM     14  C   UNL     1       2.653  16.714  17.922  0.00  0.00    +0.000 A 
ATOM     15  C   UNL     1       1.398  16.408  18.562  0.00  0.00    +0.000 A 
BRANCH  14  16
ATOM     16  C   UNL     1       4.044  16.293  18.198  0.00  0.00    +0.000 A 
ATOM     17  C   UNL     1       4.582  15.150  17.590  0.00  0.00    +0.000 A 
ATOM     18  C   UNL     1       5.847  14.667  17.947  0.00  0.00    +0.000 A 
ATOM     19  C   UNL     1       6.575  15.304  18.942  0.00  0.00    +0.000 A 
ATOM     20  F   UNL     1       7.755  14.798  19.324  0.00  0.00    +0.000 F 
ATOM     21  C   UNL     1       6.076  16.442  19.559  0.00  0.00    +0.000 A 
ATOM     22  C   UNL     1       4.821  16.942  19.179  0.00  0.00    +0.000 A 
ENDBRANCH  14  16
ENDBRANCH   5   7
BRANCH   1  24
ATOM     23  N   UNL     1      -1.929  11.526  19.111  0.00  0.00    +0.000 N 
ATOM     24  C   UNL     1      -0.796  12.304  18.765  0.00  0.00    +0.000 C 
ATOM     25  O   UNL     1      -0.806  13.106  17.824  0.00  0.00    +0.000 OA
ATOM     26  H   UNL     1      -1.840  10.766  19.776  0.00  0.00    +0.000 HD
BRANCH  23  32
ATOM     27  C   UNL     1      -3.529  11.260  17.065  0.00  0.00    +0.000 A 
ATOM     28  C   UNL     1      -4.793  11.591  16.499  0.00  0.00    +0.000 A 
ATOM     29  C   UNL     1      -5.818  12.164  17.242  0.00  0.00    +0.000 A 
ATOM     30  C   UNL     1      -5.602  12.420  18.573  0.00  0.00    +0.000 A 
ATOM     31  C   UNL     1      -4.348  12.148  19.136  0.00  0.00    +0.000 A 
ATOM     32  C   UNL     1      -3.245  11.630  18.426  0.00  0.00    +0.000 A 
BRANCH  27  34
ATOM     33  C   UNL     1      -2.953  10.311  14.912  0.00  0.00    +0.000 C 
ATOM     34  O   UNL     1      -2.608  10.557  16.300  0.00  0.00    +0.000 OA
ENDBRANCH  27  34
ENDBRANCH  23  32
ENDBRANCH   1  24
TORSDOF 5
ENDMDL
MODEL 8
REMARK VINA RESULT:      -7.3      2.843      7.719
REMARK  Name = 
REMARK  6 active torsions:
REMARK  status: ('A' for Active; 'I' for Inactive)
REMARK    1  A    between atoms: C_1  and  O_2
REMARK    2  A    between atoms: O_2  and  C_3
REMARK    3  A    between atoms: C_8  and  N_9
REMARK    4  A    between atoms: C_10  and  C_12
REMARK    5  A    between atoms: N_16  and  C_17
REMARK    6  A    between atoms: C_24  and  C_25
REMARK                            x       y       z     vdW  Elec       q    Type
REMARK                         _______ _______ _______ _____ _____    ______ ____
ROOT
ATOM      1  C   UNL     1       2.530   4.801  17.698  0.00  0.00    +0.000 C 
ATOM      2  C   UNL     1       1.966   3.655  18.538  0.00  0.00    +0.000 C 
ATOM      3  C   UNL     1       3.021   3.106  19.483  0.00  0.00    +0.000 C 
ATOM      4  C   UNL     1       4.309   2.717  18.750  0.00  0.00    +0.000 C 
ATOM      5  N   UNL     1       4.741   3.698  17.734  0.00  0.00    +0.000 N 
ATOM      6  C   UNL     1       3.705   4.289  16.895  0.00  0.00    +0.000 C 
ENDROOT
BRANCH   5   7
ATOM      7  C   UNL     1       5.796   4.554  18.029  0.00  0.00    +0.000 A 
ATOM      8  N   UNL     1       6.092   4.740  19.346  0.00  0.00    +0.000 NA
ATOM      9  C   UNL     1       7.051   5.611  19.689  0.00  0.00    +0.000 A 
ATOM     10  N   UNL     1       7.751   6.397  18.885  0.00  0.00    +0.000 NA
ATOM     11  C   UNL     1       7.434   6.181  17.596  0.00  0.00    +0.000 A 
ATOM     12  O   UNL     1       8.004   6.886  16.580  0.00  0.00    +0.000 OA
ATOM     13  N   UNL     1       7.550   6.410  15.375  0.00  0.00    +0.000 NA
ATOM     14  C   UNL     1       6.733   5.373  15.648  0.00  0.00    +0.000 A 
ATOM     15  C   UNL     1       6.547   5.283  17.075  0.00  0.00    +0.000 A 
BRANCH  14  16
ATOM     16  C   UNL     1       6.276   4.525  14.526  0.00  0.00    +0.000 A 
ATOM     17  C   UNL     1       7.180   4.071  13.555  0.00  0.00    +0.000 A 
ATOM     18  C   UNL     1       6.737   3.383  12.418  0.00  0.00    +0.000 A 
ATOM     19  C   UNL     1       5.379   3.171  12.223  0.00  0.00    +0.000 A 
ATOM     20  F   UNL     1       4.959   2.572  11.102  0.00  0.00    +0.000 F 
ATOM     21  C   UNL     1       4.458   3.600  13.167  0.00  0.00    +0.000 A 
ATOM     22  C   UNL     1       4.906   4.262  14.321  0.00  0.00    +0.000 A 
ENDBRANCH  14  16
ENDBRANCH   5   7
BRANCH   1  24
ATOM     23  N   UNL     1       1.674   7.310  17.897  0.00  0.00    +0.000 N 
ATOM     24  C   UNL     1       2.498   6.235  18.315  0.00  0.00    +0.000 C 
ATOM     25  O   UNL     1       3.325   6.351  19.226  0.00  0.00    +0.000 OA
ATOM     26  H   UNL     1       1.128   7.232  17.047  0.00  0.00    +0.000 HD
BRANCH  23  32
ATOM     27  C   UNL     1       1.200   8.971  19.855  0.00  0.00    +0.000 A 
ATOM     28  C   UNL     1       1.101  10.334  20.255  0.00  0.00    +0.000 A 
ATOM     29  C   UNL     1       1.552  11.381  19.461  0.00  0.00    +0.000 A 
ATOM     30  C   UNL     1       2.115  11.087  18.244  0.00  0.00    +0.000 A 
ATOM     31  C   UNL     1       2.176   9.756  17.811  0.00  0.00    +0.000 A 
ATOM     32  C   UNL     1       1.678   8.654  18.536  0.00  0.00    +0.000 A 
BRANCH  27  34
ATOM     33  C   UNL     1      -0.131   8.301  21.766  0.00  0.00    +0.000 C 
ATOM     34  O   UNL     1       0.864   7.973  20.761  0.00  0.00    +0.000 OA
ENDBRANCH  27  34
ENDBRANCH  23  32
ENDBRANCH   1  24
TORSDOF 5
ENDMDL
MODEL 9
REMARK VINA RESULT:      -7.2      5.268      8.547
REMARK  Name = 
REMARK  6 active torsions:
REMARK  status: ('A' for Active; 'I' for Inactive)
REMARK    1  A    between atoms: C_1  and  O_2
REMARK    2  A    between atoms: O_2  and  C_3
REMARK    3  A    between atoms: C_8  and  N_9
REMARK    4  A    between atoms: C_10  and  C_12
REMARK    5  A    between atoms: N_16  and  C_17
REMARK    6  A    between atoms: C_24  and  C_25
REMARK                            x       y       z     vdW  Elec       q    Type
REMARK                         _______ _______ _______ _____ _____    ______ ____
ROOT
ATOM      1  C   UNL     1       1.200   9.482  21.881  0.00  0.00    +0.000 C 
ATOM      2  C   UNL     1       0.540   9.644  23.251  0.00  0.00    +0.000 C 
ATOM      3  C   UNL     1      -0.930   9.998  23.105  0.00  0.00    +0.000 C 
ATOM      4  C   UNL     1      -1.145  11.216  22.202  0.00  0.00    +0.000 C 
ATOM      5  N   UNL     1      -0.316  11.212  20.980  0.00  0.00    +0.000 N 
ATOM      6  C   UNL     1       1.070  10.780  21.117  0.00  0.00    +0.000 C 
ENDROOT
BRANCH   5   7
ATOM      7  C   UNL     1      -0.905  10.873  19.766  0.00  0.00    +0.000 A 
ATOM      8  N   UNL     1      -0.260   9.946  19.003  0.00  0.00    +0.000 NA
ATOM      9  C   UNL     1      -0.744   9.638  17.793  0.00  0.00    +0.000 A 
ATOM     10  N   UNL     1      -1.789  10.177  17.181  0.00  0.00    +0.000 NA
ATOM     11  C   UNL     1      -2.400  11.081  17.966  0.00  0.00    +0.000 A 
ATOM     12  O   UNL     1      -3.486  11.789  17.551  0.00  0.00    +0.000 OA
ATOM     13  N   UNL     1      -3.943  12.581  18.575  0.00  0.00    +0.000 NA
ATOM     14  C   UNL     1      -3.163  12.323  19.644  0.00  0.00    +0.000 A 
ATOM     15  C   UNL     1      -2.087  11.451  19.243  0.00  0.00    +0.000 A 
BRANCH  14  16
ATOM     16  C   UNL     1      -3.568  12.872  20.957  0.00  0.00    +0.000 A 
ATOM     17  C   UNL     1      -4.758  12.457  21.572  0.00  0.00    +0.000 A 
ATOM     18  C   UNL     1      -5.218  13.067  22.746  0.00  0.00    +0.000 A 
ATOM     19  C   UNL     1      -4.508  14.123  23.300  0.00  0.00    +0.000 A 
ATOM     20  F   UNL     1      -4.989  14.745  24.384  0.00  0.00    +0.000 F 
ATOM     21  C   UNL     1      -3.323  14.554  22.722  0.00  0.00    +0.000 A 
ATOM     22  C   UNL     1      -2.848  13.922  21.563  0.00  0.00    +0.000 A 
ENDBRANCH  14  16
ENDBRANCH   5   7
BRANCH   1  24
ATOM     23  N   UNL     1       2.163   7.353  20.612  0.00  0.00    +0.000 N 
ATOM     24  C   UNL     1       1.095   8.086  21.188  0.00  0.00    +0.000 C 
ATOM     25  O   UNL     1      -0.074   7.683  21.164  0.00  0.00    +0.000 OA
ATOM     26  H   UNL     1       3.074   7.782  20.503  0.00  0.00    +0.000 HD
BRANCH  23  32
ATOM     27  C   UNL     1       2.275   5.688  18.604  0.00  0.00    +0.000 A 
ATOM     28  C   UNL     1       1.897   4.411  18.101  0.00  0.00    +0.000 A 
ATOM     29  C   UNL     1       1.368   3.414  18.913  0.00  0.00    +0.000 A 
ATOM     30  C   UNL     1       1.205   3.674  20.251  0.00  0.00    +0.000 A 
ATOM     31  C   UNL     1       1.525   4.942  20.755  0.00  0.00    +0.000 A 
ATOM     32  C   UNL     1       2.002   6.017  19.977  0.00  0.00    +0.000 A 
BRANCH  27  34
ATOM     33  C   UNL     1       4.331   6.314  17.485  0.00  0.00    +0.000 C 
ATOM     34  O   UNL     1       2.932   6.578  17.764  0.00  0.00    +0.000 OA
ENDBRANCH  27  34
ENDBRANCH  23  32
ENDBRANCH   1  24
TORSDOF 5
ENDMDL
