MODEL 1
REMARK VINA RESULT:      -7.3      0.000      0.000
REMARK  Name = 
REMARK  2 active torsions:
REMARK  status: ('A' for Active; 'I' for Inactive)
REMARK    1  A    between atoms: C_6  and  C_7
REMARK    2  A    between atoms: C_9  and  C_10
REMARK                            x       y       z     vdW  Elec       q    Type
REMARK                         _______ _______ _______ _____ _____    ______ ____
ROOT
ATOM      1  C   UNL     1       2.746   6.947  18.880  0.00  0.00    +0.000 A 
ATOM      2  N   UNL     1       3.590   6.882  17.867  0.00  0.00    +0.000 NA
ATOM      3  C   UNL     1       4.177   5.611  17.833  0.00  0.00    +0.000 A 
ATOM      4  N   UNL     1       3.795   4.715  18.752  0.00  0.00    +0.000 NA
ATOM      5  S   UNL     1       2.664   5.451  19.722  0.00  0.00    +0.000 S 
ENDROOT
BRANCH   1  11
ATOM      6 BR   UNL     1       0.044   9.465  22.706  0.00  0.00    +0.000 Br
ATOM      7  C   UNL     1       0.665   9.320  20.927  0.00  0.00    +0.000 A 
ATOM      8  C   UNL     1       0.342  10.309  20.002  0.00  0.00    +0.000 A 
ATOM      9  C   UNL     1       0.800  10.202  18.691  0.00  0.00    +0.000 A 
ATOM     10  C   UNL     1       1.587   9.109  18.311  0.00  0.00    +0.000 A 
ATOM     11  C   UNL     1       1.927   8.109  19.238  0.00  0.00    +0.000 A 
ATOM     12  C   UNL     1       1.444   8.225  20.552  0.00  0.00    +0.000 A 
ENDBRANCH   1  11
BRANCH   3  13
ATOM     13  C   UNL     1       5.172   5.293  16.814  0.00  0.00    +0.000 A 
ATOM     14  C   UNL     1       5.008   4.209  15.945  0.00  0.00    +0.000 A 
ATOM     15  C   UNL     1       5.981   3.933  14.984  0.00  0.00    +0.000 A 
ATOM     16  C   UNL     1       7.094   4.755  14.921  0.00  0.00    +0.000 A 
ATOM     17  N   UNL     1       7.291   5.813  15.735  0.00  0.00    +0.000 NA
ATOM     18  C   UNL     1       6.326   6.056  16.660  0.00  0.00    +0.000 A 
ENDBRANCH   3  13
TORSDOF 2
ENDMDL
MODEL 2
REMARK VINA RESULT:      -7.3      2.953      3.951
REMARK  Name = 
REMARK  2 active torsions:
REMARK  status: ('A' for Active; 'I' for Inactive)
REMARK    1  A    between atoms: C_6  and  C_7
REMARK    2  A    between atoms: C_9  and  C_10
REMARK                            x       y       z     vdW  Elec       q    Type
REMARK                         _______ _______ _______ _____ _____    ______ ____
ROOT
ATOM      1  C   UNL     1       5.237   5.043  17.857  0.00  0.00    +0.000 A 
ATOM      2  N   UNL     1       5.182   4.912  16.545  0.00  0.00    +0.000 NA
ATOM      3  C   UNL     1       6.477   4.742  16.040  0.00  0.00    +0.000 A 
ATOM      4  N   UNL     1       7.494   4.714  16.911  0.00  0.00    +0.000 NA
ATOM      5  S   UNL     1       6.851   4.910  18.431  0.00  0.00    +0.000 S 
ENDROOT
BRANCH   1  11
ATOM      6 BR   UNL     1       2.051   2.842  21.503  0.00  0.00    +0.000 Br
ATOM      7  C   UNL     1       2.582   4.294  20.415  0.00  0.00    +0.000 A 
ATOM      8  C   UNL     1       1.884   5.496  20.483  0.00  0.00    +0.000 A 
ATOM      9  C   UNL     1       2.275   6.566  19.682  0.00  0.00    +0.000 A 
ATOM     10  C   UNL     1       3.369   6.431  18.820  0.00  0.00    +0.000 A 
ATOM     11  C   UNL     1       4.087   5.225  18.749  0.00  0.00    +0.000 A 
ATOM     12  C   UNL     1       3.670   4.152  19.553  0.00  0.00    +0.000 A 
ENDBRANCH   1  11
BRANCH   3  13
ATOM     13  C   UNL     1       6.688   4.599  14.604  0.00  0.00    +0.000 A 
ATOM     14  C   UNL     1       5.958   3.678  13.845  0.00  0.00    +0.000 A 
ATOM     15  C   UNL     1       6.188   3.567  12.474  0.00  0.00    +0.000 A 
ATOM     16  C   UNL     1       7.147   4.385  11.900  0.00  0.00    +0.000 A 
ATOM     17  N   UNL     1       7.872   5.289  12.592  0.00  0.00    +0.000 NA
ATOM     18  C   UNL     1       7.624   5.374  13.925  0.00  0.00    +0.000 A 
ENDBRANCH   3  13
TORSDOF 2
ENDMDL
MODEL 3
REMARK VINA RESULT:      -7.2      4.709      7.650
REMARK  Name = 
REMARK  2 active torsions:
REMARK  status: ('A' for Active; 'I' for Inactive)
REMARK    1  A    between atoms: C_6  and  C_7
REMARK    2  A    between atoms: C_9  and  C_10
REMARK                            x       y       z     vdW  Elec       q    Type
REMARK                         _______ _______ _______ _____ _____    ______ ____
ROOT
ATOM      1  C   UNL     1       6.157   4.394  16.335  0.00  0.00    +0.000 A 
ATOM      2  N   UNL     1       4.977   4.139  16.867  0.00  0.00    +0.000 NA
ATOM      3  C   UNL     1       5.069   4.214  18.262  0.00  0.00    +0.000 A 
ATOM      4  N   UNL     1       6.253   4.539  18.798  0.00  0.00    +0.000 NA
ATOM      5  S   UNL     1       7.321   4.760  17.545  0.00  0.00    +0.000 S 
ENDROOT
BRANCH   1  11
ATOM      6 BR   UNL     1       4.726   2.839  11.454  0.00  0.00    +0.000 Br
ATOM      7  C   UNL     1       5.883   3.752  12.638  0.00  0.00    +0.000 A 
ATOM      8  C   UNL     1       6.986   4.433  12.133  0.00  0.00    +0.000 A 
ATOM      9  C   UNL     1       7.838   5.107  13.006  0.00  0.00    +0.000 A 
ATOM     10  C   UNL     1       7.579   5.102  14.381  0.00  0.00    +0.000 A 
ATOM     11  C   UNL     1       6.462   4.425  14.901  0.00  0.00    +0.000 A 
ATOM     12  C   UNL     1       5.622   3.739  14.009  0.00  0.00    +0.000 A 
ENDBRANCH   1  11
BRANCH   3  13
ATOM     13  C   UNL     1       3.896   3.947  19.087  0.00  0.00    +0.000 A 
ATOM     14  C   UNL     1       2.802   4.817  19.107  0.00  0.00    +0.000 A 
ATOM     15  C   UNL     1       1.698   4.531  19.911  0.00  0.00    +0.000 A 
ATOM     16  C   UNL     1       1.723   3.375  20.674  0.00  0.00    +0.000 A 
ATOM     17  N   UNL     1       2.755   2.505  20.682  0.00  0.00    +0.000 NA
ATOM     18  C   UNL     1       3.814   2.811  19.890  0.00  0.00    +0.000 A 
ENDBRANCH   3  13
TORSDOF 2
ENDMDL
MODEL 4
REMARK VINA RESULT:      -7.2      4.748      7.607
REMARK  Name = 
REMARK  2 active torsions:
REMARK  status: ('A' for Active; 'I' for Inactive)
REMARK    1  A    between atoms: C_6  and  C_7
REMARK    2  A    between atoms: C_9  and  C_10
REMARK                            x       y       z     vdW  Elec       q    Type
REMARK                         _______ _______ _______ _____ _____    ______ ____
ROOT
ATOM      1  C   UNL     1       6.145   4.374  16.329  0.00  0.00    +0.000 A 
ATOM      2  N   UNL     1       4.951   4.176  16.854  0.00  0.00    +0.000 NA
ATOM      3  C   UNL     1       5.041   4.232  18.250  0.00  0.00    +0.000 A 
ATOM      4  N   UNL     1       6.238   4.487  18.794  0.00  0.00    +0.000 NA
ATOM      5  S   UNL     1       7.322   4.665  17.547  0.00  0.00    +0.000 S 
ENDROOT
BRANCH   1  11
ATOM      6 BR   UNL     1       4.745   2.802  11.445  0.00  0.00    +0.000 Br
ATOM      7  C   UNL     1       5.892   3.723  12.632  0.00  0.00    +0.000 A 
ATOM      8  C   UNL     1       6.995   4.409  12.131  0.00  0.00    +0.000 A 
ATOM      9  C   UNL     1       7.839   5.088  13.007  0.00  0.00    +0.000 A 
ATOM     10  C   UNL     1       7.573   5.085  14.380  0.00  0.00    +0.000 A 
ATOM     11  C   UNL     1       6.457   4.403  14.897  0.00  0.00    +0.000 A 
ATOM     12  C   UNL     1       5.624   3.712  14.002  0.00  0.00    +0.000 A 
ENDBRANCH   1  11
BRANCH   3  13
ATOM     13  C   UNL     1       3.853   4.018  19.069  0.00  0.00    +0.000 A 
ATOM     14  C   UNL     1       3.202   2.780  19.104  0.00  0.00    +0.000 A 
ATOM     15  C   UNL     1       2.066   2.613  19.896  0.00  0.00    +0.000 A 
ATOM     16  C   UNL     1       1.614   3.694  20.633  0.00  0.00    +0.000 A 
ATOM     17  N   UNL     1       2.212   4.904  20.633  0.00  0.00    +0.000 NA
ATOM     18  C   UNL     1       3.315   5.036  19.852  0.00  0.00    +0.000 A 
ENDBRANCH   3  13
TORSDOF 2
ENDMDL
MODEL 5
REMARK VINA RESULT:      -7.1      5.044      7.713
REMARK  Name = 
REMARK  2 active torsions:
REMARK  status: ('A' for Active; 'I' for Inactive)
REMARK    1  A    between atoms: C_6  and  C_7
REMARK    2  A    between atoms: C_9  and  C_10
REMARK                            x       y       z     vdW  Elec       q    Type
REMARK                         _______ _______ _______ _____ _____    ______ ____
ROOT
ATOM      1  C   UNL     1       5.802   4.267  16.364  0.00  0.00    +0.000 A 
ATOM      2  N   UNL     1       4.572   3.980  16.747  0.00  0.00    +0.000 NA
ATOM      3  C   UNL     1       4.496   4.032  18.144  0.00  0.00    +0.000 A 
ATOM      4  N   UNL     1       5.600   4.370  18.823  0.00  0.00    +0.000 NA
ATOM      5  S   UNL     1       6.806   4.635  17.710  0.00  0.00    +0.000 S 
ENDROOT
BRANCH   1  11
ATOM      6 BR   UNL     1       5.117   2.606  11.359  0.00  0.00    +0.000 Br
ATOM      7  C   UNL     1       6.036   3.615  12.666  0.00  0.00    +0.000 A 
ATOM      8  C   UNL     1       7.129   4.393  12.294  0.00  0.00    +0.000 A 
ATOM      9  C   UNL     1       7.805   5.136  13.258  0.00  0.00    +0.000 A 
ATOM     10  C   UNL     1       7.382   5.105  14.591  0.00  0.00    +0.000 A 
ATOM     11  C   UNL     1       6.275   4.330  14.978  0.00  0.00    +0.000 A 
ATOM     12  C   UNL     1       5.613   3.575  13.996  0.00  0.00    +0.000 A 
ENDBRANCH   1  11
BRANCH   3  13
ATOM     13  C   UNL     1       3.240   3.727  18.819  0.00  0.00    +0.000 A 
ATOM     14  C   UNL     1       3.014   4.100  20.148  0.00  0.00    +0.000 A 
ATOM     15  C   UNL     1       1.801   3.789  20.763  0.00  0.00    +0.000 A 
ATOM     16  C   UNL     1       0.845   3.110  20.025  0.00  0.00    +0.000 A 
ATOM     17  N   UNL     1       1.018   2.734  18.741  0.00  0.00    +0.000 NA
ATOM     18  C   UNL     1       2.209   3.051  18.170  0.00  0.00    +0.000 A 
ENDBRANCH   3  13
TORSDOF 2
ENDMDL
MODEL 6
REMARK VINA RESULT:      -7.1      2.959      4.117
REMARK  Name = 
REMARK  2 active torsions:
REMARK  status: ('A' for Active; 'I' for Inactive)
REMARK    1  A    between atoms: C_6  and  C_7
REMARK    2  A    between atoms: C_9  and  C_10
REMARK                            x       y       z     vdW  Elec       q    Type
REMARK                         _______ _______ _______ _____ _____    ______ ____
ROOT
ATOM      1  C   UNL     1       5.230   5.127  17.836  0.00  0.00    +0.000 A 
ATOM      2  N   UNL     1       5.166   4.899  16.537  0.00  0.00    +0.000 NA
ATOM      3  C   UNL     1       6.463   4.816  16.016  0.00  0.00    +0.000 A 
ATOM      4  N   UNL     1       7.492   4.944  16.863  0.00  0.00    +0.000 NA
ATOM      5  S   UNL     1       6.859   5.186  18.380  0.00  0.00    +0.000 S 
ENDROOT
BRANCH   1  11
ATOM      6 BR   UNL     1       2.144   2.787  21.480  0.00  0.00    +0.000 Br
ATOM      7  C   UNL     1       2.621   4.267  20.406  0.00  0.00    +0.000 A 
ATOM      8  C   UNL     1       1.888   5.447  20.494  0.00  0.00    +0.000 A 
ATOM      9  C   UNL     1       2.240   6.538  19.703  0.00  0.00    +0.000 A 
ATOM     10  C   UNL     1       3.330   6.447  18.830  0.00  0.00    +0.000 A 
ATOM     11  C   UNL     1       4.083   5.264  18.739  0.00  0.00    +0.000 A 
ATOM     12  C   UNL     1       3.705   4.169  19.534  0.00  0.00    +0.000 A 
ENDBRANCH   1  11
BRANCH   3  13
ATOM     13  C   UNL     1       6.663   4.592  14.588  0.00  0.00    +0.000 A 
ATOM     14  C   UNL     1       7.614   5.316  13.860  0.00  0.00    +0.000 A 
ATOM     15  C   UNL     1       7.776   5.077  12.495  0.00  0.00    +0.000 A 
ATOM     16  C   UNL     1       6.978   4.117  11.897  0.00  0.00    +0.000 A 
ATOM     17  N   UNL     1       6.051   3.393  12.560  0.00  0.00    +0.000 NA
ATOM     18  C   UNL     1       5.917   3.648  13.887  0.00  0.00    +0.000 A 
ENDBRANCH   3  13
TORSDOF 2
ENDMDL
MODEL 7
REMARK VINA RESULT:      -7.0      4.184      4.548
REMARK  Name = 
REMARK  2 active torsions:
REMARK  status: ('A' for Active; 'I' for Inactive)
REMARK    1  A    between atoms: C_6  and  C_7
REMARK    2  A    between atoms: C_9  and  C_10
REMARK                            x       y       z     vdW  Elec       q    Type
REMARK                         _______ _______ _______ _____ _____    ______ ____
ROOT
ATOM      1  C   UNL     1       4.512   4.157  17.461  0.00  0.00    +0.000 A 
ATOM      2  N   UNL     1       4.721   4.089  16.159  0.00  0.00    +0.000 NA
ATOM      3  C   UNL     1       6.044   4.454  15.882  0.00  0.00    +0.000 A 
ATOM      4  N   UNL     1       6.842   4.765  16.912  0.00  0.00    +0.000 NA
ATOM      5  S   UNL     1       5.940   4.616  18.300  0.00  0.00    +0.000 S 
ENDROOT
BRANCH   1  11
ATOM      6 BR   UNL     1       2.173   2.732  22.019  0.00  0.00    +0.000 Br
ATOM      7  C   UNL     1       2.107   3.181  20.184  0.00  0.00    +0.000 A 
ATOM      8  C   UNL     1       0.882   3.205  19.524  0.00  0.00    +0.000 A 
ATOM      9  C   UNL     1       0.834   3.536  18.172  0.00  0.00    +0.000 A 
ATOM     10  C   UNL     1       2.013   3.850  17.486  0.00  0.00    +0.000 A 
ATOM     11  C   UNL     1       3.255   3.837  18.144  0.00  0.00    +0.000 A 
ATOM     12  C   UNL     1       3.287   3.487  19.504  0.00  0.00    +0.000 A 
ENDBRANCH   1  11
BRANCH   3  13
ATOM     13  C   UNL     1       6.520   4.483  14.503  0.00  0.00    +0.000 A 
ATOM     14  C   UNL     1       6.004   3.618  13.532  0.00  0.00    +0.000 A 
ATOM     15  C   UNL     1       6.485   3.672  12.224  0.00  0.00    +0.000 A 
ATOM     16  C   UNL     1       7.472   4.596  11.924  0.00  0.00    +0.000 A 
ATOM     17  N   UNL     1       7.995   5.452  12.827  0.00  0.00    +0.000 NA
ATOM     18  C   UNL     1       7.507   5.375  14.092  0.00  0.00    +0.000 A 
ENDBRANCH   3  13
TORSDOF 2
ENDMDL
MODEL 8
REMARK VINA RESULT:      -6.9      3.283      4.226
REMARK  Name = 
REMARK  2 active torsions:
REMARK  status: ('A' for Active; 'I' for Inactive)
REMARK    1  A    between atoms: C_6  and  C_7
REMARK    2  A    between atoms: C_9  and  C_10
REMARK                            x       y       z     vdW  Elec       q    Type
REMARK                         _______ _______ _______ _____ _____    ______ ____
ROOT
ATOM      1  C   UNL     1       4.685   5.384  17.402  0.00  0.00    +0.000 A 
ATOM      2  N   UNL     1       4.803   4.797  16.225  0.00  0.00    +0.000 NA
ATOM      3  C   UNL     1       5.983   5.228  15.607  0.00  0.00    +0.000 A 
ATOM      4  N   UNL     1       6.766   6.086  16.273  0.00  0.00    +0.000 NA
ATOM      5  S   UNL     1       6.032   6.399  17.731  0.00  0.00    +0.000 S 
ENDROOT
BRANCH   1  11
ATOM      6 BR   UNL     1       0.731   2.212  19.012  0.00  0.00    +0.000 Br
ATOM      7  C   UNL     1       1.759   3.792  19.151  0.00  0.00    +0.000 A 
ATOM      8  C   UNL     1       1.465   4.720  20.146  0.00  0.00    +0.000 A 
ATOM      9  C   UNL     1       2.223   5.884  20.249  0.00  0.00    +0.000 A 
ATOM     10  C   UNL     1       3.278   6.113  19.359  0.00  0.00    +0.000 A 
ATOM     11  C   UNL     1       3.590   5.180  18.355  0.00  0.00    +0.000 A 
ATOM     12  C   UNL     1       2.806   4.018  18.257  0.00  0.00    +0.000 A 
ENDBRANCH   1  11
BRANCH   3  13
ATOM     13  C   UNL     1       6.331   4.740  14.277  0.00  0.00    +0.000 A 
ATOM     14  C   UNL     1       5.562   3.766  13.631  0.00  0.00    +0.000 A 
ATOM     15  C   UNL     1       5.927   3.321  12.360  0.00  0.00    +0.000 A 
ATOM     16  C   UNL     1       7.056   3.867  11.771  0.00  0.00    +0.000 A 
ATOM     17  N   UNL     1       7.824   4.809  12.356  0.00  0.00    +0.000 NA
ATOM     18  C   UNL     1       7.443   5.223  13.592  0.00  0.00    +0.000 A 
ENDBRANCH   3  13
TORSDOF 2
ENDMDL
MODEL 9
REMARK VINA RESULT:      -6.8      2.756      3.911
REMARK  Name = 
REMARK  2 active torsions:
REMARK  status: ('A' for Active; 'I' for Inactive)
REMARK    1  A    between atoms: C_6  and  C_7
REMARK    2  A    between atoms: C_9  and  C_10
REMARK                            x       y       z     vdW  Elec       q    Type
REMARK                         _______ _______ _______ _____ _____    ______ ____
ROOT
ATOM      1  C   UNL     1       4.994   4.793  17.770  0.00  0.00    +0.000 A 
ATOM      2  N   UNL     1       4.973   4.565  16.470  0.00  0.00    +0.000 NA
ATOM      3  C   UNL     1       6.274   4.657  15.961  0.00  0.00    +0.000 A 
ATOM      4  N   UNL     1       7.270   4.916  16.818  0.00  0.00    +0.000 NA
ATOM      5  S   UNL     1       6.596   5.065  18.330  0.00  0.00    +0.000 S 
ENDROOT
BRANCH   1  11
ATOM      6 BR   UNL     1       1.592   7.644  20.700  0.00  0.00    +0.000 Br
ATOM      7  C   UNL     1       2.239   5.999  20.031  0.00  0.00    +0.000 A 
ATOM      8  C   UNL     1       1.605   4.812  20.388  0.00  0.00    +0.000 A 
ATOM      9  C   UNL     1       2.082   3.600  19.894  0.00  0.00    +0.000 A 
ATOM     10  C   UNL     1       3.188   3.580  19.038  0.00  0.00    +0.000 A 
ATOM     11  C   UNL     1       3.832   4.772  18.662  0.00  0.00    +0.000 A 
ATOM     12  C   UNL     1       3.346   5.984  19.181  0.00  0.00    +0.000 A 
ENDBRANCH   1  11
BRANCH   3  13
ATOM     13  C   UNL     1       6.515   4.469  14.534  0.00  0.00    +0.000 A 
ATOM     14  C   UNL     1       5.757   3.570  13.777  0.00  0.00    +0.000 A 
ATOM     15  C   UNL     1       6.018   3.414  12.415  0.00  0.00    +0.000 A 
ATOM     16  C   UNL     1       7.033   4.166  11.850  0.00  0.00    +0.000 A 
ATOM     17  N   UNL     1       7.786   5.047  12.541  0.00  0.00    +0.000 NA
ATOM     18  C   UNL     1       7.509   5.177  13.864  0.00  0.00    +0.000 A 
ENDBRANCH   3  13
TORSDOF 2
ENDMDL
