MODEL 1
REMARK VINA RESULT:      -7.2      0.000      0.000
REMARK  Name = 
REMARK  3 active torsions:
REMARK  status: ('A' for Active; 'I' for Inactive)
REMARK    1  A    between atoms: C_4  and  C_5
REMARK    2  A    between atoms: C_5  and  N_6
REMARK    3  A    between atoms: C_10  and  C_12
REMARK                            x       y       z     vdW  Elec       q    Type
REMARK                         _______ _______ _______ _____ _____    ______ ____
ROOT
ATOM      1  N   UNL     1       4.871   4.612  19.045  0.00  0.00    +0.000 NA
ATOM      2  C   UNL     1       4.544   3.626  17.985  0.00  0.00    +0.000 C 
ATOM      3  C   UNL     1       4.482   4.239  16.569  0.00  0.00    +0.000 C 
ATOM      4  N   UNL     1       5.641   5.092  16.309  0.00  0.00    +0.000 N 
ATOM      5  C   UNL     1       6.503   4.979  15.226  0.00  0.00    +0.000 C 
ATOM      6  O   UNL     1       7.428   5.772  15.119  0.00  0.00    +0.000 OA
ATOM      7  C   UNL     1       5.854   6.121  17.320  0.00  0.00    +0.000 C 
ATOM      8  C   UNL     1       6.051   5.426  18.673  0.00  0.00    +0.000 C 
ENDROOT
BRANCH   5   9
ATOM      9  C   UNL     1       6.394   3.939  14.124  0.00  0.00    +0.000 C 
ATOM     10  C   UNL     1       7.286   4.152  12.900  0.00  0.00    +0.000 C 
ATOM     11  C   UNL     1       6.575   3.272  11.901  0.00  0.00    +0.000 C 
ATOM     12  C   UNL     1       5.116   3.594  12.196  0.00  0.00    +0.000 C 
ATOM     13  N   UNL     1       5.012   3.790  13.646  0.00  0.00    +0.000 NA
ATOM     14  H   UNL     1       4.600   2.932  14.090  0.00  0.00    +0.000 HD
ENDBRANCH   5   9
BRANCH   1  15
ATOM     15  C   UNL     1       3.749   5.449  19.531  0.00  0.00    +0.000 C 
BRANCH  15  19
ATOM     16  N   UNL     1       1.268   2.283  22.327  0.00  0.00    +0.000 N 
ATOM     17  C   UNL     1       1.558   3.239  21.329  0.00  0.00    +0.000 A 
ATOM     18  N   UNL     1       2.746   3.875  21.230  0.00  0.00    +0.000 NA
ATOM     19  C   UNL     1       2.623   4.640  20.123  0.00  0.00    +0.000 A 
ATOM     20  C   UNL     1       1.363   4.452  19.578  0.00  0.00    +0.000 A 
ATOM     21  N   UNL     1       0.697   3.576  20.350  0.00  0.00    +0.000 N 
ATOM     22  H   UNL     1       1.985   2.022  23.019  0.00  0.00    +0.000 HD
ATOM     23  H   UNL     1       0.359   1.799  22.338  0.00  0.00    +0.000 HD
ATOM     24  H   UNL     1      -0.273   3.213  20.204  0.00  0.00    +0.000 HD
ENDBRANCH  15  19
ENDBRANCH   1  15
TORSDOF 3
ENDMDL
MODEL 2
REMARK VINA RESULT:      -7.1      2.246      7.465
REMARK  Name = 
REMARK  3 active torsions:
REMARK  status: ('A' for Active; 'I' for Inactive)
REMARK    1  A    between atoms: C_4  and  C_5
REMARK    2  A    between atoms: C_5  and  N_6
REMARK    3  A    between atoms: C_10  and  C_12
REMARK                            x       y       z     vdW  Elec       q    Type
REMARK                         _______ _______ _______ _____ _____    ______ ____
ROOT
ATOM      1  N   UNL     1       4.800   4.531  16.293  0.00  0.00    +0.000 NA
ATOM      2  C   UNL     1       4.039   3.514  17.063  0.00  0.00    +0.000 C 
ATOM      3  C   UNL     1       4.064   3.750  18.589  0.00  0.00    +0.000 C 
ATOM      4  N   UNL     1       3.772   5.145  18.916  0.00  0.00    +0.000 N 
ATOM      5  C   UNL     1       2.786   5.583  19.788  0.00  0.00    +0.000 C 
ATOM      6  O   UNL     1       2.658   6.783  19.986  0.00  0.00    +0.000 OA
ATOM      7  C   UNL     1       4.624   6.103  18.221  0.00  0.00    +0.000 C 
ATOM      8  C   UNL     1       4.433   5.903  16.712  0.00  0.00    +0.000 C 
ENDROOT
BRANCH   5   9
ATOM      9  C   UNL     1       1.828   4.683  20.552  0.00  0.00    +0.000 C 
ATOM     10  C   UNL     1       2.460   3.717  21.555  0.00  0.00    +0.000 C 
ATOM     11  C   UNL     1       1.329   2.730  21.717  0.00  0.00    +0.000 C 
ATOM     12  C   UNL     1       0.853   2.575  20.279  0.00  0.00    +0.000 C 
ATOM     13  N   UNL     1       0.981   3.892  19.647  0.00  0.00    +0.000 NA
ATOM     14  H   UNL     1       0.038   4.350  19.592  0.00  0.00    +0.000 HD
ENDBRANCH   5   9
BRANCH   1  15
ATOM     15  C   UNL     1       6.267   4.342  16.229  0.00  0.00    +0.000 C 
BRANCH  15  19
ATOM     16  N   UNL     1       8.688   6.223  12.409  0.00  0.00    +0.000 N 
ATOM     17  C   UNL     1       7.864   5.374  13.179  0.00  0.00    +0.000 A 
ATOM     18  N   UNL     1       7.743   5.470  14.521  0.00  0.00    +0.000 NA
ATOM     19  C   UNL     1       6.827   4.531  14.842  0.00  0.00    +0.000 A 
ATOM     20  C   UNL     1       6.415   3.884  13.688  0.00  0.00    +0.000 A 
ATOM     21  N   UNL     1       7.081   4.416  12.648  0.00  0.00    +0.000 N 
ATOM     22  H   UNL     1       9.224   6.977  12.862  0.00  0.00    +0.000 HD
ATOM     23  H   UNL     1       8.717   6.132  11.383  0.00  0.00    +0.000 HD
ATOM     24  H   UNL     1       6.988   4.159  11.639  0.00  0.00    +0.000 HD
ENDBRANCH  15  19
ENDBRANCH   1  15
TORSDOF 3
ENDMDL
MODEL 3
REMARK VINA RESULT:      -7.0      2.892      6.944
REMARK  Name = 
REMARK  3 active torsions:
REMARK  status: ('A' for Active; 'I' for Inactive)
REMARK    1  A    between atoms: C_4  and  C_5
REMARK    2  A    between atoms: C_5  and  N_6
REMARK    3  A    between atoms: C_10  and  C_12
REMARK                            x       y       z     vdW  Elec       q    Type
REMARK                         _______ _______ _______ _____ _____    ______ ____
ROOT
ATOM      1  N   UNL     1       6.304   4.690  17.224  0.00  0.00    +0.000 NA
ATOM      2  C   UNL     1       5.765   4.581  18.602  0.00  0.00    +0.000 C 
ATOM      3  C   UNL     1       4.222   4.619  18.667  0.00  0.00    +0.000 C 
ATOM      4  N   UNL     1       3.628   3.721  17.678  0.00  0.00    +0.000 N 
ATOM      5  C   UNL     1       2.700   2.723  17.944  0.00  0.00    +0.000 C 
ATOM      6  O   UNL     1       2.268   2.051  17.019  0.00  0.00    +0.000 OA
ATOM      7  C   UNL     1       4.104   3.944  16.318  0.00  0.00    +0.000 C 
ATOM      8  C   UNL     1       5.625   3.746  16.307  0.00  0.00    +0.000 C 
ENDROOT
BRANCH   5   9
ATOM      9  C   UNL     1       2.147   2.385  19.319  0.00  0.00    +0.000 C 
ATOM     10  C   UNL     1       1.088   3.338  19.877  0.00  0.00    +0.000 C 
ATOM     11  C   UNL     1       1.160   2.981  21.342  0.00  0.00    +0.000 C 
ATOM     12  C   UNL     1       2.663   2.857  21.551  0.00  0.00    +0.000 C 
ATOM     13  N   UNL     1       3.213   2.268  20.325  0.00  0.00    +0.000 NA
ATOM     14  H   UNL     1       3.411   1.249  20.480  0.00  0.00    +0.000 HD
ENDBRANCH   5   9
BRANCH   1  15
ATOM     15  C   UNL     1       6.383   6.056  16.657  0.00  0.00    +0.000 C 
BRANCH  15  19
ATOM     16  N   UNL     1       8.741  10.065  18.194  0.00  0.00    +0.000 N 
ATOM     17  C   UNL     1       8.249   8.742  18.147  0.00  0.00    +0.000 A 
ATOM     18  N   UNL     1       7.349   8.315  17.234  0.00  0.00    +0.000 NA
ATOM     19  C   UNL     1       7.203   6.999  17.500  0.00  0.00    +0.000 A 
ATOM     20  C   UNL     1       8.015   6.658  18.571  0.00  0.00    +0.000 A 
ATOM     21  N   UNL     1       8.662   7.765  18.976  0.00  0.00    +0.000 N 
ATOM     22  H   UNL     1       8.432  10.759  17.499  0.00  0.00    +0.000 HD
ATOM     23  H   UNL     1       9.455  10.332  18.888  0.00  0.00    +0.000 HD
ATOM     24  H   UNL     1       9.358   7.843  19.752  0.00  0.00    +0.000 HD
ENDBRANCH  15  19
ENDBRANCH   1  15
TORSDOF 3
ENDMDL
MODEL 4
REMARK VINA RESULT:      -6.9      0.893      1.102
REMARK  Name = 
REMARK  3 active torsions:
REMARK  status: ('A' for Active; 'I' for Inactive)
REMARK    1  A    between atoms: C_4  and  C_5
REMARK    2  A    between atoms: C_5  and  N_6
REMARK    3  A    between atoms: C_10  and  C_12
REMARK                            x       y       z     vdW  Elec       q    Type
REMARK                         _______ _______ _______ _____ _____    ______ ____
ROOT
ATOM      1  N   UNL     1       4.598   4.142  18.937  0.00  0.00    +0.000 NA
ATOM      2  C   UNL     1       4.116   3.784  17.580  0.00  0.00    +0.000 C 
ATOM      3  C   UNL     1       4.347   4.894  16.530  0.00  0.00    +0.000 C 
ATOM      4  N   UNL     1       5.710   5.418  16.603  0.00  0.00    +0.000 N 
ATOM      5  C   UNL     1       6.604   5.502  15.545  0.00  0.00    +0.000 C 
ATOM      6  O   UNL     1       7.713   5.979  15.740  0.00  0.00    +0.000 OA
ATOM      7  C   UNL     1       6.098   5.864  17.936  0.00  0.00    +0.000 C 
ATOM      8  C   UNL     1       5.981   4.670  18.892  0.00  0.00    +0.000 C 
ENDROOT
BRANCH   5   9
ATOM      9  C   UNL     1       6.320   5.051  14.121  0.00  0.00    +0.000 C 
ATOM     10  C   UNL     1       6.034   3.562  13.925  0.00  0.00    +0.000 C 
ATOM     11  C   UNL     1       6.288   3.438  12.442  0.00  0.00    +0.000 C 
ATOM     12  C   UNL     1       7.540   4.289  12.277  0.00  0.00    +0.000 C 
ATOM     13  N   UNL     1       7.409   5.419  13.204  0.00  0.00    +0.000 NA
ATOM     14  H   UNL     1       7.119   6.278  12.674  0.00  0.00    +0.000 HD
ENDBRANCH   5   9
BRANCH   1  15
ATOM     15  C   UNL     1       3.702   4.999  19.746  0.00  0.00    +0.000 C 
BRANCH  15  19
ATOM     16  N   UNL     1       0.901   2.151  22.583  0.00  0.00    +0.000 N 
ATOM     17  C   UNL     1       1.307   2.992  21.523  0.00  0.00    +0.000 A 
ATOM     18  N   UNL     1       2.503   3.619  21.487  0.00  0.00    +0.000 NA
ATOM     19  C   UNL     1       2.511   4.255  20.295  0.00  0.00    +0.000 A 
ATOM     20  C   UNL     1       1.318   4.001  19.637  0.00  0.00    +0.000 A 
ATOM     21  N   UNL     1       0.564   3.213  20.423  0.00  0.00    +0.000 N 
ATOM     22  H   UNL     1       1.535   1.973  23.375  0.00  0.00    +0.000 HD
ATOM     23  H   UNL     1      -0.007   1.666  22.545  0.00  0.00    +0.000 HD
ATOM     24  H   UNL     1      -0.386   2.831  20.211  0.00  0.00    +0.000 HD
ENDBRANCH  15  19
ENDBRANCH   1  15
TORSDOF 3
ENDMDL
MODEL 5
REMARK VINA RESULT:      -6.5      1.869      7.229
REMARK  Name = 
REMARK  3 active torsions:
REMARK  status: ('A' for Active; 'I' for Inactive)
REMARK    1  A    between atoms: C_4  and  C_5
REMARK    2  A    between atoms: C_5  and  N_6
REMARK    3  A    between atoms: C_10  and  C_12
REMARK                            x       y       z     vdW  Elec       q    Type
REMARK                         _______ _______ _______ _____ _____    ______ ____
ROOT
ATOM      1  N   UNL     1       6.196   5.886  15.675  0.00  0.00    +0.000 NA
ATOM      2  C   UNL     1       4.875   5.212  15.598  0.00  0.00    +0.000 C 
ATOM      3  C   UNL     1       4.660   4.147  16.696  0.00  0.00    +0.000 C 
ATOM      4  N   UNL     1       5.037   4.660  18.013  0.00  0.00    +0.000 N 
ATOM      5  C   UNL     1       4.230   4.663  19.142  0.00  0.00    +0.000 C 
ATOM      6  O   UNL     1       4.676   5.109  20.190  0.00  0.00    +0.000 OA
ATOM      7  C   UNL     1       6.387   5.208  18.067  0.00  0.00    +0.000 C 
ATOM      8  C   UNL     1       6.477   6.354  17.051  0.00  0.00    +0.000 C 
ENDROOT
BRANCH   5   9
ATOM      9  C   UNL     1       2.804   4.139  19.202  0.00  0.00    +0.000 C 
ATOM     10  C   UNL     1       1.865   4.842  20.182  0.00  0.00    +0.000 C 
ATOM     11  C   UNL     1       0.785   3.794  20.308  0.00  0.00    +0.000 C 
ATOM     12  C   UNL     1       1.610   2.517  20.390  0.00  0.00    +0.000 C 
ATOM     13  N   UNL     1       2.762   2.700  19.500  0.00  0.00    +0.000 NA
ATOM     14  H   UNL     1       2.600   2.182  18.602  0.00  0.00    +0.000 HD
ENDBRANCH   5   9
BRANCH   1  15
ATOM     15  C   UNL     1       7.342   5.151  15.091  0.00  0.00    +0.000 C 
BRANCH  15  19
ATOM     16  N   UNL     1       5.727   2.102  11.613  0.00  0.00    +0.000 N 
ATOM     17  C   UNL     1       6.350   3.207  12.236  0.00  0.00    +0.000 A 
ATOM     18  N   UNL     1       6.253   3.468  13.558  0.00  0.00    +0.000 NA
ATOM     19  C   UNL     1       7.034   4.554  13.741  0.00  0.00    +0.000 A 
ATOM     20  C   UNL     1       7.585   4.930  12.526  0.00  0.00    +0.000 A 
ATOM     21  N   UNL     1       7.139   4.080  11.583  0.00  0.00    +0.000 N 
ATOM     22  H   UNL     1       5.179   1.433  12.172  0.00  0.00    +0.000 HD
ATOM     23  H   UNL     1       5.862   1.926  10.607  0.00  0.00    +0.000 HD
ATOM     24  H   UNL     1       7.379   4.082  10.566  0.00  0.00    +0.000 HD
ENDBRANCH  15  19
ENDBRANCH   1  15
TORSDOF 3
ENDMDL
MODEL 6
REMARK VINA RESULT:      -6.5      4.332      7.513
REMARK  Name = 
REMARK  3 active torsions:
REMARK  status: ('A' for Active; 'I' for Inactive)
REMARK    1  A    between atoms: C_4  and  C_5
REMARK    2  A    between atoms: C_5  and  N_6
REMARK    3  A    between atoms: C_10  and  C_12
REMARK                            x       y       z     vdW  Elec       q    Type
REMARK                         _______ _______ _______ _____ _____    ______ ____
ROOT
ATOM      1  N   UNL     1       2.653   5.227  19.105  0.00  0.00    +0.000 NA
ATOM      2  C   UNL     1       1.801   5.893  20.122  0.00  0.00    +0.000 C 
ATOM      3  C   UNL     1       2.091   7.402  20.278  0.00  0.00    +0.000 C 
ATOM      4  N   UNL     1       2.165   8.065  18.977  0.00  0.00    +0.000 N 
ATOM      5  C   UNL     1       1.432   9.180  18.594  0.00  0.00    +0.000 C 
ATOM      6  O   UNL     1       1.603   9.648  17.477  0.00  0.00    +0.000 OA
ATOM      7  C   UNL     1       3.102   7.442  18.051  0.00  0.00    +0.000 C 
ATOM      8  C   UNL     1       2.663   5.988  17.834  0.00  0.00    +0.000 C 
ENDROOT
BRANCH   5   9
ATOM      9  C   UNL     1       0.415   9.902  19.463  0.00  0.00    +0.000 C 
ATOM     10  C   UNL     1      -0.857  10.380  18.762  0.00  0.00    +0.000 C 
ATOM     11  C   UNL     1      -1.337  11.406  19.759  0.00  0.00    +0.000 C 
ATOM     12  C   UNL     1      -0.033  12.096  20.136  0.00  0.00    +0.000 C 
ATOM     13  N   UNL     1       1.005  11.059  20.150  0.00  0.00    +0.000 NA
ATOM     14  H   UNL     1       1.214  10.783  21.141  0.00  0.00    +0.000 HD
ENDBRANCH   5   9
BRANCH   1  15
ATOM     15  C   UNL     1       4.018   4.850  19.538  0.00  0.00    +0.000 C 
BRANCH  15  19
ATOM     16  N   UNL     1       7.584   4.796  16.180  0.00  0.00    +0.000 N 
ATOM     17  C   UNL     1       6.443   4.418  16.921  0.00  0.00    +0.000 A 
ATOM     18  N   UNL     1       6.049   5.042  18.052  0.00  0.00    +0.000 NA
ATOM     19  C   UNL     1       4.902   4.418  18.395  0.00  0.00    +0.000 A 
ATOM     20  C   UNL     1       4.627   3.426  17.466  0.00  0.00    +0.000 A 
ATOM     21  N   UNL     1       5.609   3.429  16.547  0.00  0.00    +0.000 N 
ATOM     22  H   UNL     1       8.157   5.598  16.482  0.00  0.00    +0.000 HD
ATOM     23  H   UNL     1       7.822   4.311  15.302  0.00  0.00    +0.000 HD
ATOM     24  H   UNL     1       5.690   2.812  15.707  0.00  0.00    +0.000 HD
ENDBRANCH  15  19
ENDBRANCH   1  15
TORSDOF 3
ENDMDL
MODEL 7
REMARK VINA RESULT:      -6.4      3.369      7.716
REMARK  Name = 
REMARK  3 active torsions:
REMARK  status: ('A' for Active; 'I' for Inactive)
REMARK    1  A    between atoms: C_4  and  C_5
REMARK    2  A    between atoms: C_5  and  N_6
REMARK    3  A    between atoms: C_10  and  C_12
REMARK                            x       y       z     vdW  Elec       q    Type
REMARK                         _______ _______ _______ _____ _____    ______ ____
ROOT
ATOM      1  N   UNL     1       5.008   4.787  17.728  0.00  0.00    +0.000 NA
ATOM      2  C   UNL     1       4.859   6.264  17.751  0.00  0.00    +0.000 C 
ATOM      3  C   UNL     1       3.395   6.736  17.891  0.00  0.00    +0.000 C 
ATOM      4  N   UNL     1       2.704   6.010  18.955  0.00  0.00    +0.000 N 
ATOM      5  C   UNL     1       2.028   6.586  20.022  0.00  0.00    +0.000 C 
ATOM      6  O   UNL     1       1.476   5.861  20.837  0.00  0.00    +0.000 OA
ATOM      7  C   UNL     1       2.781   4.559  18.825  0.00  0.00    +0.000 C 
ATOM      8  C   UNL     1       4.261   4.157  18.840  0.00  0.00    +0.000 C 
ENDROOT
BRANCH   5   9
ATOM      9  C   UNL     1       1.898   8.080  20.273  0.00  0.00    +0.000 C 
ATOM     10  C   UNL     1       1.048   8.493  21.475  0.00  0.00    +0.000 C 
ATOM     11  C   UNL     1       0.767   9.932  21.115  0.00  0.00    +0.000 C 
ATOM     12  C   UNL     1       0.478   9.821  19.623  0.00  0.00    +0.000 C 
ATOM     13  N   UNL     1       1.377   8.789  19.095  0.00  0.00    +0.000 NA
ATOM     14  H   UNL     1       2.183   9.243  18.600  0.00  0.00    +0.000 HD
ENDBRANCH   5   9
BRANCH   1  15
ATOM     15  C   UNL     1       4.742   4.122  16.432  0.00  0.00    +0.000 C 
BRANCH  15  19
ATOM     16  N   UNL     1       7.131   4.286  12.158  0.00  0.00    +0.000 N 
ATOM     17  C   UNL     1       6.806   4.508  13.514  0.00  0.00    +0.000 A 
ATOM     18  N   UNL     1       5.636   4.125  14.072  0.00  0.00    +0.000 NA
ATOM     19  C   UNL     1       5.759   4.465  15.373  0.00  0.00    +0.000 A 
ATOM     20  C   UNL     1       7.000   5.050  15.575  0.00  0.00    +0.000 A 
ATOM     21  N   UNL     1       7.646   5.080  14.396  0.00  0.00    +0.000 N 
ATOM     22  H   UNL     1       6.471   3.792  11.540  0.00  0.00    +0.000 HD
ATOM     23  H   UNL     1       8.053   4.565  11.790  0.00  0.00    +0.000 HD
ATOM     24  H   UNL     1       8.608   5.445  14.212  0.00  0.00    +0.000 HD
ENDBRANCH  15  19
ENDBRANCH   1  15
TORSDOF 3
ENDMDL
MODEL 8
REMARK VINA RESULT:      -6.4      2.770      6.777
REMARK  Name = 
REMARK  3 active torsions:
REMARK  status: ('A' for Active; 'I' for Inactive)
REMARK    1  A    between atoms: C_4  and  C_5
REMARK    2  A    between atoms: C_5  and  N_6
REMARK    3  A    between atoms: C_10  and  C_12
REMARK                            x       y       z     vdW  Elec       q    Type
REMARK                         _______ _______ _______ _____ _____    ______ ____
ROOT
ATOM      1  N   UNL     1       5.187   4.768  16.391  0.00  0.00    +0.000 NA
ATOM      2  C   UNL     1       4.461   3.684  17.100  0.00  0.00    +0.000 C 
ATOM      3  C   UNL     1       4.278   3.949  18.610  0.00  0.00    +0.000 C 
ATOM      4  N   UNL     1       3.792   5.306  18.856  0.00  0.00    +0.000 N 
ATOM      5  C   UNL     1       2.666   5.643  19.593  0.00  0.00    +0.000 C 
ATOM      6  O   UNL     1       2.380   6.823  19.736  0.00  0.00    +0.000 OA
ATOM      7  C   UNL     1       4.607   6.344  18.233  0.00  0.00    +0.000 C 
ATOM      8  C   UNL     1       4.621   6.096  16.720  0.00  0.00    +0.000 C 
ENDROOT
BRANCH   5   9
ATOM      9  C   UNL     1       1.733   4.652  20.269  0.00  0.00    +0.000 C 
ATOM     10  C   UNL     1       2.312   3.872  21.450  0.00  0.00    +0.000 C 
ATOM     11  C   UNL     1       1.331   2.726  21.515  0.00  0.00    +0.000 C 
ATOM     12  C   UNL     1       1.149   2.398  20.039  0.00  0.00    +0.000 C 
ATOM     13  N   UNL     1       1.189   3.674  19.315  0.00  0.00    +0.000 NA
ATOM     14  H   UNL     1       0.213   3.967  19.062  0.00  0.00    +0.000 HD
ENDBRANCH   5   9
BRANCH   1  15
ATOM     15  C   UNL     1       6.664   4.750  16.504  0.00  0.00    +0.000 C 
BRANCH  15  19
ATOM     16  N   UNL     1       8.369   9.127  17.895  0.00  0.00    +0.000 N 
ATOM     17  C   UNL     1       7.970   7.773  17.945  0.00  0.00    +0.000 A 
ATOM     18  N   UNL     1       7.345   7.143  16.926  0.00  0.00    +0.000 NA
ATOM     19  C   UNL     1       7.204   5.871  17.356  0.00  0.00    +0.000 A 
ATOM     20  C   UNL     1       7.744   5.758  18.627  0.00  0.00    +0.000 A 
ATOM     21  N   UNL     1       8.215   6.964  18.992  0.00  0.00    +0.000 N 
ATOM     22  H   UNL     1       8.205   9.685  17.045  0.00  0.00    +0.000 HD
ATOM     23  H   UNL     1       8.876   9.551  18.686  0.00  0.00    +0.000 HD
ATOM     24  H   UNL     1       8.694   7.211  19.887  0.00  0.00    +0.000 HD
ENDBRANCH  15  19
ENDBRANCH   1  15
TORSDOF 3
ENDMDL
MODEL 9
REMARK VINA RESULT:      -6.4      3.360      7.730
REMARK  Name = 
REMARK  3 active torsions:
REMARK  status: ('A' for Active; 'I' for Inactive)
REMARK    1  A    between atoms: C_4  and  C_5
REMARK    2  A    between atoms: C_5  and  N_6
REMARK    3  A    between atoms: C_10  and  C_12
REMARK                            x       y       z     vdW  Elec       q    Type
REMARK                         _______ _______ _______ _____ _____    ______ ____
ROOT
ATOM      1  N   UNL     1       3.645   4.460  18.153  0.00  0.00    +0.000 NA
ATOM      2  C   UNL     1       2.937   4.477  19.457  0.00  0.00    +0.000 C 
ATOM      3  C   UNL     1       3.093   5.807  20.228  0.00  0.00    +0.000 C 
ATOM      4  N   UNL     1       2.851   6.956  19.357  0.00  0.00    +0.000 N 
ATOM      5  C   UNL     1       1.947   7.981  19.601  0.00  0.00    +0.000 C 
ATOM      6  O   UNL     1       1.855   8.896  18.795  0.00  0.00    +0.000 OA
ATOM      7  C   UNL     1       3.656   6.953  18.141  0.00  0.00    +0.000 C 
ATOM      8  C   UNL     1       3.337   5.673  17.360  0.00  0.00    +0.000 C 
ENDROOT
BRANCH   5   9
ATOM      9  C   UNL     1       1.043   8.081  20.819  0.00  0.00    +0.000 C 
ATOM     10  C   UNL     1      -0.148   9.033  20.703  0.00  0.00    +0.000 C 
ATOM     11  C   UNL     1      -0.476   9.222  22.164  0.00  0.00    +0.000 C 
ATOM     12  C   UNL     1       0.913   9.362  22.772  0.00  0.00    +0.000 C 
ATOM     13  N   UNL     1       1.792   8.453  22.028  0.00  0.00    +0.000 NA
ATOM     14  H   UNL     1       1.961   7.584  22.593  0.00  0.00    +0.000 HD
ENDBRANCH   5   9
BRANCH   1  15
ATOM     15  C   UNL     1       5.100   4.183  18.201  0.00  0.00    +0.000 C 
BRANCH  15  19
ATOM     16  N   UNL     1       6.389   3.489  13.525  0.00  0.00    +0.000 N 
ATOM     17  C   UNL     1       6.348   4.019  14.834  0.00  0.00    +0.000 A 
ATOM     18  N   UNL     1       5.418   3.670  15.750  0.00  0.00    +0.000 NA
ATOM     19  C   UNL     1       5.776   4.347  16.863  0.00  0.00    +0.000 A 
ATOM     20  C   UNL     1       6.913   5.093  16.596  0.00  0.00    +0.000 A 
ATOM     21  N   UNL     1       7.259   4.887  15.313  0.00  0.00    +0.000 N 
ATOM     22  H   UNL     1       5.698   2.784  13.230  0.00  0.00    +0.000 HD
ATOM     23  H   UNL     1       7.142   3.760  12.876  0.00  0.00    +0.000 HD
ATOM     24  H   UNL     1       8.078   5.292  14.806  0.00  0.00    +0.000 HD
ENDBRANCH  15  19
ENDBRANCH   1  15
TORSDOF 3
ENDMDL
