MODEL 1
REMARK VINA RESULT:      -8.2      0.000      0.000
REMARK  Name = 
REMARK  10 active torsions:
REMARK  status: ('A' for Active; 'I' for Inactive)
REMARK    1  A    between atoms: C_1  and  C_2
REMARK    2  A    between atoms: C_3  and  C_4
REMARK    3  A    between atoms: C_4  and  C_5
REMARK    4  A    between atoms: C_16  and  O_17
REMARK    5  A    between atoms: O_17  and  C_18
REMARK    6  A    between atoms: C_18  and  C_19
REMARK    7  A    between atoms: C_19  and  C_20
REMARK    8  A    between atoms: C_20  and  N_21
REMARK    9  A    between atoms: N_21  and  C_22
REMARK   10  A    between atoms: C_22  and  C_23
REMARK                            x       y       z     vdW  Elec       q    Type
REMARK                         _______ _______ _______ _____ _____    ______ ____
ROOT
ATOM      1  C   UNL     1       5.518   7.187  17.080  0.00  0.00    +0.000 C 
ATOM      2  C   UNL     1       4.982   5.804  17.144  0.00  0.00    +0.000 A 
ATOM      3  C   UNL     1       5.615   4.668  16.659  0.00  0.00    +0.000 A 
ATOM      4  O   UNL     1       4.792   3.589  16.725  0.00  0.00    +0.000 OA
ATOM      5  C   UNL     1       3.642   4.006  17.316  0.00  0.00    +0.000 A 
ATOM      6  C   UNL     1       2.554   3.166  17.523  0.00  0.00    +0.000 A 
ATOM      7  C   UNL     1       1.433   3.737  18.107  0.00  0.00    +0.000 A 
ATOM      8  C   UNL     1       1.464   5.061  18.532  0.00  0.00    +0.000 A 
ATOM      9  C   UNL     1       2.623   5.872  18.427  0.00  0.00    +0.000 A 
ATOM     10  C   UNL     1       3.718   5.350  17.685  0.00  0.00    +0.000 A 
ENDROOT
BRANCH   3  11
ATOM     11  C   UNL     1       6.979   4.378  16.114  0.00  0.00    +0.000 C 
BRANCH  11  12
ATOM     12  C   UNL     1       7.000   4.532  14.610  0.00  0.00    +0.000 A 
ATOM     13  C   UNL     1       6.208   3.707  13.807  0.00  0.00    +0.000 A 
ATOM     14  C   UNL     1       6.371   3.751  12.426  0.00  0.00    +0.000 A 
ATOM     15  C   UNL     1       7.294   4.633  11.881  0.00  0.00    +0.000 A 
ATOM     16  C   UNL     1       8.001   5.455  12.742  0.00  0.00    +0.000 A 
ATOM     17  N   UNL     1       7.880   5.423  14.087  0.00  0.00    +0.000 NA
ENDBRANCH  11  12
ENDBRANCH   3  11
BRANCH   9  18
ATOM     18  O   UNL     1       2.705   7.097  19.084  0.00  0.00    +0.000 OA
BRANCH  18  19
ATOM     19  C   UNL     1       2.116   8.169  18.317  0.00  0.00    +0.000 C 
BRANCH  19  20
ATOM     20  C   UNL     1       1.277   9.145  19.130  0.00  0.00    +0.000 C 
BRANCH  20  21
ATOM     21  C   UNL     1       1.446  10.582  18.648  0.00  0.00    +0.000 C 
BRANCH  21  22
ATOM     22  N   UNL     1       0.208  10.997  17.986  0.00  0.00    +0.000 NA
ATOM     23  H   UNL     1       0.364  11.090  16.981  0.00  0.00    +0.000 HD
BRANCH  22  24
ATOM     24  C   UNL     1      -0.864  10.032  18.212  0.00  0.00    +0.000 C 
BRANCH  24  25
ATOM     25  C   UNL     1      -2.145  10.512  17.587  0.00  0.00    +0.000 A 
ATOM     26  C   UNL     1      -3.092  11.223  18.331  0.00  0.00    +0.000 A 
ATOM     27  C   UNL     1      -4.268  11.653  17.725  0.00  0.00    +0.000 A 
ATOM     28  C   UNL     1      -4.458  11.355  16.387  0.00  0.00    +0.000 A 
ATOM     29  N   UNL     1      -3.573  10.667  15.634  0.00  0.00    +0.000 NA
ATOM     30  C   UNL     1      -2.439  10.262  16.252  0.00  0.00    +0.000 A 
ENDBRANCH  24  25
ENDBRANCH  22  24
ENDBRANCH  21  22
ENDBRANCH  20  21
ENDBRANCH  19  20
ENDBRANCH  18  19
ENDBRANCH   9  18
TORSDOF 9
ENDMDL
MODEL 2
REMARK VINA RESULT:      -8.0      2.206      3.038
REMARK  Name = 
REMARK  10 active torsions:
REMARK  status: ('A' for Active; 'I' for Inactive)
REMARK    1  A    between atoms: C_1  and  C_2
REMARK    2  A    between atoms: C_3  and  C_4
REMARK    3  A    between atoms: C_4  and  C_5
REMARK    4  A    between atoms: C_16  and  O_17
REMARK    5  A    between atoms: O_17  and  C_18
REMARK    6  A    between atoms: C_18  and  C_19
REMARK    7  A    between atoms: C_19  and  C_20
REMARK    8  A    between atoms: C_20  and  N_21
REMARK    9  A    between atoms: N_21  and  C_22
REMARK   10  A    between atoms: C_22  and  C_23
REMARK                            x       y       z     vdW  Elec       q    Type
REMARK                         _______ _______ _______ _____ _____    ______ ____
ROOT
ATOM      1  C   UNL     1       3.314   7.342  18.280  0.00  0.00    +0.000 C 
ATOM      2  C   UNL     1       3.278   5.858  18.240  0.00  0.00    +0.000 A 
ATOM      3  C   UNL     1       4.005   5.055  17.372  0.00  0.00    +0.000 A 
ATOM      4  O   UNL     1       3.623   3.756  17.481  0.00  0.00    +0.000 OA
ATOM      5  C   UNL     1       2.692   3.699  18.468  0.00  0.00    +0.000 A 
ATOM      6  C   UNL     1       2.056   2.520  18.837  0.00  0.00    +0.000 A 
ATOM      7  C   UNL     1       1.101   2.618  19.839  0.00  0.00    +0.000 A 
ATOM      8  C   UNL     1       0.884   3.833  20.480  0.00  0.00    +0.000 A 
ATOM      9  C   UNL     1       1.628   5.002  20.179  0.00  0.00    +0.000 A 
ATOM     10  C   UNL     1       2.488   4.952  19.048  0.00  0.00    +0.000 A 
ENDROOT
BRANCH   3  11
ATOM     11  C   UNL     1       5.103   5.301  16.386  0.00  0.00    +0.000 C 
BRANCH  11  12
ATOM     12  C   UNL     1       6.284   5.972  17.053  0.00  0.00    +0.000 A 
ATOM     13  C   UNL     1       6.955   5.334  18.100  0.00  0.00    +0.000 A 
ATOM     14  C   UNL     1       7.924   6.038  18.808  0.00  0.00    +0.000 A 
ATOM     15  C   UNL     1       8.218   7.343  18.439  0.00  0.00    +0.000 A 
ATOM     16  C   UNL     1       7.545   7.885  17.357  0.00  0.00    +0.000 A 
ATOM     17  N   UNL     1       6.587   7.235  16.661  0.00  0.00    +0.000 NA
ENDBRANCH  11  12
ENDBRANCH   3  11
BRANCH   9  18
ATOM     18  O   UNL     1       1.568   6.124  21.002  0.00  0.00    +0.000 OA
BRANCH  18  19
ATOM     19  C   UNL     1       0.631   7.108  20.515  0.00  0.00    +0.000 C 
BRANCH  19  20
ATOM     20  C   UNL     1       0.546   8.374  21.356  0.00  0.00    +0.000 C 
BRANCH  20  21
ATOM     21  C   UNL     1       0.920   9.617  20.557  0.00  0.00    +0.000 C 
BRANCH  21  22
ATOM     22  N   UNL     1      -0.302  10.182  19.980  0.00  0.00    +0.000 NA
ATOM     23  H   UNL     1      -0.411  11.154  20.274  0.00  0.00    +0.000 HD
BRANCH  22  24
ATOM     24  C   UNL     1      -0.274  10.129  18.522  0.00  0.00    +0.000 C 
BRANCH  24  25
ATOM     25  C   UNL     1      -1.625  10.469  17.956  0.00  0.00    +0.000 A 
ATOM     26  C   UNL     1      -2.051   9.942  16.732  0.00  0.00    +0.000 A 
ATOM     27  C   UNL     1      -3.306  10.276  16.234  0.00  0.00    +0.000 A 
ATOM     28  C   UNL     1      -4.098  11.131  16.980  0.00  0.00    +0.000 A 
ATOM     29  N   UNL     1      -3.724  11.666  18.163  0.00  0.00    +0.000 NA
ATOM     30  C   UNL     1      -2.497  11.323  18.621  0.00  0.00    +0.000 A 
ENDBRANCH  24  25
ENDBRANCH  22  24
ENDBRANCH  21  22
ENDBRANCH  20  21
ENDBRANCH  19  20
ENDBRANCH  18  19
ENDBRANCH   9  18
TORSDOF 9
ENDMDL
MODEL 3
REMARK VINA RESULT:      -7.9      1.609      1.749
REMARK  Name = 
REMARK  10 active torsions:
REMARK  status: ('A' for Active; 'I' for Inactive)
REMARK    1  A    between atoms: C_1  and  C_2
REMARK    2  A    between atoms: C_3  and  C_4
REMARK    3  A    between atoms: C_4  and  C_5
REMARK    4  A    between atoms: C_16  and  O_17
REMARK    5  A    between atoms: O_17  and  C_18
REMARK    6  A    between atoms: C_18  and  C_19
REMARK    7  A    between atoms: C_19  and  C_20
REMARK    8  A    between atoms: C_20  and  N_21
REMARK    9  A    between atoms: N_21  and  C_22
REMARK   10  A    between atoms: C_22  and  C_23
REMARK                            x       y       z     vdW  Elec       q    Type
REMARK                         _______ _______ _______ _____ _____    ______ ____
ROOT
ATOM      1  C   UNL     1       4.566   7.098  17.136  0.00  0.00    +0.000 C 
ATOM      2  C   UNL     1       4.567   5.922  18.042  0.00  0.00    +0.000 A 
ATOM      3  C   UNL     1       5.525   4.918  18.064  0.00  0.00    +0.000 A 
ATOM      4  O   UNL     1       5.149   3.908  18.890  0.00  0.00    +0.000 OA
ATOM      5  C   UNL     1       3.974   4.281  19.461  0.00  0.00    +0.000 A 
ATOM      6  C   UNL     1       3.277   3.470  20.349  0.00  0.00    +0.000 A 
ATOM      7  C   UNL     1       2.073   3.966  20.826  0.00  0.00    +0.000 A 
ATOM      8  C   UNL     1       1.661   5.250  20.483  0.00  0.00    +0.000 A 
ATOM      9  C   UNL     1       2.442   6.115  19.675  0.00  0.00    +0.000 A 
ATOM     10  C   UNL     1       3.592   5.558  19.050  0.00  0.00    +0.000 A 
ENDROOT
BRANCH   3  11
ATOM     11  C   UNL     1       6.857   4.725  17.409  0.00  0.00    +0.000 C 
BRANCH  11  12
ATOM     12  C   UNL     1       6.711   4.650  15.906  0.00  0.00    +0.000 A 
ATOM     13  C   UNL     1       5.720   3.847  15.335  0.00  0.00    +0.000 A 
ATOM     14  C   UNL     1       5.714   3.662  13.956  0.00  0.00    +0.000 A 
ATOM     15  C   UNL     1       6.672   4.301  13.182  0.00  0.00    +0.000 A 
ATOM     16  C   UNL     1       7.587   5.122  13.819  0.00  0.00    +0.000 A 
ATOM     17  N   UNL     1       7.631   5.308  15.157  0.00  0.00    +0.000 NA
ENDBRANCH  11  12
ENDBRANCH   3  11
BRANCH   9  18
ATOM     18  O   UNL     1       2.131   7.467  19.559  0.00  0.00    +0.000 OA
BRANCH  18  19
ATOM     19  C   UNL     1       1.667   8.029  20.805  0.00  0.00    +0.000 C 
BRANCH  19  20
ATOM     20  C   UNL     1       0.344   8.776  20.712  0.00  0.00    +0.000 C 
BRANCH  20  21
ATOM     21  C   UNL     1       0.404  10.134  21.402  0.00  0.00    +0.000 C 
BRANCH  21  22
ATOM     22  N   UNL     1      -0.410  11.079  20.634  0.00  0.00    +0.000 NA
ATOM     23  H   UNL     1      -0.188  12.037  20.912  0.00  0.00    +0.000 HD
BRANCH  22  24
ATOM     24  C   UNL     1      -0.179  10.936  19.200  0.00  0.00    +0.000 C 
BRANCH  24  25
ATOM     25  C   UNL     1      -1.486  10.852  18.462  0.00  0.00    +0.000 A 
ATOM     26  C   UNL     1      -2.573  11.658  18.819  0.00  0.00    +0.000 A 
ATOM     27  C   UNL     1      -3.769  11.557  18.117  0.00  0.00    +0.000 A 
ATOM     28  C   UNL     1      -3.840  10.647  17.076  0.00  0.00    +0.000 A 
ATOM     29  N   UNL     1      -2.818   9.847  16.702  0.00  0.00    +0.000 NA
ATOM     30  C   UNL     1      -1.668   9.968  17.404  0.00  0.00    +0.000 A 
ENDBRANCH  24  25
ENDBRANCH  22  24
ENDBRANCH  21  22
ENDBRANCH  20  21
ENDBRANCH  19  20
ENDBRANCH  18  19
ENDBRANCH   9  18
TORSDOF 9
ENDMDL
MODEL 4
REMARK VINA RESULT:      -7.8      4.204      6.180
REMARK  Name = 
REMARK  10 active torsions:
REMARK  status: ('A' for Active; 'I' for Inactive)
REMARK    1  A    between atoms: C_1  and  C_2
REMARK    2  A    between atoms: C_3  and  C_4
REMARK    3  A    between atoms: C_4  and  C_5
REMARK    4  A    between atoms: C_16  and  O_17
REMARK    5  A    between atoms: O_17  and  C_18
REMARK    6  A    between atoms: C_18  and  C_19
REMARK    7  A    between atoms: C_19  and  C_20
REMARK    8  A    between atoms: C_20  and  N_21
REMARK    9  A    between atoms: N_21  and  C_22
REMARK   10  A    between atoms: C_22  and  C_23
REMARK                            x       y       z     vdW  Elec       q    Type
REMARK                         _______ _______ _______ _____ _____    ______ ____
ROOT
ATOM      1  C   UNL     1       1.626   8.672  17.846  0.00  0.00    +0.000 C 
ATOM      2  C   UNL     1       1.506   8.586  19.323  0.00  0.00    +0.000 A 
ATOM      3  C   UNL     1       2.002   7.561  20.116  0.00  0.00    +0.000 A 
ATOM      4  O   UNL     1       1.584   7.697  21.402  0.00  0.00    +0.000 OA
ATOM      5  C   UNL     1       0.867   8.849  21.463  0.00  0.00    +0.000 A 
ATOM      6  C   UNL     1       0.258   9.296  22.630  0.00  0.00    +0.000 A 
ATOM      7  C   UNL     1      -0.471  10.472  22.537  0.00  0.00    +0.000 A 
ATOM      8  C   UNL     1      -0.493  11.188  21.345  0.00  0.00    +0.000 A 
ATOM      9  C   UNL     1       0.236  10.786  20.196  0.00  0.00    +0.000 A 
ATOM     10  C   UNL     1       0.848   9.503  20.231  0.00  0.00    +0.000 A 
ENDROOT
BRANCH   3  11
ATOM     11  C   UNL     1       2.892   6.382  19.872  0.00  0.00    +0.000 C 
BRANCH  11  12
ATOM     12  C   UNL     1       2.078   5.159  19.514  0.00  0.00    +0.000 A 
ATOM     13  C   UNL     1       1.372   4.469  20.504  0.00  0.00    +0.000 A 
ATOM     14  C   UNL     1       0.772   3.256  20.183  0.00  0.00    +0.000 A 
ATOM     15  C   UNL     1       0.866   2.776  18.884  0.00  0.00    +0.000 A 
ATOM     16  C   UNL     1       1.538   3.545  17.950  0.00  0.00    +0.000 A 
ATOM     17  N   UNL     1       2.147   4.718  18.233  0.00  0.00    +0.000 NA
ENDBRANCH  11  12
ENDBRANCH   3  11
BRANCH   9  18
ATOM     18  O   UNL     1       0.399  11.644  19.112  0.00  0.00    +0.000 OA
BRANCH  18  19
ATOM     19  C   UNL     1      -0.861  12.015  18.514  0.00  0.00    +0.000 C 
BRANCH  19  20
ATOM     20  C   UNL     1      -1.711  10.843  18.043  0.00  0.00    +0.000 C 
BRANCH  20  21
ATOM     21  C   UNL     1      -2.337  11.104  16.678  0.00  0.00    +0.000 C 
BRANCH  21  22
ATOM     22  N   UNL     1      -3.560  11.886  16.872  0.00  0.00    +0.000 NA
ATOM     23  H   UNL     1      -3.731  12.475  16.055  0.00  0.00    +0.000 HD
BRANCH  22  24
ATOM     24  C   UNL     1      -4.716  11.020  17.082  0.00  0.00    +0.000 C 
BRANCH  24  25
ATOM     25  C   UNL     1      -5.429  11.391  18.352  0.00  0.00    +0.000 A 
ATOM     26  C   UNL     1      -4.820  12.208  19.312  0.00  0.00    +0.000 A 
ATOM     27  C   UNL     1      -5.506  12.533  20.478  0.00  0.00    +0.000 A 
ATOM     28  C   UNL     1      -6.783  12.029  20.647  0.00  0.00    +0.000 A 
ATOM     29  N   UNL     1      -7.405  11.234  19.749  0.00  0.00    +0.000 NA
ATOM     30  C   UNL     1      -6.713  10.935  18.625  0.00  0.00    +0.000 A 
ENDBRANCH  24  25
ENDBRANCH  22  24
ENDBRANCH  21  22
ENDBRANCH  20  21
ENDBRANCH  19  20
ENDBRANCH  18  19
ENDBRANCH   9  18
TORSDOF 9
ENDMDL
MODEL 5
REMARK VINA RESULT:      -7.8      1.696      2.872
REMARK  Name = 
REMARK  10 active torsions:
REMARK  status: ('A' for Active; 'I' for Inactive)
REMARK    1  A    between atoms: C_1  and  C_2
REMARK    2  A    between atoms: C_3  and  C_4
REMARK    3  A    between atoms: C_4  and  C_5
REMARK    4  A    between atoms: C_16  and  O_17
REMARK    5  A    between atoms: O_17  and  C_18
REMARK    6  A    between atoms: C_18  and  C_19
REMARK    7  A    between atoms: C_19  and  C_20
REMARK    8  A    between atoms: C_20  and  N_21
REMARK    9  A    between atoms: N_21  and  C_22
REMARK   10  A    between atoms: C_22  and  C_23
REMARK                            x       y       z     vdW  Elec       q    Type
REMARK                         _______ _______ _______ _____ _____    ______ ____
ROOT
ATOM      1  C   UNL     1       5.601   7.139  16.632  0.00  0.00    +0.000 C 
ATOM      2  C   UNL     1       5.036   5.788  16.879  0.00  0.00    +0.000 A 
ATOM      3  C   UNL     1       5.615   4.587  16.496  0.00  0.00    +0.000 A 
ATOM      4  O   UNL     1       4.771   3.548  16.724  0.00  0.00    +0.000 OA
ATOM      5  C   UNL     1       3.663   4.062  17.318  0.00  0.00    +0.000 A 
ATOM      6  C   UNL     1       2.567   3.284  17.671  0.00  0.00    +0.000 A 
ATOM      7  C   UNL     1       1.491   3.950  18.239  0.00  0.00    +0.000 A 
ATOM      8  C   UNL     1       1.576   5.312  18.509  0.00  0.00    +0.000 A 
ATOM      9  C   UNL     1       2.747   6.071  18.257  0.00  0.00    +0.000 A 
ATOM     10  C   UNL     1       3.790   5.436  17.528  0.00  0.00    +0.000 A 
ENDROOT
BRANCH   3  11
ATOM     11  C   UNL     1       6.942   4.197  15.923  0.00  0.00    +0.000 C 
BRANCH  11  12
ATOM     12  C   UNL     1       6.967   4.418  14.427  0.00  0.00    +0.000 A 
ATOM     13  C   UNL     1       6.230   3.585  13.580  0.00  0.00    +0.000 A 
ATOM     14  C   UNL     1       6.402   3.700  12.205  0.00  0.00    +0.000 A 
ATOM     15  C   UNL     1       7.277   4.655  11.708  0.00  0.00    +0.000 A 
ATOM     16  C   UNL     1       7.929   5.478  12.611  0.00  0.00    +0.000 A 
ATOM     17  N   UNL     1       7.798   5.380  13.953  0.00  0.00    +0.000 NA
ENDBRANCH  11  12
ENDBRANCH   3  11
BRANCH   9  18
ATOM     18  O   UNL     1       2.892   7.359  18.766  0.00  0.00    +0.000 OA
BRANCH  18  19
ATOM     19  C   UNL     1       1.974   8.292  18.159  0.00  0.00    +0.000 C 
BRANCH  19  20
ATOM     20  C   UNL     1       2.454   9.737  18.142  0.00  0.00    +0.000 C 
BRANCH  20  21
ATOM     21  C   UNL     1       1.303  10.720  17.965  0.00  0.00    +0.000 C 
BRANCH  21  22
ATOM     22  N   UNL     1       0.044  10.002  18.176  0.00  0.00    +0.000 NA
ATOM     23  H   UNL     1       0.227   9.097  18.612  0.00  0.00    +0.000 HD
BRANCH  22  24
ATOM     24  C   UNL     1      -0.865  10.763  19.026  0.00  0.00    +0.000 C 
BRANCH  24  25
ATOM     25  C   UNL     1      -0.624  10.443  20.475  0.00  0.00    +0.000 A 
ATOM     26  C   UNL     1      -0.343   9.136  20.891  0.00  0.00    +0.000 A 
ATOM     27  C   UNL     1      -0.124   8.871  22.239  0.00  0.00    +0.000 A 
ATOM     28  C   UNL     1      -0.195   9.926  23.131  0.00  0.00    +0.000 A 
ATOM     29  N   UNL     1      -0.468  11.200  22.773  0.00  0.00    +0.000 NA
ATOM     30  C   UNL     1      -0.676  11.426  21.456  0.00  0.00    +0.000 A 
ENDBRANCH  24  25
ENDBRANCH  22  24
ENDBRANCH  21  22
ENDBRANCH  20  21
ENDBRANCH  19  20
ENDBRANCH  18  19
ENDBRANCH   9  18
TORSDOF 9
ENDMDL
MODEL 6
REMARK VINA RESULT:      -7.7      2.871      3.209
REMARK  Name = 
REMARK  10 active torsions:
REMARK  status: ('A' for Active; 'I' for Inactive)
REMARK    1  A    between atoms: C_1  and  C_2
REMARK    2  A    between atoms: C_3  and  C_4
REMARK    3  A    between atoms: C_4  and  C_5
REMARK    4  A    between atoms: C_16  and  O_17
REMARK    5  A    between atoms: O_17  and  C_18
REMARK    6  A    between atoms: C_18  and  C_19
REMARK    7  A    between atoms: C_19  and  C_20
REMARK    8  A    between atoms: C_20  and  N_21
REMARK    9  A    between atoms: N_21  and  C_22
REMARK   10  A    between atoms: C_22  and  C_23
REMARK                            x       y       z     vdW  Elec       q    Type
REMARK                         _______ _______ _______ _____ _____    ______ ____
ROOT
ATOM      1  C   UNL     1       4.670   6.992  17.300  0.00  0.00    +0.000 C 
ATOM      2  C   UNL     1       4.789   5.729  18.073  0.00  0.00    +0.000 A 
ATOM      3  C   UNL     1       5.802   4.791  17.939  0.00  0.00    +0.000 A 
ATOM      4  O   UNL     1       5.531   3.678  18.668  0.00  0.00    +0.000 OA
ATOM      5  C   UNL     1       4.371   3.914  19.333  0.00  0.00    +0.000 A 
ATOM      6  C   UNL     1       3.772   2.972  20.161  0.00  0.00    +0.000 A 
ATOM      7  C   UNL     1       2.569   3.339  20.748  0.00  0.00    +0.000 A 
ATOM      8  C   UNL     1       2.066   4.623  20.567  0.00  0.00    +0.000 A 
ATOM      9  C   UNL     1       2.751   5.615  19.819  0.00  0.00    +0.000 A 
ATOM     10  C   UNL     1       3.894   5.201  19.082  0.00  0.00    +0.000 A 
ENDROOT
BRANCH   3  11
ATOM     11  C   UNL     1       7.105   4.751  17.202  0.00  0.00    +0.000 C 
BRANCH  11  12
ATOM     12  C   UNL     1       6.875   4.667  15.710  0.00  0.00    +0.000 A 
ATOM     13  C   UNL     1       5.914   3.794  15.194  0.00  0.00    +0.000 A 
ATOM     14  C   UNL     1       5.840   3.610  13.817  0.00  0.00    +0.000 A 
ATOM     15  C   UNL     1       6.701   4.318  12.991  0.00  0.00    +0.000 A 
ATOM     16  C   UNL     1       7.589   5.203  13.577  0.00  0.00    +0.000 A 
ATOM     17  N   UNL     1       7.699   5.392  14.911  0.00  0.00    +0.000 NA
ENDBRANCH  11  12
ENDBRANCH   3  11
BRANCH   9  18
ATOM     18  O   UNL     1       2.356   6.950  19.866  0.00  0.00    +0.000 OA
BRANCH  18  19
ATOM     19  C   UNL     1       1.256   7.162  20.775  0.00  0.00    +0.000 C 
BRANCH  19  20
ATOM     20  C   UNL     1       1.262   8.514  21.476  0.00  0.00    +0.000 C 
BRANCH  20  21
ATOM     21  C   UNL     1      -0.141   8.961  21.869  0.00  0.00    +0.000 C 
BRANCH  21  22
ATOM     22  N   UNL     1      -0.163  10.424  21.920  0.00  0.00    +0.000 NA
ATOM     23  H   UNL     1      -0.560  10.798  21.056  0.00  0.00    +0.000 HD
BRANCH  22  24
ATOM     24  C   UNL     1      -0.953  10.904  23.049  0.00  0.00    +0.000 C 
BRANCH  24  25
ATOM     25  C   UNL     1      -2.021  11.853  22.581  0.00  0.00    +0.000 A 
ATOM     26  C   UNL     1      -3.066  12.241  23.426  0.00  0.00    +0.000 A 
ATOM     27  C   UNL     1      -4.040  13.121  22.963  0.00  0.00    +0.000 A 
ATOM     28  C   UNL     1      -3.935  13.585  21.664  0.00  0.00    +0.000 A 
ATOM     29  N   UNL     1      -2.946  13.233  20.814  0.00  0.00    +0.000 NA
ATOM     30  C   UNL     1      -2.014  12.376  21.293  0.00  0.00    +0.000 A 
ENDBRANCH  24  25
ENDBRANCH  22  24
ENDBRANCH  21  22
ENDBRANCH  20  21
ENDBRANCH  19  20
ENDBRANCH  18  19
ENDBRANCH   9  18
TORSDOF 9
ENDMDL
MODEL 7
REMARK VINA RESULT:      -7.7      2.444      3.165
REMARK  Name = 
REMARK  10 active torsions:
REMARK  status: ('A' for Active; 'I' for Inactive)
REMARK    1  A    between atoms: C_1  and  C_2
REMARK    2  A    between atoms: C_3  and  C_4
REMARK    3  A    between atoms: C_4  and  C_5
REMARK    4  A    between atoms: C_16  and  O_17
REMARK    5  A    between atoms: O_17  and  C_18
REMARK    6  A    between atoms: C_18  and  C_19
REMARK    7  A    between atoms: C_19  and  C_20
REMARK    8  A    between atoms: C_20  and  N_21
REMARK    9  A    between atoms: N_21  and  C_22
REMARK   10  A    between atoms: C_22  and  C_23
REMARK                            x       y       z     vdW  Elec       q    Type
REMARK                         _______ _______ _______ _____ _____    ______ ____
ROOT
ATOM      1  C   UNL     1       4.653   7.103  17.417  0.00  0.00    +0.000 C 
ATOM      2  C   UNL     1       4.668   5.842  18.202  0.00  0.00    +0.000 A 
ATOM      3  C   UNL     1       5.625   4.842  18.108  0.00  0.00    +0.000 A 
ATOM      4  O   UNL     1       5.263   3.754  18.836  0.00  0.00    +0.000 OA
ATOM      5  C   UNL     1       4.098   4.067  19.460  0.00  0.00    +0.000 A 
ATOM      6  C   UNL     1       3.415   3.172  20.275  0.00  0.00    +0.000 A 
ATOM      7  C   UNL     1       2.219   3.617  20.820  0.00  0.00    +0.000 A 
ATOM      8  C   UNL     1       1.803   4.928  20.612  0.00  0.00    +0.000 A 
ATOM      9  C   UNL     1       2.571   5.870  19.881  0.00  0.00    +0.000 A 
ATOM     10  C   UNL     1       3.710   5.379  19.185  0.00  0.00    +0.000 A 
ENDROOT
BRANCH   3  11
ATOM     11  C   UNL     1       6.947   4.716  17.415  0.00  0.00    +0.000 C 
BRANCH  11  12
ATOM     12  C   UNL     1       6.762   4.646  15.915  0.00  0.00    +0.000 A 
ATOM     13  C   UNL     1       5.794   3.802  15.364  0.00  0.00    +0.000 A 
ATOM     14  C   UNL     1       5.758   3.628  13.985  0.00  0.00    +0.000 A 
ATOM     15  C   UNL     1       6.663   4.317  13.191  0.00  0.00    +0.000 A 
ATOM     16  C   UNL     1       7.556   5.175  13.810  0.00  0.00    +0.000 A 
ATOM     17  N   UNL     1       7.629   5.353  15.148  0.00  0.00    +0.000 NA
ENDBRANCH  11  12
ENDBRANCH   3  11
BRANCH   9  18
ATOM     18  O   UNL     1       2.258   7.226  19.905  0.00  0.00    +0.000 OA
BRANCH  18  19
ATOM     19  C   UNL     1       1.199   7.526  20.839  0.00  0.00    +0.000 C 
BRANCH  19  20
ATOM     20  C   UNL     1       1.416   8.789  21.661  0.00  0.00    +0.000 C 
BRANCH  20  21
ATOM     21  C   UNL     1       0.238   9.751  21.552  0.00  0.00    +0.000 C 
BRANCH  21  22
ATOM     22  N   UNL     1      -0.219   9.767  20.160  0.00  0.00    +0.000 NA
ATOM     23  H   UNL     1      -0.944   9.061  20.022  0.00  0.00    +0.000 HD
BRANCH  22  24
ATOM     24  C   UNL     1      -0.755  11.074  19.793  0.00  0.00    +0.000 C 
BRANCH  24  25
ATOM     25  C   UNL     1       0.331  11.949  19.231  0.00  0.00    +0.000 A 
ATOM     26  C   UNL     1       1.472  11.398  18.638  0.00  0.00    +0.000 A 
ATOM     27  C   UNL     1       2.459  12.234  18.128  0.00  0.00    +0.000 A 
ATOM     28  C   UNL     1       2.272  13.602  18.229  0.00  0.00    +0.000 A 
ATOM     29  N   UNL     1       1.189  14.175  18.797  0.00  0.00    +0.000 NA
ATOM     30  C   UNL     1       0.247  13.336  19.284  0.00  0.00    +0.000 A 
ENDBRANCH  24  25
ENDBRANCH  22  24
ENDBRANCH  21  22
ENDBRANCH  20  21
ENDBRANCH  19  20
ENDBRANCH  18  19
ENDBRANCH   9  18
TORSDOF 9
ENDMDL
MODEL 8
REMARK VINA RESULT:      -7.6      2.212      3.036
REMARK  Name = 
REMARK  10 active torsions:
REMARK  status: ('A' for Active; 'I' for Inactive)
REMARK    1  A    between atoms: C_1  and  C_2
REMARK    2  A    between atoms: C_3  and  C_4
REMARK    3  A    between atoms: C_4  and  C_5
REMARK    4  A    between atoms: C_16  and  O_17
REMARK    5  A    between atoms: O_17  and  C_18
REMARK    6  A    between atoms: C_18  and  C_19
REMARK    7  A    between atoms: C_19  and  C_20
REMARK    8  A    between atoms: C_20  and  N_21
REMARK    9  A    between atoms: N_21  and  C_22
REMARK   10  A    between atoms: C_22  and  C_23
REMARK                            x       y       z     vdW  Elec       q    Type
REMARK                         _______ _______ _______ _____ _____    ______ ____
ROOT
ATOM      1  C   UNL     1       3.174   7.649  18.127  0.00  0.00    +0.000 C 
ATOM      2  C   UNL     1       3.215   6.167  18.220  0.00  0.00    +0.000 A 
ATOM      3  C   UNL     1       3.993   5.329  17.433  0.00  0.00    +0.000 A 
ATOM      4  O   UNL     1       3.678   4.027  17.656  0.00  0.00    +0.000 OA
ATOM      5  C   UNL     1       2.740   4.009  18.637  0.00  0.00    +0.000 A 
ATOM      6  C   UNL     1       2.161   2.835  19.106  0.00  0.00    +0.000 A 
ATOM      7  C   UNL     1       1.191   2.972  20.087  0.00  0.00    +0.000 A 
ATOM      8  C   UNL     1       0.903   4.226  20.615  0.00  0.00    +0.000 A 
ATOM      9  C   UNL     1       1.589   5.401  20.216  0.00  0.00    +0.000 A 
ATOM     10  C   UNL     1       2.464   5.296  19.100  0.00  0.00    +0.000 A 
ENDROOT
BRANCH   3  11
ATOM     11  C   UNL     1       5.089   5.544  16.437  0.00  0.00    +0.000 C 
BRANCH  11  12
ATOM     12  C   UNL     1       6.300   6.166  17.096  0.00  0.00    +0.000 A 
ATOM     13  C   UNL     1       6.958   5.497  18.132  0.00  0.00    +0.000 A 
ATOM     14  C   UNL     1       7.959   6.161  18.834  0.00  0.00    +0.000 A 
ATOM     15  C   UNL     1       8.297   7.457  18.471  0.00  0.00    +0.000 A 
ATOM     16  C   UNL     1       7.633   8.030  17.399  0.00  0.00    +0.000 A 
ATOM     17  N   UNL     1       6.645   7.420  16.709  0.00  0.00    +0.000 NA
ENDBRANCH  11  12
ENDBRANCH   3  11
BRANCH   9  18
ATOM     18  O   UNL     1       1.461   6.587  20.934  0.00  0.00    +0.000 OA
BRANCH  18  19
ATOM     19  C   UNL     1       0.128   7.133  20.853  0.00  0.00    +0.000 C 
BRANCH  19  20
ATOM     20  C   UNL     1       0.004   8.579  21.313  0.00  0.00    +0.000 C 
BRANCH  20  21
ATOM     21  C   UNL     1       1.167   9.435  20.827  0.00  0.00    +0.000 C 
BRANCH  21  22
ATOM     22  N   UNL     1       0.630  10.534  20.023  0.00  0.00    +0.000 NA
ATOM     23  H   UNL     1       1.305  11.300  19.980  0.00  0.00    +0.000 HD
BRANCH  22  24
ATOM     24  C   UNL     1       0.323  10.098  18.664  0.00  0.00    +0.000 C 
BRANCH  24  25
ATOM     25  C   UNL     1      -1.088  10.467  18.298  0.00  0.00    +0.000 A 
ATOM     26  C   UNL     1      -1.822  11.376  19.068  0.00  0.00    +0.000 A 
ATOM     27  C   UNL     1      -3.125  11.698  18.704  0.00  0.00    +0.000 A 
ATOM     28  C   UNL     1      -3.654  11.096  17.575  0.00  0.00    +0.000 A 
ATOM     29  N   UNL     1      -2.983  10.211  16.807  0.00  0.00    +0.000 NA
ATOM     30  C   UNL     1      -1.718   9.918  17.187  0.00  0.00    +0.000 A 
ENDBRANCH  24  25
ENDBRANCH  22  24
ENDBRANCH  21  22
ENDBRANCH  20  21
ENDBRANCH  19  20
ENDBRANCH  18  19
ENDBRANCH   9  18
TORSDOF 9
ENDMDL
MODEL 9
REMARK VINA RESULT:      -7.6      1.962      2.706
REMARK  Name = 
REMARK  10 active torsions:
REMARK  status: ('A' for Active; 'I' for Inactive)
REMARK    1  A    between atoms: C_1  and  C_2
REMARK    2  A    between atoms: C_3  and  C_4
REMARK    3  A    between atoms: C_4  and  C_5
REMARK    4  A    between atoms: C_16  and  O_17
REMARK    5  A    between atoms: O_17  and  C_18
REMARK    6  A    between atoms: C_18  and  C_19
REMARK    7  A    between atoms: C_19  and  C_20
REMARK    8  A    between atoms: C_20  and  N_21
REMARK    9  A    between atoms: N_21  and  C_22
REMARK   10  A    between atoms: C_22  and  C_23
REMARK                            x       y       z     vdW  Elec       q    Type
REMARK                         _______ _______ _______ _____ _____    ______ ____
ROOT
ATOM      1  C   UNL     1       5.216   7.245  16.768  0.00  0.00    +0.000 C 
ATOM      2  C   UNL     1       4.952   5.902  17.345  0.00  0.00    +0.000 A 
ATOM      3  C   UNL     1       5.728   4.770  17.147  0.00  0.00    +0.000 A 
ATOM      4  O   UNL     1       5.127   3.672  17.676  0.00  0.00    +0.000 OA
ATOM      5  C   UNL     1       3.988   4.098  18.279  0.00  0.00    +0.000 A 
ATOM      6  C   UNL     1       3.099   3.233  18.907  0.00  0.00    +0.000 A 
ATOM      7  C   UNL     1       1.958   3.804  19.450  0.00  0.00    +0.000 A 
ATOM      8  C   UNL     1       1.790   5.185  19.429  0.00  0.00    +0.000 A 
ATOM      9  C   UNL     1       2.764   6.067  18.896  0.00  0.00    +0.000 A 
ATOM     10  C   UNL     1       3.854   5.484  18.192  0.00  0.00    +0.000 A 
ENDROOT
BRANCH   3  11
ATOM     11  C   UNL     1       7.059   4.507  16.513  0.00  0.00    +0.000 C 
BRANCH  11  12
ATOM     12  C   UNL     1       6.954   4.555  15.005  0.00  0.00    +0.000 A 
ATOM     13  C   UNL     1       6.046   3.729  14.336  0.00  0.00    +0.000 A 
ATOM     14  C   UNL     1       6.088   3.667  12.948  0.00  0.00    +0.000 A 
ATOM     15  C   UNL     1       7.008   4.446  12.261  0.00  0.00    +0.000 A 
ATOM     16  C   UNL     1       7.837   5.278  12.995  0.00  0.00    +0.000 A 
ATOM     17  N   UNL     1       7.835   5.348  14.344  0.00  0.00    +0.000 NA
ENDBRANCH  11  12
ENDBRANCH   3  11
BRANCH   9  18
ATOM     18  O   UNL     1       2.687   7.440  19.115  0.00  0.00    +0.000 OA
BRANCH  18  19
ATOM     19  C   UNL     1       2.175   8.148  17.966  0.00  0.00    +0.000 C 
BRANCH  19  20
ATOM     20  C   UNL     1       1.181   9.254  18.293  0.00  0.00    +0.000 C 
BRANCH  20  21
ATOM     21  C   UNL     1       1.796  10.640  18.136  0.00  0.00    +0.000 C 
BRANCH  21  22
ATOM     22  N   UNL     1       0.816  11.634  18.578  0.00  0.00    +0.000 NA
ATOM     23  H   UNL     1       0.576  12.256  17.804  0.00  0.00    +0.000 HD
BRANCH  22  24
ATOM     24  C   UNL     1      -0.403  10.997  19.068  0.00  0.00    +0.000 C 
BRANCH  24  25
ATOM     25  C   UNL     1      -0.717  11.463  20.462  0.00  0.00    +0.000 A 
ATOM     26  C   UNL     1      -1.474  12.618  20.687  0.00  0.00    +0.000 A 
ATOM     27  C   UNL     1      -1.748  13.024  21.989  0.00  0.00    +0.000 A 
ATOM     28  C   UNL     1      -1.252  12.258  23.029  0.00  0.00    +0.000 A 
ATOM     29  N   UNL     1      -0.513  11.140  22.857  0.00  0.00    +0.000 NA
ATOM     30  C   UNL     1      -0.263  10.771  21.579  0.00  0.00    +0.000 A 
ENDBRANCH  24  25
ENDBRANCH  22  24
ENDBRANCH  21  22
ENDBRANCH  20  21
ENDBRANCH  19  20
ENDBRANCH  18  19
ENDBRANCH   9  18
TORSDOF 9
ENDMDL
