MODEL 1
REMARK VINA RESULT:      -9.1      0.000      0.000
REMARK  Name = 
REMARK  5 active torsions:
REMARK  status: ('A' for Active; 'I' for Inactive)
REMARK    1  A    between atoms: C_1  and  C_2
REMARK    2  A    between atoms: C_2  and  C_3
REMARK    3  A    between atoms: C_2  and  C_4
REMARK    4  A    between atoms: C_4  and  C_5
REMARK    5  A    between atoms: C_9  and  C_11
REMARK                            x       y       z     vdW  Elec       q    Type
REMARK                         _______ _______ _______ _____ _____    ______ ____
ROOT
ATOM      1  C   UNL     1       6.663   4.487  13.570  0.00  0.00    +0.000 A 
ATOM      2  N   UNL     1       5.679   4.396  14.433  0.00  0.00    +0.000 NA
ATOM      3  C   UNL     1       6.125   5.069  15.528  0.00  0.00    +0.000 A 
ATOM      4  N   UNL     1       5.419   5.167  16.687  0.00  0.00    +0.000 N 
ATOM      5  C   UNL     1       4.296   4.430  16.974  0.00  0.00    +0.000 C 
ATOM      6  O   UNL     1       3.769   3.584  16.262  0.00  0.00    +0.000 OA
ATOM      7  N   UNL     1       7.329   5.631  15.370  0.00  0.00    +0.000 NA
ATOM      8  N   UNL     1       7.667   5.216  14.137  0.00  0.00    +0.000 N 
ATOM      9  H   UNL     1       5.803   5.757  17.408  0.00  0.00    +0.000 HD
ATOM     10  H   UNL     1       8.579   5.447  13.762  0.00  0.00    +0.000 HD
ENDROOT
BRANCH   5  11
ATOM     11  C   UNL     1       3.769   4.729  18.320  0.00  0.00    +0.000 A 
ATOM     12  N   UNL     1       4.096   5.866  18.977  0.00  0.00    +0.000 NA
ATOM     13  N   UNL     1       3.429   5.765  20.142  0.00  0.00    +0.000 N 
ATOM     14  C   UNL     1       2.711   4.611  20.290  0.00  0.00    +0.000 A 
ATOM     15  C   UNL     1       1.926   4.134  21.344  0.00  0.00    +0.000 A 
ATOM     16  C   UNL     1       1.321   2.883  21.174  0.00  0.00    +0.000 A 
ATOM     17  C   UNL     1       1.489   2.153  19.998  0.00  0.00    +0.000 A 
ATOM     18  C   UNL     1       2.277   2.655  18.955  0.00  0.00    +0.000 A 
ATOM     19  C   UNL     1       2.904   3.908  19.107  0.00  0.00    +0.000 A 
ATOM     20  H   UNL     1       3.511   6.523  20.810  0.00  0.00    +0.000 HD
ENDBRANCH   5  11
BRANCH   1  21
ATOM     21  C   UNL     1       6.720   3.871  12.218  0.00  0.00    +0.000 C 
BRANCH  21  23
ATOM     22  C   UNL     1       4.396   3.249  11.361  0.00  0.00    +0.000 C 
ATOM     23  C   UNL     1       5.677   2.753  12.040  0.00  0.00    +0.000 C 
ATOM     24  C   UNL     1       6.273   1.607  11.218  0.00  0.00    +0.000 C 
ENDBRANCH  21  23
ENDBRANCH   1  21
TORSDOF 3
ENDMDL
MODEL 2
REMARK VINA RESULT:      -8.9      1.875      7.438
REMARK  Name = 
REMARK  5 active torsions:
REMARK  status: ('A' for Active; 'I' for Inactive)
REMARK    1  A    between atoms: C_1  and  C_2
REMARK    2  A    between atoms: C_2  and  C_3
REMARK    3  A    between atoms: C_2  and  C_4
REMARK    4  A    between atoms: C_4  and  C_5
REMARK    5  A    between atoms: C_9  and  C_11
REMARK                            x       y       z     vdW  Elec       q    Type
REMARK                         _______ _______ _______ _____ _____    ______ ____
ROOT
ATOM      1  C   UNL     1       1.956   2.660  18.892  0.00  0.00    +0.000 A 
ATOM      2  N   UNL     1       2.602   3.496  18.115  0.00  0.00    +0.000 NA
ATOM      3  C   UNL     1       3.630   2.762  17.608  0.00  0.00    +0.000 A 
ATOM      4  N   UNL     1       4.585   3.276  16.787  0.00  0.00    +0.000 N 
ATOM      5  C   UNL     1       4.761   4.618  16.550  0.00  0.00    +0.000 C 
ATOM      6  O   UNL     1       4.116   5.541  17.032  0.00  0.00    +0.000 OA
ATOM      7  N   UNL     1       3.625   1.479  17.989  0.00  0.00    +0.000 NA
ATOM      8  N   UNL     1       2.579   1.447  18.833  0.00  0.00    +0.000 N 
ATOM      9  H   UNL     1       5.254   2.629  16.401  0.00  0.00    +0.000 HD
ATOM     10  H   UNL     1       2.363   0.593  19.333  0.00  0.00    +0.000 HD
ENDROOT
BRANCH   5  11
ATOM     11  C   UNL     1       5.898   4.873  15.643  0.00  0.00    +0.000 A 
ATOM     12  N   UNL     1       6.947   5.642  16.013  0.00  0.00    +0.000 NA
ATOM     13  N   UNL     1       7.751   5.628  14.933  0.00  0.00    +0.000 N 
ATOM     14  C   UNL     1       7.266   4.917  13.871  0.00  0.00    +0.000 A 
ATOM     15  C   UNL     1       7.782   4.692  12.590  0.00  0.00    +0.000 A 
ATOM     16  C   UNL     1       7.014   3.907  11.722  0.00  0.00    +0.000 A 
ATOM     17  C   UNL     1       5.794   3.366  12.125  0.00  0.00    +0.000 A 
ATOM     18  C   UNL     1       5.301   3.602  13.415  0.00  0.00    +0.000 A 
ATOM     19  C   UNL     1       6.052   4.397  14.304  0.00  0.00    +0.000 A 
ATOM     20  H   UNL     1       8.626   6.138  14.979  0.00  0.00    +0.000 HD
ENDBRANCH   5  11
BRANCH   1  21
ATOM     21  C   UNL     1       0.774   2.966  19.740  0.00  0.00    +0.000 C 
BRANCH  21  23
ATOM     22  C   UNL     1       2.210   2.991  21.852  0.00  0.00    +0.000 C 
ATOM     23  C   UNL     1       1.155   3.730  21.021  0.00  0.00    +0.000 C 
ATOM     24  C   UNL     1       1.679   5.123  20.664  0.00  0.00    +0.000 C 
ENDBRANCH  21  23
ENDBRANCH   1  21
TORSDOF 3
ENDMDL
MODEL 3
REMARK VINA RESULT:      -8.7      1.760      2.473
REMARK  Name = 
REMARK  5 active torsions:
REMARK  status: ('A' for Active; 'I' for Inactive)
REMARK    1  A    between atoms: C_1  and  C_2
REMARK    2  A    between atoms: C_2  and  C_3
REMARK    3  A    between atoms: C_2  and  C_4
REMARK    4  A    between atoms: C_4  and  C_5
REMARK    5  A    between atoms: C_9  and  C_11
REMARK                            x       y       z     vdW  Elec       q    Type
REMARK                         _______ _______ _______ _____ _____    ______ ____
ROOT
ATOM      1  C   UNL     1       6.654   4.438  13.728  0.00  0.00    +0.000 A 
ATOM      2  N   UNL     1       5.632   4.451  14.551  0.00  0.00    +0.000 NA
ATOM      3  C   UNL     1       6.050   5.215  15.597  0.00  0.00    +0.000 A 
ATOM      4  N   UNL     1       5.299   5.439  16.709  0.00  0.00    +0.000 N 
ATOM      5  C   UNL     1       4.145   4.758  17.014  0.00  0.00    +0.000 C 
ATOM      6  O   UNL     1       3.627   3.860  16.362  0.00  0.00    +0.000 OA
ATOM      7  N   UNL     1       7.274   5.733  15.440  0.00  0.00    +0.000 NA
ATOM      8  N   UNL     1       7.652   5.195  14.268  0.00  0.00    +0.000 N 
ATOM      9  H   UNL     1       5.667   6.086  17.387  0.00  0.00    +0.000 HD
ATOM     10  H   UNL     1       8.585   5.369  13.914  0.00  0.00    +0.000 HD
ENDROOT
BRANCH   5  11
ATOM     11  C   UNL     1       3.571   5.196  18.301  0.00  0.00    +0.000 A 
ATOM     12  N   UNL     1       3.615   4.414  19.405  0.00  0.00    +0.000 NA
ATOM     13  N   UNL     1       3.000   5.154  20.346  0.00  0.00    +0.000 N 
ATOM     14  C   UNL     1       2.532   6.361  19.907  0.00  0.00    +0.000 A 
ATOM     15  C   UNL     1       1.830   7.380  20.561  0.00  0.00    +0.000 A 
ATOM     16  C   UNL     1       1.489   8.506  19.804  0.00  0.00    +0.000 A 
ATOM     17  C   UNL     1       1.843   8.608  18.459  0.00  0.00    +0.000 A 
ATOM     18  C   UNL     1       2.549   7.576  17.828  0.00  0.00    +0.000 A 
ATOM     19  C   UNL     1       2.897   6.428  18.568  0.00  0.00    +0.000 A 
ATOM     20  H   UNL     1       2.921   4.772  21.282  0.00  0.00    +0.000 HD
ENDBRANCH   5  11
BRANCH   1  21
ATOM     21  C   UNL     1       6.752   3.696  12.444  0.00  0.00    +0.000 C 
BRANCH  21  23
ATOM     22  C   UNL     1       4.426   3.494  11.406  0.00  0.00    +0.000 C 
ATOM     23  C   UNL     1       5.532   2.788  12.199  0.00  0.00    +0.000 C 
ATOM     24  C   UNL     1       5.962   1.525  11.449  0.00  0.00    +0.000 C 
ENDBRANCH  21  23
ENDBRANCH   1  21
TORSDOF 3
ENDMDL
MODEL 4
REMARK VINA RESULT:      -8.5      1.263      7.341
REMARK  Name = 
REMARK  5 active torsions:
REMARK  status: ('A' for Active; 'I' for Inactive)
REMARK    1  A    between atoms: C_1  and  C_2
REMARK    2  A    between atoms: C_2  and  C_3
REMARK    3  A    between atoms: C_2  and  C_4
REMARK    4  A    between atoms: C_4  and  C_5
REMARK    5  A    between atoms: C_9  and  C_11
REMARK                            x       y       z     vdW  Elec       q    Type
REMARK                         _______ _______ _______ _____ _____    ______ ____
ROOT
ATOM      1  C   UNL     1       2.649   5.655  19.637  0.00  0.00    +0.000 A 
ATOM      2  N   UNL     1       3.580   5.129  18.876  0.00  0.00    +0.000 NA
ATOM      3  C   UNL     1       3.914   6.124  18.012  0.00  0.00    +0.000 A 
ATOM      4  N   UNL     1       4.819   5.973  17.007  0.00  0.00    +0.000 N 
ATOM      5  C   UNL     1       5.331   4.763  16.603  0.00  0.00    +0.000 C 
ATOM      6  O   UNL     1       5.057   3.659  17.058  0.00  0.00    +0.000 OA
ATOM      7  N   UNL     1       3.273   7.278  18.232  0.00  0.00    +0.000 NA
ATOM      8  N   UNL     1       2.448   6.946  19.241  0.00  0.00    +0.000 N 
ATOM      9  H   UNL     1       5.056   6.795  16.475  0.00  0.00    +0.000 HD
ATOM     10  H   UNL     1       1.782   7.625  19.589  0.00  0.00    +0.000 HD
ENDROOT
BRANCH   5  11
ATOM     11  C   UNL     1       6.263   4.911  15.467  0.00  0.00    +0.000 A 
ATOM     12  N   UNL     1       7.387   5.658  15.560  0.00  0.00    +0.000 NA
ATOM     13  N   UNL     1       7.950   5.541  14.343  0.00  0.00    +0.000 N 
ATOM     14  C   UNL     1       7.237   4.784  13.456  0.00  0.00    +0.000 A 
ATOM     15  C   UNL     1       7.471   4.456  12.115  0.00  0.00    +0.000 A 
ATOM     16  C   UNL     1       6.519   3.650  11.480  0.00  0.00    +0.000 A 
ATOM     17  C   UNL     1       5.394   3.188  12.161  0.00  0.00    +0.000 A 
ATOM     18  C   UNL     1       5.184   3.527  13.504  0.00  0.00    +0.000 A 
ATOM     19  C   UNL     1       6.124   4.345  14.162  0.00  0.00    +0.000 A 
ATOM     20  H   UNL     1       8.830   6.016  14.173  0.00  0.00    +0.000 HD
ENDBRANCH   5  11
BRANCH   1  21
ATOM     21  C   UNL     1       1.893   4.972  20.719  0.00  0.00    +0.000 C 
BRANCH  21  23
ATOM     22  C   UNL     1       1.683   2.697  21.860  0.00  0.00    +0.000 C 
ATOM     23  C   UNL     1       1.858   3.444  20.533  0.00  0.00    +0.000 C 
ATOM     24  C   UNL     1       0.723   3.057  19.583  0.00  0.00    +0.000 C 
ENDBRANCH  21  23
ENDBRANCH   1  21
TORSDOF 3
ENDMDL
MODEL 5
REMARK VINA RESULT:      -8.4      1.415      7.394
REMARK  Name = 
REMARK  5 active torsions:
REMARK  status: ('A' for Active; 'I' for Inactive)
REMARK    1  A    between atoms: C_1  and  C_2
REMARK    2  A    between atoms: C_2  and  C_3
REMARK    3  A    between atoms: C_2  and  C_4
REMARK    4  A    between atoms: C_4  and  C_5
REMARK    5  A    between atoms: C_9  and  C_11
REMARK                            x       y       z     vdW  Elec       q    Type
REMARK                         _______ _______ _______ _____ _____    ______ ____
ROOT
ATOM      1  C   UNL     1       3.301   4.100  19.879  0.00  0.00    +0.000 A 
ATOM      2  N   UNL     1       3.674   4.579  18.716  0.00  0.00    +0.000 NA
ATOM      3  C   UNL     1       4.757   3.830  18.373  0.00  0.00    +0.000 A 
ATOM      4  N   UNL     1       5.488   4.041  17.245  0.00  0.00    +0.000 N 
ATOM      5  C   UNL     1       5.369   5.150  16.442  0.00  0.00    +0.000 C 
ATOM      6  O   UNL     1       4.620   6.104  16.611  0.00  0.00    +0.000 OA
ATOM      7  N   UNL     1       5.048   2.858  19.246  0.00  0.00    +0.000 NA
ATOM      8  N   UNL     1       4.138   3.073  20.211  0.00  0.00    +0.000 N 
ATOM      9  H   UNL     1       6.219   3.378  17.042  0.00  0.00    +0.000 HD
ATOM     10  H   UNL     1       4.154   2.509  21.052  0.00  0.00    +0.000 HD
ENDROOT
BRANCH   5  11
ATOM     11  C   UNL     1       6.318   5.115  15.311  0.00  0.00    +0.000 A 
ATOM     12  N   UNL     1       7.503   5.766  15.353  0.00  0.00    +0.000 NA
ATOM     13  N   UNL     1       8.061   5.494  14.159  0.00  0.00    +0.000 N 
ATOM     14  C   UNL     1       7.289   4.727  13.332  0.00  0.00    +0.000 A 
ATOM     15  C   UNL     1       7.501   4.263  12.028  0.00  0.00    +0.000 A 
ATOM     16  C   UNL     1       6.486   3.490  11.453  0.00  0.00    +0.000 A 
ATOM     17  C   UNL     1       5.320   3.191  12.156  0.00  0.00    +0.000 A 
ATOM     18  C   UNL     1       5.133   3.663  13.461  0.00  0.00    +0.000 A 
ATOM     19  C   UNL     1       6.138   4.451  14.059  0.00  0.00    +0.000 A 
ATOM     20  H   UNL     1       8.980   5.873  13.960  0.00  0.00    +0.000 HD
ENDBRANCH   5  11
BRANCH   1  21
ATOM     21  C   UNL     1       2.193   4.601  20.733  0.00  0.00    +0.000 C 
BRANCH  21  23
ATOM     22  C   UNL     1       0.678   2.948  19.509  0.00  0.00    +0.000 C 
ATOM     23  C   UNL     1       1.043   3.584  20.855  0.00  0.00    +0.000 C 
ATOM     24  C   UNL     1       1.422   2.482  21.848  0.00  0.00    +0.000 C 
ENDBRANCH  21  23
ENDBRANCH   1  21
TORSDOF 3
ENDMDL
MODEL 6
REMARK VINA RESULT:      -8.1      2.824      3.602
REMARK  Name = 
REMARK  5 active torsions:
REMARK  status: ('A' for Active; 'I' for Inactive)
REMARK    1  A    between atoms: C_1  and  C_2
REMARK    2  A    between atoms: C_2  and  C_3
REMARK    3  A    between atoms: C_2  and  C_4
REMARK    4  A    between atoms: C_4  and  C_5
REMARK    5  A    between atoms: C_9  and  C_11
REMARK                            x       y       z     vdW  Elec       q    Type
REMARK                         _______ _______ _______ _____ _____    ______ ____
ROOT
ATOM      1  C   UNL     1       6.155   4.651  15.024  0.00  0.00    +0.000 A 
ATOM      2  N   UNL     1       5.076   4.849  15.744  0.00  0.00    +0.000 NA
ATOM      3  C   UNL     1       5.391   5.904  16.543  0.00  0.00    +0.000 A 
ATOM      4  N   UNL     1       4.554   6.401  17.493  0.00  0.00    +0.000 N 
ATOM      5  C   UNL     1       3.403   5.778  17.913  0.00  0.00    +0.000 C 
ATOM      6  O   UNL     1       2.963   4.704  17.523  0.00  0.00    +0.000 OA
ATOM      7  N   UNL     1       6.606   6.418  16.317  0.00  0.00    +0.000 NA
ATOM      8  N   UNL     1       7.087   5.584  15.378  0.00  0.00    +0.000 N 
ATOM      9  H   UNL     1       4.850   7.235  17.974  0.00  0.00    +0.000 HD
ATOM     10  H   UNL     1       8.037   5.696  15.046  0.00  0.00    +0.000 HD
ENDROOT
BRANCH   5  11
ATOM     11  C   UNL     1       2.722   6.539  18.979  0.00  0.00    +0.000 A 
ATOM     12  N   UNL     1       2.558   6.034  20.224  0.00  0.00    +0.000 NA
ATOM     13  N   UNL     1       1.907   7.011  20.883  0.00  0.00    +0.000 N 
ATOM     14  C   UNL     1       1.613   8.110  20.126  0.00  0.00    +0.000 A 
ATOM     15  C   UNL     1       0.937   9.296  20.433  0.00  0.00    +0.000 A 
ATOM     16  C   UNL     1       0.797  10.236  19.405  0.00  0.00    +0.000 A 
ATOM     17  C   UNL     1       1.319   9.999  18.134  0.00  0.00    +0.000 A 
ATOM     18  C   UNL     1       1.995   8.805  17.852  0.00  0.00    +0.000 A 
ATOM     19  C   UNL     1       2.141   7.840  18.869  0.00  0.00    +0.000 A 
ATOM     20  H   UNL     1       1.680   6.863  21.859  0.00  0.00    +0.000 HD
ENDBRANCH   5  11
BRANCH   1  21
ATOM     21  C   UNL     1       6.371   3.575  14.022  0.00  0.00    +0.000 C 
BRANCH  21  23
ATOM     22  C   UNL     1       7.296   4.360  11.774  0.00  0.00    +0.000 C 
ATOM     23  C   UNL     1       6.040   4.034  12.590  0.00  0.00    +0.000 C 
ATOM     24  C   UNL     1       5.235   2.952  11.866  0.00  0.00    +0.000 C 
ENDBRANCH  21  23
ENDBRANCH   1  21
TORSDOF 3
ENDMDL
MODEL 7
REMARK VINA RESULT:      -8.1      6.710      8.646
REMARK  Name = 
REMARK  5 active torsions:
REMARK  status: ('A' for Active; 'I' for Inactive)
REMARK    1  A    between atoms: C_1  and  C_2
REMARK    2  A    between atoms: C_2  and  C_3
REMARK    3  A    between atoms: C_2  and  C_4
REMARK    4  A    between atoms: C_4  and  C_5
REMARK    5  A    between atoms: C_9  and  C_11
REMARK                            x       y       z     vdW  Elec       q    Type
REMARK                         _______ _______ _______ _____ _____    ______ ____
ROOT
ATOM      1  C   UNL     1       6.897   6.258  17.124  0.00  0.00    +0.000 A 
ATOM      2  N   UNL     1       7.409   7.457  17.269  0.00  0.00    +0.000 NA
ATOM      3  C   UNL     1       8.123   7.383  18.424  0.00  0.00    +0.000 A 
ATOM      4  N   UNL     1       8.776   8.444  18.972  0.00  0.00    +0.000 N 
ATOM      5  C   UNL     1       8.616   9.746  18.563  0.00  0.00    +0.000 C 
ATOM      6  O   UNL     1       7.876  10.153  17.675  0.00  0.00    +0.000 OA
ATOM      7  N   UNL     1       8.131   6.168  18.985  0.00  0.00    +0.000 NA
ATOM      8  N   UNL     1       7.316   5.482  18.166  0.00  0.00    +0.000 N 
ATOM      9  H   UNL     1       9.343   8.263  19.784  0.00  0.00    +0.000 HD
ATOM     10  H   UNL     1       7.082   4.520  18.380  0.00  0.00    +0.000 HD
ENDROOT
BRANCH   5  11
ATOM     11  C   UNL     1       9.428  10.680  19.367  0.00  0.00    +0.000 A 
ATOM     12  N   UNL     1       9.303  10.758  20.712  0.00  0.00    +0.000 NA
ATOM     13  N   UNL     1      10.195  11.704  21.062  0.00  0.00    +0.000 N 
ATOM     14  C   UNL     1      10.871  12.265  20.015  0.00  0.00    +0.000 A 
ATOM     15  C   UNL     1      11.837  13.276  19.967  0.00  0.00    +0.000 A 
ATOM     16  C   UNL     1      12.331  13.628  18.705  0.00  0.00    +0.000 A 
ATOM     17  C   UNL     1      11.883  12.988  17.550  0.00  0.00    +0.000 A 
ATOM     18  C   UNL     1      10.918  11.976  17.625  0.00  0.00    +0.000 A 
ATOM     19  C   UNL     1      10.399  11.611  18.883  0.00  0.00    +0.000 A 
ATOM     20  H   UNL     1      10.292  11.932  22.045  0.00  0.00    +0.000 HD
ENDBRANCH   5  11
BRANCH   1  21
ATOM     21  C   UNL     1       5.978   5.807  16.046  0.00  0.00    +0.000 C 
BRANCH  21  23
ATOM     22  C   UNL     1       4.517   3.777  16.563  0.00  0.00    +0.000 C 
ATOM     23  C   UNL     1       5.849   4.274  15.991  0.00  0.00    +0.000 C 
ATOM     24  C   UNL     1       5.990   3.788  14.546  0.00  0.00    +0.000 C 
ENDBRANCH  21  23
ENDBRANCH   1  21
TORSDOF 3
ENDMDL
MODEL 8
REMARK VINA RESULT:      -8.0      1.546      1.590
REMARK  Name = 
REMARK  5 active torsions:
REMARK  status: ('A' for Active; 'I' for Inactive)
REMARK    1  A    between atoms: C_1  and  C_2
REMARK    2  A    between atoms: C_2  and  C_3
REMARK    3  A    between atoms: C_2  and  C_4
REMARK    4  A    between atoms: C_4  and  C_5
REMARK    5  A    between atoms: C_9  and  C_11
REMARK                            x       y       z     vdW  Elec       q    Type
REMARK                         _______ _______ _______ _____ _____    ______ ____
ROOT
ATOM      1  C   UNL     1       6.587   4.345  14.051  0.00  0.00    +0.000 A 
ATOM      2  N   UNL     1       5.738   3.862  14.926  0.00  0.00    +0.000 NA
ATOM      3  C   UNL     1       6.227   4.264  16.130  0.00  0.00    +0.000 A 
ATOM      4  N   UNL     1       5.664   3.922  17.321  0.00  0.00    +0.000 N 
ATOM      5  C   UNL     1       4.688   2.966  17.469  0.00  0.00    +0.000 C 
ATOM      6  O   UNL     1       4.189   2.281  16.585  0.00  0.00    +0.000 OA
ATOM      7  N   UNL     1       7.321   5.031  16.047  0.00  0.00    +0.000 NA
ATOM      8  N   UNL     1       7.553   5.036  14.723  0.00  0.00    +0.000 N 
ATOM      9  H   UNL     1       6.055   4.340  18.150  0.00  0.00    +0.000 HD
ATOM     10  H   UNL     1       8.375   5.503  14.360  0.00  0.00    +0.000 HD
ENDROOT
BRANCH   5  11
ATOM     11  C   UNL     1       4.298   2.791  18.882  0.00  0.00    +0.000 A 
ATOM     12  N   UNL     1       5.174   2.345  19.813  0.00  0.00    +0.000 NA
ATOM     13  N   UNL     1       4.450   2.323  20.948  0.00  0.00    +0.000 N 
ATOM     14  C   UNL     1       3.145   2.702  20.799  0.00  0.00    +0.000 A 
ATOM     15  C   UNL     1       2.091   2.782  21.715  0.00  0.00    +0.000 A 
ATOM     16  C   UNL     1       0.851   3.208  21.225  0.00  0.00    +0.000 A 
ATOM     17  C   UNL     1       0.682   3.545  19.882  0.00  0.00    +0.000 A 
ATOM     18  C   UNL     1       1.754   3.459  18.986  0.00  0.00    +0.000 A 
ATOM     19  C   UNL     1       3.010   3.025  19.454  0.00  0.00    +0.000 A 
ATOM     20  H   UNL     1       4.907   2.028  21.803  0.00  0.00    +0.000 HD
ENDBRANCH   5  11
BRANCH   1  21
ATOM     21  C   UNL     1       6.555   4.148  12.578  0.00  0.00    +0.000 C 
BRANCH  21  23
ATOM     22  C   UNL     1       4.398   3.393  11.436  0.00  0.00    +0.000 C 
ATOM     23  C   UNL     1       5.673   2.955  12.166  0.00  0.00    +0.000 C 
ATOM     24  C   UNL     1       6.466   2.002  11.269  0.00  0.00    +0.000 C 
ENDBRANCH  21  23
ENDBRANCH   1  21
TORSDOF 3
ENDMDL
MODEL 9
REMARK VINA RESULT:      -7.9      1.887      7.343
REMARK  Name = 
REMARK  5 active torsions:
REMARK  status: ('A' for Active; 'I' for Inactive)
REMARK    1  A    between atoms: C_1  and  C_2
REMARK    2  A    between atoms: C_2  and  C_3
REMARK    3  A    between atoms: C_2  and  C_4
REMARK    4  A    between atoms: C_4  and  C_5
REMARK    5  A    between atoms: C_9  and  C_11
REMARK                            x       y       z     vdW  Elec       q    Type
REMARK                         _______ _______ _______ _____ _____    ______ ____
ROOT
ATOM      1  C   UNL     1       3.139   2.669  19.559  0.00  0.00    +0.000 A 
ATOM      2  N   UNL     1       3.843   3.525  18.857  0.00  0.00    +0.000 NA
ATOM      3  C   UNL     1       4.197   2.835  17.739  0.00  0.00    +0.000 A 
ATOM      4  N   UNL     1       4.990   3.349  16.760  0.00  0.00    +0.000 N 
ATOM      5  C   UNL     1       5.704   4.517  16.877  0.00  0.00    +0.000 C 
ATOM      6  O   UNL     1       5.751   5.257  17.852  0.00  0.00    +0.000 OA
ATOM      7  N   UNL     1       3.696   1.595  17.680  0.00  0.00    +0.000 NA
ATOM      8  N   UNL     1       3.062   1.499  18.862  0.00  0.00    +0.000 N 
ATOM      9  H   UNL     1       5.124   2.785  15.936  0.00  0.00    +0.000 HD
ATOM     10  H   UNL     1       2.625   0.624  19.127  0.00  0.00    +0.000 HD
ENDROOT
BRANCH   5  11
ATOM     11  C   UNL     1       6.500   4.799  15.666  0.00  0.00    +0.000 A 
ATOM     12  N   UNL     1       7.569   5.628  15.692  0.00  0.00    +0.000 NA
ATOM     13  N   UNL     1       8.010   5.622  14.420  0.00  0.00    +0.000 N 
ATOM     14  C   UNL     1       7.268   4.858  13.564  0.00  0.00    +0.000 A 
ATOM     15  C   UNL     1       7.386   4.621  12.190  0.00  0.00    +0.000 A 
ATOM     16  C   UNL     1       6.437   3.775  11.604  0.00  0.00    +0.000 A 
ATOM     17  C   UNL     1       5.425   3.189  12.364  0.00  0.00    +0.000 A 
ATOM     18  C   UNL     1       5.331   3.439  13.739  0.00  0.00    +0.000 A 
ATOM     19  C   UNL     1       6.270   4.294  14.349  0.00  0.00    +0.000 A 
ATOM     20  H   UNL     1       8.830   6.174  14.193  0.00  0.00    +0.000 HD
ENDBRANCH   5  11
BRANCH   1  21
ATOM     21  C   UNL     1       2.555   2.893  20.908  0.00  0.00    +0.000 C 
BRANCH  21  23
ATOM     22  C   UNL     1       1.545   5.231  20.714  0.00  0.00    +0.000 C 
ATOM     23  C   UNL     1       1.264   3.731  20.854  0.00  0.00    +0.000 C 
ATOM     24  C   UNL     1       0.389   3.271  19.686  0.00  0.00    +0.000 C 
ENDBRANCH  21  23
ENDBRANCH   1  21
TORSDOF 3
ENDMDL
