MODEL 1
REMARK VINA RESULT:      -7.7      0.000      0.000
REMARK  Name = 
REMARK  4 active torsions:
REMARK  status: ('A' for Active; 'I' for Inactive)
REMARK    1  A    between atoms: C_1  and  O_2
REMARK    2  A    between atoms: O_2  and  C_3
REMARK    3  A    between atoms: N_11  and  C_12
REMARK    4  A    between atoms: N_11  and  C_13
REMARK                            x       y       z     vdW  Elec       q    Type
REMARK                         _______ _______ _______ _____ _____    ______ ____
ROOT
ATOM      1  C   UNL     1       5.770   4.203  14.424  0.00  0.00    +0.000 A 
ATOM      2  C   UNL     1       6.964   4.903  14.372  0.00  0.00    +0.000 A 
ATOM      3  C   UNL     1       7.518   5.397  15.557  0.00  0.00    +0.000 A 
ATOM      4  C   UNL     1       6.943   5.167  16.802  0.00  0.00    +0.000 A 
ATOM      5  N   UNL     1       7.549   5.684  17.872  0.00  0.00    +0.000 NA
ATOM      6  C   UNL     1       6.976   5.434  19.056  0.00  0.00    +0.000 A 
ATOM      7  N   UNL     1       5.892   4.678  19.268  0.00  0.00    +0.000 NA
ATOM      8  C   UNL     1       5.302   4.114  18.188  0.00  0.00    +0.000 A 
ATOM      9  N   UNL     1       4.246   3.205  18.445  0.00  0.00    +0.000 N 
ATOM     10  C   UNL     1       4.203   1.960  17.672  0.00  0.00    +0.000 C 
ATOM     11  C   UNL     1       5.766   4.407  16.877  0.00  0.00    +0.000 A 
ATOM     12  C   UNL     1       5.153   4.014  15.657  0.00  0.00    +0.000 A 
ENDROOT
BRANCH   9  13
ATOM     13  C   UNL     1       3.236   3.339  19.437  0.00  0.00    +0.000 A 
ATOM     14  C   UNL     1       2.119   4.159  19.214  0.00  0.00    +0.000 A 
ATOM     15  C   UNL     1       1.029   4.165  20.095  0.00  0.00    +0.000 A 
ATOM     16  C   UNL     1       1.045   3.372  21.237  0.00  0.00    +0.000 A 
ATOM     17  C   UNL     1       2.169   2.612  21.525  0.00  0.00    +0.000 A 
ATOM     18  C   UNL     1       3.251   2.606  20.640  0.00  0.00    +0.000 A 
ENDBRANCH   9  13
BRANCH   1  20
ATOM     19  C   UNL     1       5.936   3.295  12.256  0.00  0.00    +0.000 C 
ATOM     20  O   UNL     1       5.110   3.675  13.352  0.00  0.00    +0.000 OA
ENDBRANCH   1  20
TORSDOF 2
ENDMDL
MODEL 2
REMARK VINA RESULT:      -7.5      0.175      1.084
REMARK  Name = 
REMARK  4 active torsions:
REMARK  status: ('A' for Active; 'I' for Inactive)
REMARK    1  A    between atoms: C_1  and  O_2
REMARK    2  A    between atoms: O_2  and  C_3
REMARK    3  A    between atoms: N_11  and  C_12
REMARK    4  A    between atoms: N_11  and  C_13
REMARK                            x       y       z     vdW  Elec       q    Type
REMARK                         _______ _______ _______ _____ _____    ______ ____
ROOT
ATOM      1  C   UNL     1       5.732   4.281  14.427  0.00  0.00    +0.000 A 
ATOM      2  C   UNL     1       6.914   5.003  14.437  0.00  0.00    +0.000 A 
ATOM      3  C   UNL     1       7.429   5.456  15.655  0.00  0.00    +0.000 A 
ATOM      4  C   UNL     1       6.827   5.164  16.874  0.00  0.00    +0.000 A 
ATOM      5  N   UNL     1       7.396   5.645  17.980  0.00  0.00    +0.000 NA
ATOM      6  C   UNL     1       6.797   5.336  19.137  0.00  0.00    +0.000 A 
ATOM      7  N   UNL     1       5.722   4.552  19.288  0.00  0.00    +0.000 NA
ATOM      8  C   UNL     1       5.170   4.025  18.171  0.00  0.00    +0.000 A 
ATOM      9  N   UNL     1       4.124   3.088  18.362  0.00  0.00    +0.000 N 
ATOM     10  C   UNL     1       4.124   1.877  17.536  0.00  0.00    +0.000 C 
ATOM     11  C   UNL     1       5.662   4.382  16.886  0.00  0.00    +0.000 A 
ATOM     12  C   UNL     1       5.087   4.031  15.635  0.00  0.00    +0.000 A 
ENDROOT
BRANCH   9  13
ATOM     13  C   UNL     1       3.087   3.163  19.331  0.00  0.00    +0.000 A 
ATOM     14  C   UNL     1       3.215   2.510  20.568  0.00  0.00    +0.000 A 
ATOM     15  C   UNL     1       2.293   2.717  21.602  0.00  0.00    +0.000 A 
ATOM     16  C   UNL     1       1.202   3.558  21.413  0.00  0.00    +0.000 A 
ATOM     17  C   UNL     1       1.005   4.154  20.175  0.00  0.00    +0.000 A 
ATOM     18  C   UNL     1       1.931   3.947  19.148  0.00  0.00    +0.000 A 
ENDBRANCH   9  13
BRANCH   1  20
ATOM     19  C   UNL     1       5.977   3.315  12.292  0.00  0.00    +0.000 C 
ATOM     20  O   UNL     1       5.109   3.788  13.317  0.00  0.00    +0.000 OA
ENDBRANCH   1  20
TORSDOF 2
ENDMDL
MODEL 3
REMARK VINA RESULT:      -6.9      2.461      6.607
REMARK  Name = 
REMARK  4 active torsions:
REMARK  status: ('A' for Active; 'I' for Inactive)
REMARK    1  A    between atoms: C_1  and  O_2
REMARK    2  A    between atoms: O_2  and  C_3
REMARK    3  A    between atoms: N_11  and  C_12
REMARK    4  A    between atoms: N_11  and  C_13
REMARK                            x       y       z     vdW  Elec       q    Type
REMARK                         _______ _______ _______ _____ _____    ______ ____
ROOT
ATOM      1  C   UNL     1       2.072   6.296  20.103  0.00  0.00    +0.000 A 
ATOM      2  C   UNL     1       1.239   5.386  20.731  0.00  0.00    +0.000 A 
ATOM      3  C   UNL     1       1.316   4.034  20.382  0.00  0.00    +0.000 A 
ATOM      4  C   UNL     1       2.241   3.554  19.461  0.00  0.00    +0.000 A 
ATOM      5  N   UNL     1       2.233   2.247  19.196  0.00  0.00    +0.000 NA
ATOM      6  C   UNL     1       3.143   1.816  18.314  0.00  0.00    +0.000 A 
ATOM      7  N   UNL     1       4.085   2.558  17.719  0.00  0.00    +0.000 NA
ATOM      8  C   UNL     1       4.125   3.877  18.023  0.00  0.00    +0.000 A 
ATOM      9  N   UNL     1       5.213   4.616  17.496  0.00  0.00    +0.000 N 
ATOM     10  C   UNL     1       5.885   5.578  18.375  0.00  0.00    +0.000 C 
ATOM     11  C   UNL     1       3.134   4.455  18.861  0.00  0.00    +0.000 A 
ATOM     12  C   UNL     1       2.963   5.838  19.137  0.00  0.00    +0.000 A 
ENDROOT
BRANCH   9  13
ATOM     13  C   UNL     1       5.782   4.479  16.199  0.00  0.00    +0.000 A 
ATOM     14  C   UNL     1       5.006   4.021  15.123  0.00  0.00    +0.000 A 
ATOM     15  C   UNL     1       5.490   4.050  13.809  0.00  0.00    +0.000 A 
ATOM     16  C   UNL     1       6.776   4.510  13.544  0.00  0.00    +0.000 A 
ATOM     17  C   UNL     1       7.594   4.894  14.596  0.00  0.00    +0.000 A 
ATOM     18  C   UNL     1       7.103   4.867  15.905  0.00  0.00    +0.000 A 
ENDBRANCH   9  13
BRANCH   1  20
ATOM     19  C   UNL     1       1.020   8.146  21.114  0.00  0.00    +0.000 C 
ATOM     20  O   UNL     1       2.099   7.642  20.332  0.00  0.00    +0.000 OA
ENDBRANCH   1  20
TORSDOF 2
ENDMDL
MODEL 4
REMARK VINA RESULT:      -6.8      2.681      6.314
REMARK  Name = 
REMARK  4 active torsions:
REMARK  status: ('A' for Active; 'I' for Inactive)
REMARK    1  A    between atoms: C_1  and  O_2
REMARK    2  A    between atoms: O_2  and  C_3
REMARK    3  A    between atoms: N_11  and  C_12
REMARK    4  A    between atoms: N_11  and  C_13
REMARK                            x       y       z     vdW  Elec       q    Type
REMARK                         _______ _______ _______ _____ _____    ______ ____
ROOT
ATOM      1  C   UNL     1       2.144   7.209  19.493  0.00  0.00    +0.000 A 
ATOM      2  C   UNL     1       1.651   6.455  20.544  0.00  0.00    +0.000 A 
ATOM      3  C   UNL     1       2.049   5.121  20.676  0.00  0.00    +0.000 A 
ATOM      4  C   UNL     1       2.969   4.530  19.817  0.00  0.00    +0.000 A 
ATOM      5  N   UNL     1       3.281   3.250  20.025  0.00  0.00    +0.000 NA
ATOM      6  C   UNL     1       4.178   2.715  19.188  0.00  0.00    +0.000 A 
ATOM      7  N   UNL     1       4.824   3.353  18.204  0.00  0.00    +0.000 NA
ATOM      8  C   UNL     1       4.543   4.664  18.020  0.00  0.00    +0.000 A 
ATOM      9  N   UNL     1       5.336   5.355  17.070  0.00  0.00    +0.000 N 
ATOM     10  C   UNL     1       5.814   6.698  17.417  0.00  0.00    +0.000 C 
ATOM     11  C   UNL     1       3.525   5.298  18.782  0.00  0.00    +0.000 A 
ATOM     12  C   UNL     1       3.021   6.613  18.591  0.00  0.00    +0.000 A 
ENDROOT
BRANCH   9  13
ATOM     13  C   UNL     1       5.785   4.856  15.817  0.00  0.00    +0.000 A 
ATOM     14  C   UNL     1       4.911   4.153  14.973  0.00  0.00    +0.000 A 
ATOM     15  C   UNL     1       5.277   3.812  13.664  0.00  0.00    +0.000 A 
ATOM     16  C   UNL     1       6.539   4.138  13.179  0.00  0.00    +0.000 A 
ATOM     17  C   UNL     1       7.452   4.761  14.018  0.00  0.00    +0.000 A 
ATOM     18  C   UNL     1       7.080   5.104  15.321  0.00  0.00    +0.000 A 
ENDBRANCH   9  13
BRANCH   1  20
ATOM     19  C   UNL     1       2.093   8.945  17.901  0.00  0.00    +0.000 C 
ATOM     20  O   UNL     1       1.836   8.513  19.234  0.00  0.00    +0.000 OA
ENDBRANCH   1  20
TORSDOF 2
ENDMDL
MODEL 5
REMARK VINA RESULT:      -6.7      2.499      6.530
REMARK  Name = 
REMARK  4 active torsions:
REMARK  status: ('A' for Active; 'I' for Inactive)
REMARK    1  A    between atoms: C_1  and  O_2
REMARK    2  A    between atoms: O_2  and  C_3
REMARK    3  A    between atoms: N_11  and  C_12
REMARK    4  A    between atoms: N_11  and  C_13
REMARK                            x       y       z     vdW  Elec       q    Type
REMARK                         _______ _______ _______ _____ _____    ______ ____
ROOT
ATOM      1  C   UNL     1       2.082   6.261  20.066  0.00  0.00    +0.000 A 
ATOM      2  C   UNL     1       1.336   5.296  20.721  0.00  0.00    +0.000 A 
ATOM      3  C   UNL     1       1.460   3.958  20.336  0.00  0.00    +0.000 A 
ATOM      4  C   UNL     1       2.349   3.545  19.350  0.00  0.00    +0.000 A 
ATOM      5  N   UNL     1       2.390   2.245  19.054  0.00  0.00    +0.000 NA
ATOM      6  C   UNL     1       3.265   1.880  18.108  0.00  0.00    +0.000 A 
ATOM      7  N   UNL     1       4.130   2.683  17.476  0.00  0.00    +0.000 NA
ATOM      8  C   UNL     1       4.122   3.995  17.808  0.00  0.00    +0.000 A 
ATOM      9  N   UNL     1       5.138   4.800  17.234  0.00  0.00    +0.000 N 
ATOM     10  C   UNL     1       5.812   5.777  18.095  0.00  0.00    +0.000 C 
ATOM     11  C   UNL     1       3.157   4.503  18.719  0.00  0.00    +0.000 A 
ATOM     12  C   UNL     1       2.934   5.870  19.037  0.00  0.00    +0.000 A 
ENDROOT
BRANCH   9  13
ATOM     13  C   UNL     1       5.631   4.720  15.903  0.00  0.00    +0.000 A 
ATOM     14  C   UNL     1       6.956   5.080  15.609  0.00  0.00    +0.000 A 
ATOM     15  C   UNL     1       7.515   4.839  14.347  0.00  0.00    +0.000 A 
ATOM     16  C   UNL     1       6.752   4.261  13.339  0.00  0.00    +0.000 A 
ATOM     17  C   UNL     1       5.416   3.968  13.576  0.00  0.00    +0.000 A 
ATOM     18  C   UNL     1       4.866   4.206  14.839  0.00  0.00    +0.000 A 
ENDBRANCH   9  13
BRANCH   1  20
ATOM     19  C   UNL     1       1.805   8.433  19.197  0.00  0.00    +0.000 C 
ATOM     20  O   UNL     1       2.055   7.601  20.326  0.00  0.00    +0.000 OA
ENDBRANCH   1  20
TORSDOF 2
ENDMDL
MODEL 6
REMARK VINA RESULT:      -6.7      3.431      4.664
REMARK  Name = 
REMARK  4 active torsions:
REMARK  status: ('A' for Active; 'I' for Inactive)
REMARK    1  A    between atoms: C_1  and  O_2
REMARK    2  A    between atoms: O_2  and  C_3
REMARK    3  A    between atoms: N_11  and  C_12
REMARK    4  A    between atoms: N_11  and  C_13
REMARK                            x       y       z     vdW  Elec       q    Type
REMARK                         _______ _______ _______ _____ _____    ______ ____
ROOT
ATOM      1  C   UNL     1       6.437   5.736  16.716  0.00  0.00    +0.000 A 
ATOM      2  C   UNL     1       6.368   4.426  16.273  0.00  0.00    +0.000 A 
ATOM      3  C   UNL     1       5.195   3.694  16.481  0.00  0.00    +0.000 A 
ATOM      4  C   UNL     1       4.066   4.248  17.073  0.00  0.00    +0.000 A 
ATOM      5  N   UNL     1       2.997   3.465  17.228  0.00  0.00    +0.000 NA
ATOM      6  C   UNL     1       1.923   4.033  17.791  0.00  0.00    +0.000 A 
ATOM      7  N   UNL     1       1.806   5.315  18.159  0.00  0.00    +0.000 NA
ATOM      8  C   UNL     1       2.873   6.123  17.960  0.00  0.00    +0.000 A 
ATOM      9  N   UNL     1       2.682   7.502  18.224  0.00  0.00    +0.000 N 
ATOM     10  C   UNL     1       3.235   8.470  17.271  0.00  0.00    +0.000 C 
ATOM     11  C   UNL     1       4.098   5.593  17.473  0.00  0.00    +0.000 A 
ATOM     12  C   UNL     1       5.334   6.286  17.363  0.00  0.00    +0.000 A 
ENDROOT
BRANCH   9  13
ATOM     13  C   UNL     1       1.942   8.065  19.299  0.00  0.00    +0.000 A 
ATOM     14  C   UNL     1       1.203   9.245  19.120  0.00  0.00    +0.000 A 
ATOM     15  C   UNL     1       0.326   9.715  20.106  0.00  0.00    +0.000 A 
ATOM     16  C   UNL     1       0.192   9.032  21.310  0.00  0.00    +0.000 A 
ATOM     17  C   UNL     1       0.969   7.908  21.548  0.00  0.00    +0.000 A 
ATOM     18  C   UNL     1       1.838   7.440  20.557  0.00  0.00    +0.000 A 
ENDBRANCH   9  13
BRANCH   1  20
ATOM     19  C   UNL     1       7.628   7.568  17.596  0.00  0.00    +0.000 C 
ATOM     20  O   UNL     1       7.516   6.563  16.594  0.00  0.00    +0.000 OA
ENDBRANCH   1  20
TORSDOF 2
ENDMDL
MODEL 7
REMARK VINA RESULT:      -6.6      3.502      4.831
REMARK  Name = 
REMARK  4 active torsions:
REMARK  status: ('A' for Active; 'I' for Inactive)
REMARK    1  A    between atoms: C_1  and  O_2
REMARK    2  A    between atoms: O_2  and  C_3
REMARK    3  A    between atoms: N_11  and  C_12
REMARK    4  A    between atoms: N_11  and  C_13
REMARK                            x       y       z     vdW  Elec       q    Type
REMARK                         _______ _______ _______ _____ _____    ______ ____
ROOT
ATOM      1  C   UNL     1       6.493   5.787  16.798  0.00  0.00    +0.000 A 
ATOM      2  C   UNL     1       6.449   4.478  16.348  0.00  0.00    +0.000 A 
ATOM      3  C   UNL     1       5.276   3.736  16.515  0.00  0.00    +0.000 A 
ATOM      4  C   UNL     1       4.123   4.280  17.071  0.00  0.00    +0.000 A 
ATOM      5  N   UNL     1       3.056   3.488  17.189  0.00  0.00    +0.000 NA
ATOM      6  C   UNL     1       1.960   4.045  17.718  0.00  0.00    +0.000 A 
ATOM      7  N   UNL     1       1.821   5.325  18.087  0.00  0.00    +0.000 NA
ATOM      8  C   UNL     1       2.888   6.142  17.926  0.00  0.00    +0.000 A 
ATOM      9  N   UNL     1       2.677   7.518  18.188  0.00  0.00    +0.000 N 
ATOM     10  C   UNL     1       3.253   8.494  17.257  0.00  0.00    +0.000 C 
ATOM     11  C   UNL     1       4.132   5.623  17.477  0.00  0.00    +0.000 A 
ATOM     12  C   UNL     1       5.365   6.326  17.410  0.00  0.00    +0.000 A 
ENDROOT
BRANCH   9  13
ATOM     13  C   UNL     1       1.897   8.071  19.241  0.00  0.00    +0.000 A 
ATOM     14  C   UNL     1       1.891   7.478  20.513  0.00  0.00    +0.000 A 
ATOM     15  C   UNL     1       1.279   8.102  21.608  0.00  0.00    +0.000 A 
ATOM     16  C   UNL     1       0.631   9.322  21.448  0.00  0.00    +0.000 A 
ATOM     17  C   UNL     1       0.551   9.893  20.186  0.00  0.00    +0.000 A 
ATOM     18  C   UNL     1       1.169   9.267  19.099  0.00  0.00    +0.000 A 
ENDBRANCH   9  13
BRANCH   1  20
ATOM     19  C   UNL     1       7.514   7.770  17.557  0.00  0.00    +0.000 C 
ATOM     20  O   UNL     1       7.569   6.623  16.714  0.00  0.00    +0.000 OA
ENDBRANCH   1  20
TORSDOF 2
ENDMDL
MODEL 8
REMARK VINA RESULT:      -6.6      1.718      2.273
REMARK  Name = 
REMARK  4 active torsions:
REMARK  status: ('A' for Active; 'I' for Inactive)
REMARK    1  A    between atoms: C_1  and  O_2
REMARK    2  A    between atoms: O_2  and  C_3
REMARK    3  A    between atoms: N_11  and  C_12
REMARK    4  A    between atoms: N_11  and  C_13
REMARK                            x       y       z     vdW  Elec       q    Type
REMARK                         _______ _______ _______ _____ _____    ______ ____
ROOT
ATOM      1  C   UNL     1       5.617   4.363  14.283  0.00  0.00    +0.000 A 
ATOM      2  C   UNL     1       7.001   4.342  14.315  0.00  0.00    +0.000 A 
ATOM      3  C   UNL     1       7.664   4.696  15.494  0.00  0.00    +0.000 A 
ATOM      4  C   UNL     1       6.985   5.020  16.662  0.00  0.00    +0.000 A 
ATOM      5  N   UNL     1       7.710   5.346  17.733  0.00  0.00    +0.000 NA
ATOM      6  C   UNL     1       7.025   5.642  18.845  0.00  0.00    +0.000 A 
ATOM      7  N   UNL     1       5.696   5.591  18.994  0.00  0.00    +0.000 NA
ATOM      8  C   UNL     1       4.960   5.216  17.922  0.00  0.00    +0.000 A 
ATOM      9  N   UNL     1       3.572   5.031  18.139  0.00  0.00    +0.000 N 
ATOM     10  C   UNL     1       2.929   3.860  17.533  0.00  0.00    +0.000 C 
ATOM     11  C   UNL     1       5.582   4.988  16.665  0.00  0.00    +0.000 A 
ATOM     12  C   UNL     1       4.924   4.743  15.429  0.00  0.00    +0.000 A 
ENDROOT
BRANCH   9  13
ATOM     13  C   UNL     1       2.727   5.836  18.951  0.00  0.00    +0.000 A 
ATOM     14  C   UNL     1       2.100   5.297  20.085  0.00  0.00    +0.000 A 
ATOM     15  C   UNL     1       1.413   6.110  20.996  0.00  0.00    +0.000 A 
ATOM     16  C   UNL     1       1.310   7.480  20.776  0.00  0.00    +0.000 A 
ATOM     17  C   UNL     1       1.850   8.028  19.622  0.00  0.00    +0.000 A 
ATOM     18  C   UNL     1       2.539   7.212  18.720  0.00  0.00    +0.000 A 
ENDBRANCH   9  13
BRANCH   1  20
ATOM     19  C   UNL     1       5.482   3.287  12.192  0.00  0.00    +0.000 C 
ATOM     20  O   UNL     1       4.839   4.056  13.205  0.00  0.00    +0.000 OA
ENDBRANCH   1  20
TORSDOF 2
ENDMDL
MODEL 9
REMARK VINA RESULT:      -6.5      3.899      5.251
REMARK  Name = 
REMARK  4 active torsions:
REMARK  status: ('A' for Active; 'I' for Inactive)
REMARK    1  A    between atoms: C_1  and  O_2
REMARK    2  A    between atoms: O_2  and  C_3
REMARK    3  A    between atoms: N_11  and  C_12
REMARK    4  A    between atoms: N_11  and  C_13
REMARK                            x       y       z     vdW  Elec       q    Type
REMARK                         _______ _______ _______ _____ _____    ______ ____
ROOT
ATOM      1  C   UNL     1       5.755   5.947  17.560  0.00  0.00    +0.000 A 
ATOM      2  C   UNL     1       5.930   4.588  17.763  0.00  0.00    +0.000 A 
ATOM      3  C   UNL     1       5.055   3.905  18.613  0.00  0.00    +0.000 A 
ATOM      4  C   UNL     1       3.974   4.528  19.227  0.00  0.00    +0.000 A 
ATOM      5  N   UNL     1       3.199   3.788  20.022  0.00  0.00    +0.000 NA
ATOM      6  C   UNL     1       2.161   4.416  20.588  0.00  0.00    +0.000 A 
ATOM      7  N   UNL     1       1.801   5.691  20.390  0.00  0.00    +0.000 NA
ATOM      8  C   UNL     1       2.559   6.430  19.548  0.00  0.00    +0.000 A 
ATOM      9  N   UNL     1       2.083   7.730  19.242  0.00  0.00    +0.000 N 
ATOM     10  C   UNL     1       2.154   8.180  17.848  0.00  0.00    +0.000 C 
ATOM     11  C   UNL     1       3.746   5.891  18.983  0.00  0.00    +0.000 A 
ATOM     12  C   UNL     1       4.711   6.596  18.214  0.00  0.00    +0.000 A 
ENDROOT
BRANCH   9  13
ATOM     13  C   UNL     1       1.470   8.641  20.144  0.00  0.00    +0.000 A 
ATOM     14  C   UNL     1       0.746   9.745  19.665  0.00  0.00    +0.000 A 
ATOM     15  C   UNL     1      -0.014  10.549  20.524  0.00  0.00    +0.000 A 
ATOM     16  C   UNL     1      -0.043  10.287  21.890  0.00  0.00    +0.000 A 
ATOM     17  C   UNL     1       0.726   9.252  22.403  0.00  0.00    +0.000 A 
ATOM     18  C   UNL     1       1.478   8.450  21.540  0.00  0.00    +0.000 A 
ENDBRANCH   9  13
BRANCH   1  20
ATOM     19  C   UNL     1       7.368   7.661  17.470  0.00  0.00    +0.000 C 
ATOM     20  O   UNL     1       6.535   6.741  16.771  0.00  0.00    +0.000 OA
ENDBRANCH   1  20
TORSDOF 2
ENDMDL
