MODEL 1
REMARK VINA RESULT:      -9.5      0.000      0.000
REMARK  Name = 
REMARK  9 active torsions:
REMARK  status: ('A' for Active; 'I' for Inactive)
REMARK    1  A    between atoms: C_1  and  C_2
REMARK    2  A    between atoms: C_5  and  C_6
REMARK    3  A    between atoms: C_8  and  C_9
REMARK    4  A    between atoms: C_12  and  O_13
REMARK    5  A    between atoms: O_13  and  C_14
REMARK    6  A    between atoms: C_14  and  C_15
REMARK    7  A    between atoms: N_24  and  C_25
REMARK    8  A    between atoms: C_28  and  S_29
REMARK    9  A    between atoms: S_29  and  N_30
REMARK                            x       y       z     vdW  Elec       q    Type
REMARK                         _______ _______ _______ _____ _____    ______ ____
ROOT
ATOM      1  C   UNL     1      -0.764  12.212  19.245  0.00  0.00    +0.000 C 
ATOM      2  C   UNL     1       1.045  11.742  20.021  0.00  0.00    +0.000 C 
ATOM      3  C   UNL     1       1.425  13.211  20.097  0.00  0.00    +0.000 C 
ATOM      4  N   UNL     1       0.489  14.135  20.065  0.00  0.00    +0.000 NA
ATOM      5  N   UNL     1      -0.903  13.543  19.872  0.00  0.00    +0.000 N 
ENDROOT
BRANCH   1  10
ATOM      6  C   UNL     1      -3.713  10.264  14.685  0.00  0.00    +0.000 C 
ATOM      7  C   UNL     1      -3.279  10.405  16.118  0.00  0.00    +0.000 A 
ATOM      8  C   UNL     1      -2.277   9.631  16.662  0.00  0.00    +0.000 A 
ATOM      9  C   UNL     1      -1.713   9.964  17.934  0.00  0.00    +0.000 A 
ATOM     10  C   UNL     1      -1.924  11.220  18.555  0.00  0.00    +0.000 A 
ATOM     11  C   UNL     1      -3.126  11.816  18.140  0.00  0.00    +0.000 A 
ATOM     12  C   UNL     1      -3.804  11.413  16.957  0.00  0.00    +0.000 A 
ENDBRANCH   1  10
BRANCH   3  13
ATOM     13  C   UNL     1       1.049  11.760  20.022  0.00  0.00    +0.000 A 
ATOM     14  C   UNL     1       0.634  10.065  20.669  0.00  0.00    +0.000 A 
ATOM     15  C   UNL     1       1.166   8.847  20.183  0.00  0.00    +0.000 A 
ATOM     16  C   UNL     1       1.663   8.808  18.851  0.00  0.00    +0.000 A 
ATOM     17  C   UNL     1       1.959   9.920  17.979  0.00  0.00    +0.000 A 
ATOM     18  C   UNL     1       1.919  11.267  18.441  0.00  0.00    +0.000 A 
BRANCH  16  19
ATOM     19  O   UNL     1       2.137   7.569  18.489  0.00  0.00    +0.000 OA
BRANCH  19  20
ATOM     20  C   UNL     1       2.727   6.815  19.537  0.00  0.00    +0.000 C 
BRANCH  20  21
ATOM     21  C   UNL     1       2.108   5.449  19.410  0.00  0.00    +0.000 A 
ATOM     22  C   UNL     1       2.031   4.811  18.162  0.00  0.00    +0.000 A 
ATOM     23  C   UNL     1       1.485   3.534  18.043  0.00  0.00    +0.000 A 
ATOM     24  C   UNL     1       0.994   2.879  19.168  0.00  0.00    +0.000 A 
ATOM     25  C   UNL     1       1.007   3.538  20.411  0.00  0.00    +0.000 A 
ATOM     26  C   UNL     1       1.557   4.813  20.524  0.00  0.00    +0.000 A 
ENDBRANCH  20  21
ENDBRANCH  19  20
ENDBRANCH  16  19
ENDBRANCH   3  13
BRANCH   5  27
ATOM     27  C   UNL     1      -1.855  13.602  20.928  0.00  0.00    +0.000 A 
ATOM     28  C   UNL     1      -2.809  14.623  21.046  0.00  0.00    +0.000 A 
ATOM     29  C   UNL     1      -3.895  14.510  21.938  0.00  0.00    +0.000 A 
ATOM     30  C   UNL     1      -4.044  13.348  22.698  0.00  0.00    +0.000 A 
ATOM     31  C   UNL     1      -3.026  12.404  22.741  0.00  0.00    +0.000 A 
ATOM     32  C   UNL     1      -1.942  12.540  21.857  0.00  0.00    +0.000 A 
BRANCH  30  33
ATOM     33  S   UNL     1      -5.612  12.969  23.453  0.00  0.00    +0.000 S 
ATOM     34  O   UNL     1      -6.223  14.189  23.940  0.00  0.00    +0.000 OA
ATOM     35  O   UNL     1      -6.293  12.051  22.612  0.00  0.00    +0.000 OA
BRANCH  33  36
ATOM     36  N   UNL     1      -5.116  12.112  24.832  0.00  0.00    +0.000 NA
ATOM     37  H   UNL     1      -4.293  12.534  25.218  0.00  0.00    +0.000 HD
ATOM     38  H   UNL     1      -5.906  12.022  25.459  0.00  0.00    +0.000 HD
ENDBRANCH  33  36
ENDBRANCH  30  33
ENDBRANCH   5  27
TORSDOF 8
ENDMDL
MODEL 2
REMARK VINA RESULT:      -9.5      0.591      1.068
REMARK  Name = 
REMARK  9 active torsions:
REMARK  status: ('A' for Active; 'I' for Inactive)
REMARK    1  A    between atoms: C_1  and  C_2
REMARK    2  A    between atoms: C_5  and  C_6
REMARK    3  A    between atoms: C_8  and  C_9
REMARK    4  A    between atoms: C_12  and  O_13
REMARK    5  A    between atoms: O_13  and  C_14
REMARK    6  A    between atoms: C_14  and  C_15
REMARK    7  A    between atoms: N_24  and  C_25
REMARK    8  A    between atoms: C_28  and  S_29
REMARK    9  A    between atoms: S_29  and  N_30
REMARK                            x       y       z     vdW  Elec       q    Type
REMARK                         _______ _______ _______ _____ _____    ______ ____
ROOT
ATOM      1  C   UNL     1      -0.744  12.196  19.201  0.00  0.00    +0.000 C 
ATOM      2  C   UNL     1       1.071  11.733  19.966  0.00  0.00    +0.000 C 
ATOM      3  C   UNL     1       1.452  13.203  20.024  0.00  0.00    +0.000 C 
ATOM      4  N   UNL     1       0.517  14.127  19.991  0.00  0.00    +0.000 NA
ATOM      5  N   UNL     1      -0.877  13.533  19.815  0.00  0.00    +0.000 N 
ENDROOT
BRANCH   1  10
ATOM      6  C   UNL     1      -3.760  10.230  14.692  0.00  0.00    +0.000 C 
ATOM      7  C   UNL     1      -3.303  10.375  16.118  0.00  0.00    +0.000 A 
ATOM      8  C   UNL     1      -2.287   9.606  16.645  0.00  0.00    +0.000 A 
ATOM      9  C   UNL     1      -1.704   9.942  17.907  0.00  0.00    +0.000 A 
ATOM     10  C   UNL     1      -1.911  11.198  18.531  0.00  0.00    +0.000 A 
ATOM     11  C   UNL     1      -3.122  11.787  18.136  0.00  0.00    +0.000 A 
ATOM     12  C   UNL     1      -3.818  11.380  16.964  0.00  0.00    +0.000 A 
ENDBRANCH   1  10
BRANCH   3  13
ATOM     13  C   UNL     1       1.075  11.750  19.967  0.00  0.00    +0.000 A 
ATOM     14  C   UNL     1       0.648  10.067  20.635  0.00  0.00    +0.000 A 
ATOM     15  C   UNL     1       1.184   8.841  20.176  0.00  0.00    +0.000 A 
ATOM     16  C   UNL     1       1.700   8.779  18.852  0.00  0.00    +0.000 A 
ATOM     17  C   UNL     1       2.011   9.877  17.966  0.00  0.00    +0.000 A 
ATOM     18  C   UNL     1       1.967  11.231  18.406  0.00  0.00    +0.000 A 
BRANCH  16  19
ATOM     19  O   UNL     1       2.178   7.534  18.517  0.00  0.00    +0.000 OA
BRANCH  19  20
ATOM     20  C   UNL     1       2.692   6.770  19.597  0.00  0.00    +0.000 C 
BRANCH  20  21
ATOM     21  C   UNL     1       2.087   5.405  19.413  0.00  0.00    +0.000 A 
ATOM     22  C   UNL     1       1.583   4.691  20.512  0.00  0.00    +0.000 A 
ATOM     23  C   UNL     1       0.995   3.439  20.343  0.00  0.00    +0.000 A 
ATOM     24  C   UNL     1       0.914   2.872  19.075  0.00  0.00    +0.000 A 
ATOM     25  C   UNL     1       1.476   3.551  17.978  0.00  0.00    +0.000 A 
ATOM     26  C   UNL     1       2.059   4.804  18.153  0.00  0.00    +0.000 A 
ENDBRANCH  20  21
ENDBRANCH  19  20
ENDBRANCH  16  19
ENDBRANCH   3  13
BRANCH   5  27
ATOM     27  C   UNL     1      -1.820  13.604  20.879  0.00  0.00    +0.000 A 
ATOM     28  C   UNL     1      -2.939  14.448  20.859  0.00  0.00    +0.000 A 
ATOM     29  C   UNL     1      -3.984  14.301  21.794  0.00  0.00    +0.000 A 
ATOM     30  C   UNL     1      -3.922  13.276  22.741  0.00  0.00    +0.000 A 
ATOM     31  C   UNL     1      -2.752  12.545  22.904  0.00  0.00    +0.000 A 
ATOM     32  C   UNL     1      -1.714  12.716  21.974  0.00  0.00    +0.000 A 
BRANCH  30  33
ATOM     33  S   UNL     1      -5.394  12.764  23.601  0.00  0.00    +0.000 S 
ATOM     34  O   UNL     1      -6.379  12.300  22.645  0.00  0.00    +0.000 OA
ATOM     35  O   UNL     1      -4.998  11.999  24.729  0.00  0.00    +0.000 OA
BRANCH  33  36
ATOM     36  N   UNL     1      -5.972  14.251  24.183  0.00  0.00    +0.000 NA
ATOM     37  H   UNL     1      -6.013  14.232  25.184  0.00  0.00    +0.000 HD
ATOM     38  H   UNL     1      -5.421  14.995  23.774  0.00  0.00    +0.000 HD
ENDBRANCH  33  36
ENDBRANCH  30  33
ENDBRANCH   5  27
TORSDOF 8
ENDMDL
MODEL 3
REMARK VINA RESULT:      -8.9      0.984      1.332
REMARK  Name = 
REMARK  9 active torsions:
REMARK  status: ('A' for Active; 'I' for Inactive)
REMARK    1  A    between atoms: C_1  and  C_2
REMARK    2  A    between atoms: C_5  and  C_6
REMARK    3  A    between atoms: C_8  and  C_9
REMARK    4  A    between atoms: C_12  and  O_13
REMARK    5  A    between atoms: O_13  and  C_14
REMARK    6  A    between atoms: C_14  and  C_15
REMARK    7  A    between atoms: N_24  and  C_25
REMARK    8  A    between atoms: C_28  and  S_29
REMARK    9  A    between atoms: S_29  and  N_30
REMARK                            x       y       z     vdW  Elec       q    Type
REMARK                         _______ _______ _______ _____ _____    ______ ____
ROOT
ATOM      1  C   UNL     1      -0.834  12.292  19.295  0.00  0.00    +0.000 C 
ATOM      2  C   UNL     1       0.986  11.847  20.062  0.00  0.00    +0.000 C 
ATOM      3  C   UNL     1       1.347  13.322  20.132  0.00  0.00    +0.000 C 
ATOM      4  N   UNL     1       0.399  14.233  20.103  0.00  0.00    +0.000 NA
ATOM      5  N   UNL     1      -0.986  13.622  19.920  0.00  0.00    +0.000 N 
ENDROOT
BRANCH   1  10
ATOM      6  C   UNL     1      -3.747  10.255  14.752  0.00  0.00    +0.000 C 
ATOM      7  C   UNL     1      -3.322  10.422  16.184  0.00  0.00    +0.000 A 
ATOM      8  C   UNL     1      -2.319   9.661  16.747  0.00  0.00    +0.000 A 
ATOM      9  C   UNL     1      -1.764  10.018  18.017  0.00  0.00    +0.000 A 
ATOM     10  C   UNL     1      -1.985  11.283  18.616  0.00  0.00    +0.000 A 
ATOM     11  C   UNL     1      -3.187  11.866  18.184  0.00  0.00    +0.000 A 
ATOM     12  C   UNL     1      -3.856  11.440  17.003  0.00  0.00    +0.000 A 
ENDBRANCH   1  10
BRANCH   3  13
ATOM     13  C   UNL     1       0.990  11.865  20.063  0.00  0.00    +0.000 A 
ATOM     14  C   UNL     1       0.599  10.168  20.717  0.00  0.00    +0.000 A 
ATOM     15  C   UNL     1       1.144   8.955  20.233  0.00  0.00    +0.000 A 
ATOM     16  C   UNL     1       1.638   8.917  18.899  0.00  0.00    +0.000 A 
ATOM     17  C   UNL     1       1.917  10.031  18.022  0.00  0.00    +0.000 A 
ATOM     18  C   UNL     1       1.861  11.378  18.480  0.00  0.00    +0.000 A 
BRANCH  16  19
ATOM     19  O   UNL     1       2.127   7.684  18.540  0.00  0.00    +0.000 OA
BRANCH  19  20
ATOM     20  C   UNL     1       2.439   6.817  19.619  0.00  0.00    +0.000 C 
BRANCH  20  21
ATOM     21  C   UNL     1       2.884   5.540  18.958  0.00  0.00    +0.000 A 
ATOM     22  C   UNL     1       4.149   4.996  19.232  0.00  0.00    +0.000 A 
ATOM     23  C   UNL     1       4.556   3.799  18.645  0.00  0.00    +0.000 A 
ATOM     24  C   UNL     1       3.710   3.133  17.763  0.00  0.00    +0.000 A 
ATOM     25  C   UNL     1       2.468   3.706  17.433  0.00  0.00    +0.000 A 
ATOM     26  C   UNL     1       2.067   4.901  18.026  0.00  0.00    +0.000 A 
ENDBRANCH  20  21
ENDBRANCH  19  20
ENDBRANCH  16  19
ENDBRANCH   3  13
BRANCH   5  27
ATOM     27  C   UNL     1      -1.933  13.672  20.981  0.00  0.00    +0.000 A 
ATOM     28  C   UNL     1      -2.934  14.649  21.073  0.00  0.00    +0.000 A 
ATOM     29  C   UNL     1      -4.007  14.515  21.978  0.00  0.00    +0.000 A 
ATOM     30  C   UNL     1      -4.094  13.374  22.779  0.00  0.00    +0.000 A 
ATOM     31  C   UNL     1      -3.030  12.483  22.845  0.00  0.00    +0.000 A 
ATOM     32  C   UNL     1      -1.961  12.640  21.948  0.00  0.00    +0.000 A 
BRANCH  30  33
ATOM     33  S   UNL     1      -5.635  12.946  23.561  0.00  0.00    +0.000 S 
ATOM     34  O   UNL     1      -5.401  11.944  24.581  0.00  0.00    +0.000 OA
ATOM     35  O   UNL     1      -6.347  14.148  23.813  0.00  0.00    +0.000 OA
BRANCH  33  36
ATOM     36  N   UNL     1      -6.437  12.145  22.296  0.00  0.00    +0.000 NA
ATOM     37  H   UNL     1      -7.359  12.522  22.185  0.00  0.00    +0.000 HD
ATOM     38  H   UNL     1      -5.846  12.164  21.474  0.00  0.00    +0.000 HD
ENDBRANCH  33  36
ENDBRANCH  30  33
ENDBRANCH   5  27
TORSDOF 8
ENDMDL
MODEL 4
REMARK VINA RESULT:      -8.9      1.038      1.366
REMARK  Name = 
REMARK  9 active torsions:
REMARK  status: ('A' for Active; 'I' for Inactive)
REMARK    1  A    between atoms: C_1  and  C_2
REMARK    2  A    between atoms: C_5  and  C_6
REMARK    3  A    between atoms: C_8  and  C_9
REMARK    4  A    between atoms: C_12  and  O_13
REMARK    5  A    between atoms: O_13  and  C_14
REMARK    6  A    between atoms: C_14  and  C_15
REMARK    7  A    between atoms: N_24  and  C_25
REMARK    8  A    between atoms: C_28  and  S_29
REMARK    9  A    between atoms: S_29  and  N_30
REMARK                            x       y       z     vdW  Elec       q    Type
REMARK                         _______ _______ _______ _____ _____    ______ ____
ROOT
ATOM      1  C   UNL     1      -1.162  12.457  19.422  0.00  0.00    +0.000 C 
ATOM      2  C   UNL     1       0.627  12.105  20.301  0.00  0.00    +0.000 C 
ATOM      3  C   UNL     1       0.929  13.593  20.345  0.00  0.00    +0.000 C 
ATOM      4  N   UNL     1      -0.048  14.467  20.235  0.00  0.00    +0.000 NA
ATOM      5  N   UNL     1      -1.397  13.798  19.995  0.00  0.00    +0.000 N 
ENDROOT
BRANCH   1  10
ATOM      6  C   UNL     1      -3.776  10.213  14.794  0.00  0.00    +0.000 C 
ATOM      7  C   UNL     1      -3.423  10.423  16.241  0.00  0.00    +0.000 A 
ATOM      8  C   UNL     1      -2.413   9.719  16.860  0.00  0.00    +0.000 A 
ATOM      9  C   UNL     1      -1.931  10.122  18.146  0.00  0.00    +0.000 A 
ATOM     10  C   UNL     1      -2.235  11.386  18.711  0.00  0.00    +0.000 A 
ATOM     11  C   UNL     1      -3.442  11.905  18.217  0.00  0.00    +0.000 A 
ATOM     12  C   UNL     1      -4.038  11.430  17.016  0.00  0.00    +0.000 A 
ENDBRANCH   1  10
BRANCH   3  13
ATOM     13  C   UNL     1       0.630  12.123  20.302  0.00  0.00    +0.000 A 
ATOM     14  C   UNL     1       0.252  10.434  20.985  0.00  0.00    +0.000 A 
ATOM     15  C   UNL     1       0.875   9.228  20.586  0.00  0.00    +0.000 A 
ATOM     16  C   UNL     1       1.467   9.165  19.294  0.00  0.00    +0.000 A 
ATOM     17  C   UNL     1       1.771  10.259  18.401  0.00  0.00    +0.000 A 
ATOM     18  C   UNL     1       1.633  11.618  18.805  0.00  0.00    +0.000 A 
BRANCH  16  19
ATOM     19  O   UNL     1       2.025   7.940  19.015  0.00  0.00    +0.000 OA
BRANCH  19  20
ATOM     20  C   UNL     1       2.902   7.913  17.899  0.00  0.00    +0.000 C 
BRANCH  20  21
ATOM     21  C   UNL     1       3.188   6.452  17.682  0.00  0.00    +0.000 A 
ATOM     22  C   UNL     1       4.410   6.036  17.129  0.00  0.00    +0.000 A 
ATOM     23  C   UNL     1       4.692   4.683  16.952  0.00  0.00    +0.000 A 
ATOM     24  C   UNL     1       3.752   3.722  17.311  0.00  0.00    +0.000 A 
ATOM     25  C   UNL     1       2.500   4.133  17.805  0.00  0.00    +0.000 A 
ATOM     26  C   UNL     1       2.225   5.487  17.982  0.00  0.00    +0.000 A 
ENDBRANCH  20  21
ENDBRANCH  19  20
ENDBRANCH  16  19
ENDBRANCH   3  13
BRANCH   5  27
ATOM     27  C   UNL     1      -2.403  13.843  21.001  0.00  0.00    +0.000 A 
ATOM     28  C   UNL     1      -3.550  14.643  20.905  0.00  0.00    +0.000 A 
ATOM     29  C   UNL     1      -4.642  14.465  21.779  0.00  0.00    +0.000 A 
ATOM     30  C   UNL     1      -4.597  13.452  22.740  0.00  0.00    +0.000 A 
ATOM     31  C   UNL     1      -3.412  12.768  22.981  0.00  0.00    +0.000 A 
ATOM     32  C   UNL     1      -2.328  12.970  22.110  0.00  0.00    +0.000 A 
BRANCH  30  33
ATOM     33  S   UNL     1      -6.096  12.892  23.520  0.00  0.00    +0.000 S 
ATOM     34  O   UNL     1      -6.809  14.026  24.073  0.00  0.00    +0.000 OA
ATOM     35  O   UNL     1      -6.709  11.944  22.660  0.00  0.00    +0.000 OA
BRANCH  33  36
ATOM     36  N   UNL     1      -5.479  12.036  24.849  0.00  0.00    +0.000 NA
ATOM     37  H   UNL     1      -4.606  12.437  25.137  0.00  0.00    +0.000 HD
ATOM     38  H   UNL     1      -6.198  11.976  25.559  0.00  0.00    +0.000 HD
ENDBRANCH  33  36
ENDBRANCH  30  33
ENDBRANCH   5  27
TORSDOF 8
ENDMDL
MODEL 5
REMARK VINA RESULT:      -8.9      1.233      1.710
REMARK  Name = 
REMARK  9 active torsions:
REMARK  status: ('A' for Active; 'I' for Inactive)
REMARK    1  A    between atoms: C_1  and  C_2
REMARK    2  A    between atoms: C_5  and  C_6
REMARK    3  A    between atoms: C_8  and  C_9
REMARK    4  A    between atoms: C_12  and  O_13
REMARK    5  A    between atoms: O_13  and  C_14
REMARK    6  A    between atoms: C_14  and  C_15
REMARK    7  A    between atoms: N_24  and  C_25
REMARK    8  A    between atoms: C_28  and  S_29
REMARK    9  A    between atoms: S_29  and  N_30
REMARK                            x       y       z     vdW  Elec       q    Type
REMARK                         _______ _______ _______ _____ _____    ______ ____
ROOT
ATOM      1  C   UNL     1      -0.892  12.248  19.341  0.00  0.00    +0.000 C 
ATOM      2  C   UNL     1       0.914  11.799  20.136  0.00  0.00    +0.000 C 
ATOM      3  C   UNL     1       1.266  13.274  20.239  0.00  0.00    +0.000 C 
ATOM      4  N   UNL     1       0.314  14.181  20.207  0.00  0.00    +0.000 NA
ATOM      5  N   UNL     1      -1.063  13.566  19.985  0.00  0.00    +0.000 N 
ENDROOT
BRANCH   1  10
ATOM      6  C   UNL     1      -3.754  10.326  14.715  0.00  0.00    +0.000 C 
ATOM      7  C   UNL     1      -3.337  10.449  16.155  0.00  0.00    +0.000 A 
ATOM      8  C   UNL     1      -2.324   9.685  16.694  0.00  0.00    +0.000 A 
ATOM      9  C   UNL     1      -1.780  10.005  17.979  0.00  0.00    +0.000 A 
ATOM     10  C   UNL     1      -2.024  11.245  18.621  0.00  0.00    +0.000 A 
ATOM     11  C   UNL     1      -3.233  11.824  18.205  0.00  0.00    +0.000 A 
ATOM     12  C   UNL     1      -3.891  11.429  17.007  0.00  0.00    +0.000 A 
ENDBRANCH   1  10
BRANCH   3  13
ATOM     13  C   UNL     1       0.919  11.816  20.137  0.00  0.00    +0.000 A 
ATOM     14  C   UNL     1       0.526  10.105  20.753  0.00  0.00    +0.000 A 
ATOM     15  C   UNL     1       1.086   8.905  20.257  0.00  0.00    +0.000 A 
ATOM     16  C   UNL     1       1.602   8.894  18.932  0.00  0.00    +0.000 A 
ATOM     17  C   UNL     1       1.891  10.024  18.080  0.00  0.00    +0.000 A 
ATOM     18  C   UNL     1       1.819  11.363  18.561  0.00  0.00    +0.000 A 
BRANCH  16  19
ATOM     19  O   UNL     1       2.104   7.670  18.558  0.00  0.00    +0.000 OA
BRANCH  19  20
ATOM     20  C   UNL     1       3.319   7.711  17.825  0.00  0.00    +0.000 C 
BRANCH  20  21
ATOM     21  C   UNL     1       3.654   6.266  17.573  0.00  0.00    +0.000 A 
ATOM     22  C   UNL     1       2.852   5.242  18.102  0.00  0.00    +0.000 A 
ATOM     23  C   UNL     1       3.141   3.902  17.848  0.00  0.00    +0.000 A 
ATOM     24  C   UNL     1       4.245   3.562  17.072  0.00  0.00    +0.000 A 
ATOM     25  C   UNL     1       5.092   4.580  16.594  0.00  0.00    +0.000 A 
ATOM     26  C   UNL     1       4.795   5.917  16.849  0.00  0.00    +0.000 A 
ENDBRANCH  20  21
ENDBRANCH  19  20
ENDBRANCH  16  19
ENDBRANCH   3  13
BRANCH   5  27
ATOM     27  C   UNL     1      -2.031  13.593  21.029  0.00  0.00    +0.000 A 
ATOM     28  C   UNL     1      -3.122  14.473  21.043  0.00  0.00    +0.000 A 
ATOM     29  C   UNL     1      -4.195  14.295  21.940  0.00  0.00    +0.000 A 
ATOM     30  C   UNL     1      -4.189  13.204  22.812  0.00  0.00    +0.000 A 
ATOM     31  C   UNL     1      -3.048  12.424  22.950  0.00  0.00    +0.000 A 
ATOM     32  C   UNL     1      -1.981  12.626  22.059  0.00  0.00    +0.000 A 
BRANCH  30  33
ATOM     33  S   UNL     1      -5.699  12.681  23.599  0.00  0.00    +0.000 S 
ATOM     34  O   UNL     1      -6.649  12.254  22.592  0.00  0.00    +0.000 OA
ATOM     35  O   UNL     1      -5.354  11.881  24.719  0.00  0.00    +0.000 OA
BRANCH  33  36
ATOM     36  N   UNL     1      -6.287  14.156  24.200  0.00  0.00    +0.000 NA
ATOM     37  H   UNL     1      -6.951  13.985  24.931  0.00  0.00    +0.000 HD
ATOM     38  H   UNL     1      -5.500  14.745  24.442  0.00  0.00    +0.000 HD
ENDBRANCH  33  36
ENDBRANCH  30  33
ENDBRANCH   5  27
TORSDOF 8
ENDMDL
MODEL 6
REMARK VINA RESULT:      -8.6      1.167      1.405
REMARK  Name = 
REMARK  9 active torsions:
REMARK  status: ('A' for Active; 'I' for Inactive)
REMARK    1  A    between atoms: C_1  and  C_2
REMARK    2  A    between atoms: C_5  and  C_6
REMARK    3  A    between atoms: C_8  and  C_9
REMARK    4  A    between atoms: C_12  and  O_13
REMARK    5  A    between atoms: O_13  and  C_14
REMARK    6  A    between atoms: C_14  and  C_15
REMARK    7  A    between atoms: N_24  and  C_25
REMARK    8  A    between atoms: C_28  and  S_29
REMARK    9  A    between atoms: S_29  and  N_30
REMARK                            x       y       z     vdW  Elec       q    Type
REMARK                         _______ _______ _______ _____ _____    ______ ____
ROOT
ATOM      1  C   UNL     1      -0.626  12.085  18.812  0.00  0.00    +0.000 C 
ATOM      2  C   UNL     1       1.168  11.624  19.628  0.00  0.00    +0.000 C 
ATOM      3  C   UNL     1       1.574  13.088  19.630  0.00  0.00    +0.000 C 
ATOM      4  N   UNL     1       0.655  14.025  19.542  0.00  0.00    +0.000 NA
ATOM      5  N   UNL     1      -0.745  13.448  19.367  0.00  0.00    +0.000 N 
ENDROOT
BRANCH   1  10
ATOM      6  C   UNL     1      -3.794  10.177  14.385  0.00  0.00    +0.000 C 
ATOM      7  C   UNL     1      -3.277  10.291  15.792  0.00  0.00    +0.000 A 
ATOM      8  C   UNL     1      -2.222   9.532  16.251  0.00  0.00    +0.000 A 
ATOM      9  C   UNL     1      -1.591   9.846  17.496  0.00  0.00    +0.000 A 
ATOM     10  C   UNL     1      -1.798  11.078  18.165  0.00  0.00    +0.000 A 
ATOM     11  C   UNL     1      -3.039  11.650  17.842  0.00  0.00    +0.000 A 
ATOM     12  C   UNL     1      -3.777  11.260  16.690  0.00  0.00    +0.000 A 
ENDBRANCH   1  10
BRANCH   3  13
ATOM     13  C   UNL     1       1.173  11.641  19.628  0.00  0.00    +0.000 A 
ATOM     14  C   UNL     1       0.690  10.000  20.358  0.00  0.00    +0.000 A 
ATOM     15  C   UNL     1       1.221   8.744  19.979  0.00  0.00    +0.000 A 
ATOM     16  C   UNL     1       1.785   8.610  18.680  0.00  0.00    +0.000 A 
ATOM     17  C   UNL     1       2.149   9.658  17.756  0.00  0.00    +0.000 A 
ATOM     18  C   UNL     1       2.113  11.033  18.129  0.00  0.00    +0.000 A 
BRANCH  16  19
ATOM     19  O   UNL     1       2.252   7.343  18.423  0.00  0.00    +0.000 OA
BRANCH  19  20
ATOM     20  C   UNL     1       2.729   6.631  19.554  0.00  0.00    +0.000 C 
BRANCH  20  21
ATOM     21  C   UNL     1       2.096   5.271  19.437  0.00  0.00    +0.000 A 
ATOM     22  C   UNL     1       2.003   4.629  18.191  0.00  0.00    +0.000 A 
ATOM     23  C   UNL     1       1.444   3.357  18.080  0.00  0.00    +0.000 A 
ATOM     24  C   UNL     1       0.953   2.712  19.211  0.00  0.00    +0.000 A 
ATOM     25  C   UNL     1       0.981   3.375  20.452  0.00  0.00    +0.000 A 
ATOM     26  C   UNL     1       1.545   4.645  20.556  0.00  0.00    +0.000 A 
ENDBRANCH  20  21
ENDBRANCH  19  20
ENDBRANCH  16  19
ENDBRANCH   3  13
BRANCH   5  27
ATOM     27  C   UNL     1      -1.704  13.580  20.411  0.00  0.00    +0.000 A 
ATOM     28  C   UNL     1      -2.061  12.527  21.264  0.00  0.00    +0.000 A 
ATOM     29  C   UNL     1      -2.803  12.757  22.441  0.00  0.00    +0.000 A 
ATOM     30  C   UNL     1      -3.167  14.062  22.781  0.00  0.00    +0.000 A 
ATOM     31  C   UNL     1      -2.991  15.097  21.872  0.00  0.00    +0.000 A 
ATOM     32  C   UNL     1      -2.263  14.847  20.697  0.00  0.00    +0.000 A 
BRANCH  30  33
ATOM     33  S   UNL     1      -3.667  14.445  24.447  0.00  0.00    +0.000 S 
ATOM     34  O   UNL     1      -4.575  15.574  24.434  0.00  0.00    +0.000 OA
ATOM     35  O   UNL     1      -3.968  13.224  25.105  0.00  0.00    +0.000 OA
BRANCH  33  36
ATOM     36  N   UNL     1      -2.213  15.022  25.105  0.00  0.00    +0.000 NA
ATOM     37  H   UNL     1      -2.407  15.666  25.849  0.00  0.00    +0.000 HD
ATOM     38  H   UNL     1      -1.627  14.231  25.343  0.00  0.00    +0.000 HD
ENDBRANCH  33  36
ENDBRANCH  30  33
ENDBRANCH   5  27
TORSDOF 8
ENDMDL
MODEL 7
REMARK VINA RESULT:      -8.6      1.408      1.913
REMARK  Name = 
REMARK  9 active torsions:
REMARK  status: ('A' for Active; 'I' for Inactive)
REMARK    1  A    between atoms: C_1  and  C_2
REMARK    2  A    between atoms: C_5  and  C_6
REMARK    3  A    between atoms: C_8  and  C_9
REMARK    4  A    between atoms: C_12  and  O_13
REMARK    5  A    between atoms: O_13  and  C_14
REMARK    6  A    between atoms: C_14  and  C_15
REMARK    7  A    between atoms: N_24  and  C_25
REMARK    8  A    between atoms: C_28  and  S_29
REMARK    9  A    between atoms: S_29  and  N_30
REMARK                            x       y       z     vdW  Elec       q    Type
REMARK                         _______ _______ _______ _____ _____    ______ ____
ROOT
ATOM      1  C   UNL     1      -1.296  11.975  18.899  0.00  0.00    +0.000 C 
ATOM      2  C   UNL     1       0.567  11.772  19.663  0.00  0.00    +0.000 C 
ATOM      3  C   UNL     1       0.605  13.246  20.032  0.00  0.00    +0.000 C 
ATOM      4  N   UNL     1      -0.514  13.930  20.126  0.00  0.00    +0.000 NA
ATOM      5  N   UNL     1      -1.735  13.095  19.756  0.00  0.00    +0.000 N 
ENDROOT
BRANCH   1  10
ATOM      6  C   UNL     1      -3.409  10.157  13.848  0.00  0.00    +0.000 C 
ATOM      7  C   UNL     1      -3.149  10.190  15.329  0.00  0.00    +0.000 A 
ATOM      8  C   UNL     1      -2.089   9.521  15.903  0.00  0.00    +0.000 A 
ATOM      9  C   UNL     1      -1.718   9.782  17.261  0.00  0.00    +0.000 A 
ATOM     10  C   UNL     1      -2.199  10.905  17.979  0.00  0.00    +0.000 A 
ATOM     11  C   UNL     1      -3.436  11.351  17.490  0.00  0.00    +0.000 A 
ATOM     12  C   UNL     1      -3.916  10.994  16.200  0.00  0.00    +0.000 A 
ENDBRANCH   1  10
BRANCH   3  13
ATOM     13  C   UNL     1       0.567  11.790  19.668  0.00  0.00    +0.000 A 
ATOM     14  C   UNL     1       0.400   9.959  19.956  0.00  0.00    +0.000 A 
ATOM     15  C   UNL     1       1.261   8.964  19.437  0.00  0.00    +0.000 A 
ATOM     16  C   UNL     1       2.008   9.258  18.263  0.00  0.00    +0.000 A 
ATOM     17  C   UNL     1       2.230  10.547  17.648  0.00  0.00    +0.000 A 
ATOM     18  C   UNL     1       1.816  11.757  18.275  0.00  0.00    +0.000 A 
BRANCH  16  19
ATOM     19  O   UNL     1       2.796   8.210  17.848  0.00  0.00    +0.000 OA
BRANCH  19  20
ATOM     20  C   UNL     1       2.685   7.025  18.621  0.00  0.00    +0.000 C 
BRANCH  20  21
ATOM     21  C   UNL     1       3.435   5.989  17.828  0.00  0.00    +0.000 A 
ATOM     22  C   UNL     1       4.564   6.343  17.073  0.00  0.00    +0.000 A 
ATOM     23  C   UNL     1       5.279   5.383  16.359  0.00  0.00    +0.000 A 
ATOM     24  C   UNL     1       4.868   4.053  16.377  0.00  0.00    +0.000 A 
ATOM     25  C   UNL     1       3.700   3.701  17.077  0.00  0.00    +0.000 A 
ATOM     26  C   UNL     1       2.992   4.666  17.791  0.00  0.00    +0.000 A 
ENDBRANCH  20  21
ENDBRANCH  19  20
ENDBRANCH  16  19
ENDBRANCH   3  13
BRANCH   5  27
ATOM     27  C   UNL     1      -2.684  12.739  20.756  0.00  0.00    +0.000 A 
ATOM     28  C   UNL     1      -2.324  12.366  22.058  0.00  0.00    +0.000 A 
ATOM     29  C   UNL     1      -3.285  12.281  23.087  0.00  0.00    +0.000 A 
ATOM     30  C   UNL     1      -4.616  12.602  22.814  0.00  0.00    +0.000 A 
ATOM     31  C   UNL     1      -5.035  12.794  21.504  0.00  0.00    +0.000 A 
ATOM     32  C   UNL     1      -4.067  12.860  20.488  0.00  0.00    +0.000 A 
BRANCH  30  33
ATOM     33  S   UNL     1      -5.739  12.965  24.147  0.00  0.00    +0.000 S 
ATOM     34  O   UNL     1      -5.837  14.400  24.323  0.00  0.00    +0.000 OA
ATOM     35  O   UNL     1      -6.877  12.130  24.001  0.00  0.00    +0.000 OA
BRANCH  33  36
ATOM     36  N   UNL     1      -4.864  12.389  25.484  0.00  0.00    +0.000 NA
ATOM     37  H   UNL     1      -4.309  11.599  25.212  0.00  0.00    +0.000 HD
ATOM     38  H   UNL     1      -4.363  13.163  25.901  0.00  0.00    +0.000 HD
ENDBRANCH  33  36
ENDBRANCH  30  33
ENDBRANCH   5  27
TORSDOF 8
ENDMDL
MODEL 8
REMARK VINA RESULT:      -8.4      1.184      1.634
REMARK  Name = 
REMARK  9 active torsions:
REMARK  status: ('A' for Active; 'I' for Inactive)
REMARK    1  A    between atoms: C_1  and  C_2
REMARK    2  A    between atoms: C_5  and  C_6
REMARK    3  A    between atoms: C_8  and  C_9
REMARK    4  A    between atoms: C_12  and  O_13
REMARK    5  A    between atoms: O_13  and  C_14
REMARK    6  A    between atoms: C_14  and  C_15
REMARK    7  A    between atoms: N_24  and  C_25
REMARK    8  A    between atoms: C_28  and  S_29
REMARK    9  A    between atoms: S_29  and  N_30
REMARK                            x       y       z     vdW  Elec       q    Type
REMARK                         _______ _______ _______ _____ _____    ______ ____
ROOT
ATOM      1  C   UNL     1      -0.690  12.129  18.903  0.00  0.00    +0.000 C 
ATOM      2  C   UNL     1       1.107  11.700  19.731  0.00  0.00    +0.000 C 
ATOM      3  C   UNL     1       1.479  13.173  19.755  0.00  0.00    +0.000 C 
ATOM      4  N   UNL     1       0.539  14.090  19.669  0.00  0.00    +0.000 NA
ATOM      5  N   UNL     1      -0.846  13.483  19.474  0.00  0.00    +0.000 N 
ENDROOT
BRANCH   1  10
ATOM      6  C   UNL     1      -3.760  10.194  14.419  0.00  0.00    +0.000 C 
ATOM      7  C   UNL     1      -3.264  10.308  15.834  0.00  0.00    +0.000 A 
ATOM      8  C   UNL     1      -2.200   9.566  16.301  0.00  0.00    +0.000 A 
ATOM      9  C   UNL     1      -1.591   9.883  17.556  0.00  0.00    +0.000 A 
ATOM     10  C   UNL     1      -1.833  11.105  18.233  0.00  0.00    +0.000 A 
ATOM     11  C   UNL     1      -3.080  11.653  17.898  0.00  0.00    +0.000 A 
ATOM     12  C   UNL     1      -3.795  11.258  16.733  0.00  0.00    +0.000 A 
ENDBRANCH   1  10
BRANCH   3  13
ATOM     13  C   UNL     1       1.111  11.717  19.731  0.00  0.00    +0.000 A 
ATOM     14  C   UNL     1       0.673  10.053  20.437  0.00  0.00    +0.000 A 
ATOM     15  C   UNL     1       1.229   8.816  20.032  0.00  0.00    +0.000 A 
ATOM     16  C   UNL     1       1.785   8.718  18.726  0.00  0.00    +0.000 A 
ATOM     17  C   UNL     1       2.117   9.790  17.817  0.00  0.00    +0.000 A 
ATOM     18  C   UNL     1       2.052  11.157  18.214  0.00  0.00    +0.000 A 
BRANCH  16  19
ATOM     19  O   UNL     1       2.279   7.466  18.443  0.00  0.00    +0.000 OA
BRANCH  19  20
ATOM     20  C   UNL     1       2.396   6.594  19.557  0.00  0.00    +0.000 C 
BRANCH  20  21
ATOM     21  C   UNL     1       2.806   5.276  18.959  0.00  0.00    +0.000 A 
ATOM     22  C   UNL     1       2.017   4.659  17.975  0.00  0.00    +0.000 A 
ATOM     23  C   UNL     1       2.406   3.452  17.397  0.00  0.00    +0.000 A 
ATOM     24  C   UNL     1       3.584   2.833  17.804  0.00  0.00    +0.000 A 
ATOM     25  C   UNL     1       4.346   3.410  18.837  0.00  0.00    +0.000 A 
ATOM     26  C   UNL     1       3.953   4.618  19.407  0.00  0.00    +0.000 A 
ENDBRANCH  20  21
ENDBRANCH  19  20
ENDBRANCH  16  19
ENDBRANCH   3  13
BRANCH   5  27
ATOM     27  C   UNL     1      -1.818  13.579  20.510  0.00  0.00    +0.000 A 
ATOM     28  C   UNL     1      -2.072  12.547  21.424  0.00  0.00    +0.000 A 
ATOM     29  C   UNL     1      -2.838  12.771  22.586  0.00  0.00    +0.000 A 
ATOM     30  C   UNL     1      -3.330  14.051  22.851  0.00  0.00    +0.000 A 
ATOM     31  C   UNL     1      -3.253  15.044  21.883  0.00  0.00    +0.000 A 
ATOM     32  C   UNL     1      -2.500  14.800  20.723  0.00  0.00    +0.000 A 
BRANCH  30  33
ATOM     33  S   UNL     1      -3.872  14.477  24.493  0.00  0.00    +0.000 S 
ATOM     34  O   UNL     1      -2.725  14.820  25.310  0.00  0.00    +0.000 OA
ATOM     35  O   UNL     1      -5.009  15.319  24.373  0.00  0.00    +0.000 OA
BRANCH  33  36
ATOM     36  N   UNL     1      -4.419  12.974  25.062  0.00  0.00    +0.000 NA
ATOM     37  H   UNL     1      -4.934  12.504  24.341  0.00  0.00    +0.000 HD
ATOM     38  H   UNL     1      -3.633  12.469  25.449  0.00  0.00    +0.000 HD
ENDBRANCH  33  36
ENDBRANCH  30  33
ENDBRANCH   5  27
TORSDOF 8
ENDMDL
MODEL 9
REMARK VINA RESULT:      -8.2      1.158      1.369
REMARK  Name = 
REMARK  9 active torsions:
REMARK  status: ('A' for Active; 'I' for Inactive)
REMARK    1  A    between atoms: C_1  and  C_2
REMARK    2  A    between atoms: C_5  and  C_6
REMARK    3  A    between atoms: C_8  and  C_9
REMARK    4  A    between atoms: C_12  and  O_13
REMARK    5  A    between atoms: O_13  and  C_14
REMARK    6  A    between atoms: C_14  and  C_15
REMARK    7  A    between atoms: N_24  and  C_25
REMARK    8  A    between atoms: C_28  and  S_29
REMARK    9  A    between atoms: S_29  and  N_30
REMARK                            x       y       z     vdW  Elec       q    Type
REMARK                         _______ _______ _______ _____ _____    ______ ____
ROOT
ATOM      1  C   UNL     1      -0.514  12.576  19.005  0.00  0.00    +0.000 C 
ATOM      2  C   UNL     1       1.346  11.940  19.487  0.00  0.00    +0.000 C 
ATOM      3  C   UNL     1       1.883  13.360  19.398  0.00  0.00    +0.000 C 
ATOM      4  N   UNL     1       1.057  14.381  19.467  0.00  0.00    +0.000 NA
ATOM      5  N   UNL     1      -0.401  13.942  19.557  0.00  0.00    +0.000 N 
ENDROOT
BRANCH   1  10
ATOM      6  C   UNL     1      -5.927  12.208  17.042  0.00  0.00    +0.000 C 
ATOM      7  C   UNL     1      -4.600  11.758  17.587  0.00  0.00    +0.000 A 
ATOM      8  C   UNL     1      -3.552  11.398  16.767  0.00  0.00    +0.000 A 
ATOM      9  C   UNL     1      -2.236  11.229  17.303  0.00  0.00    +0.000 A 
ATOM     10  C   UNL     1      -1.876  11.690  18.594  0.00  0.00    +0.000 A 
ATOM     11  C   UNL     1      -2.982  11.761  19.454  0.00  0.00    +0.000 A 
ATOM     12  C   UNL     1      -4.320  11.780  18.971  0.00  0.00    +0.000 A 
ENDBRANCH   1  10
BRANCH   3  13
ATOM     13  C   UNL     1       1.352  11.958  19.486  0.00  0.00    +0.000 A 
ATOM     14  C   UNL     1       0.717  10.419  20.317  0.00  0.00    +0.000 A 
ATOM     15  C   UNL     1       1.134   9.098  20.028  0.00  0.00    +0.000 A 
ATOM     16  C   UNL     1       1.693   8.827  18.748  0.00  0.00    +0.000 A 
ATOM     17  C   UNL     1       2.157   9.774  17.761  0.00  0.00    +0.000 A 
ATOM     18  C   UNL     1       2.243  11.168  18.042  0.00  0.00    +0.000 A 
BRANCH  16  19
ATOM     19  O   UNL     1       2.044   7.508  18.581  0.00  0.00    +0.000 OA
BRANCH  19  20
ATOM     20  C   UNL     1       2.372   6.812  19.773  0.00  0.00    +0.000 C 
BRANCH  20  21
ATOM     21  C   UNL     1       1.903   5.404  19.527  0.00  0.00    +0.000 A 
ATOM     22  C   UNL     1       1.871   4.877  18.225  0.00  0.00    +0.000 A 
ATOM     23  C   UNL     1       1.464   3.565  17.993  0.00  0.00    +0.000 A 
ATOM     24  C   UNL     1       1.069   2.760  19.057  0.00  0.00    +0.000 A 
ATOM     25  C   UNL     1       1.035   3.300  20.356  0.00  0.00    +0.000 A 
ATOM     26  C   UNL     1       1.446   4.612  20.581  0.00  0.00    +0.000 A 
ENDBRANCH  20  21
ENDBRANCH  19  20
ENDBRANCH  16  19
ENDBRANCH   3  13
BRANCH   5  27
ATOM     27  C   UNL     1      -1.137  14.159  20.755  0.00  0.00    +0.000 A 
ATOM     28  C   UNL     1      -2.279  14.968  20.819  0.00  0.00    +0.000 A 
ATOM     29  C   UNL     1      -3.129  14.948  21.944  0.00  0.00    +0.000 A 
ATOM     30  C   UNL     1      -2.848  14.084  23.004  0.00  0.00    +0.000 A 
ATOM     31  C   UNL     1      -1.635  13.409  23.053  0.00  0.00    +0.000 A 
ATOM     32  C   UNL     1      -0.792  13.453  21.930  0.00  0.00    +0.000 A 
BRANCH  30  33
ATOM     33  S   UNL     1      -4.113  13.684  24.191  0.00  0.00    +0.000 S 
ATOM     34  O   UNL     1      -5.311  14.447  23.901  0.00  0.00    +0.000 OA
ATOM     35  O   UNL     1      -4.123  12.275  24.363  0.00  0.00    +0.000 OA
BRANCH  33  36
ATOM     36  N   UNL     1      -3.463  14.356  25.608  0.00  0.00    +0.000 NA
ATOM     37  H   UNL     1      -3.902  13.947  26.411  0.00  0.00    +0.000 HD
ATOM     38  H   UNL     1      -2.454  14.285  25.567  0.00  0.00    +0.000 HD
ENDBRANCH  33  36
ENDBRANCH  30  33
ENDBRANCH   5  27
TORSDOF 8
ENDMDL
