MODEL 1
REMARK VINA RESULT:      -7.9      0.000      0.000
REMARK  Name = 
REMARK  4 active torsions:
REMARK  status: ('A' for Active; 'I' for Inactive)
REMARK    1  A    between atoms: C_1  and  C_2
REMARK    2  A    between atoms: C_4  and  C_5
REMARK    3  A    between atoms: C_5  and  N_6
REMARK    4  A    between atoms: C_14  and  C_15
REMARK                            x       y       z     vdW  Elec       q    Type
REMARK                         _______ _______ _______ _____ _____    ______ ____
ROOT
ATOM      1  N   UNL     1       2.735   6.103  18.395  0.00  0.00    +0.000 NA
ATOM      2  C   UNL     1       2.348   5.888  19.801  0.00  0.00    +0.000 C 
ATOM      3  C   UNL     1       1.628   4.539  20.057  0.00  0.00    +0.000 C 
ATOM      4  C   UNL     1       2.326   3.483  19.303  0.00  0.00    +0.000 A 
ATOM      5  N   UNL     1       2.314   2.139  19.512  0.00  0.00    +0.000 N 
ATOM      6  C   UNL     1       3.151   1.588  18.578  0.00  0.00    +0.000 A 
ATOM      7  N   UNL     1       3.678   2.500  17.788  0.00  0.00    +0.000 NA
ATOM      8  C   UNL     1       3.184   3.703  18.247  0.00  0.00    +0.000 A 
ATOM      9  C   UNL     1       3.625   5.083  17.763  0.00  0.00    +0.000 C 
ATOM     10  H   UNL     1       1.817   1.637  20.236  0.00  0.00    +0.000 HD
ENDROOT
BRANCH   9  11
ATOM     11  C   UNL     1       5.097   5.281  18.053  0.00  0.00    +0.000 A 
ATOM     12  C   UNL     1       5.690   5.485  19.296  0.00  0.00    +0.000 A 
ATOM     13  C   UNL     1       7.072   5.627  19.118  0.00  0.00    +0.000 A 
ATOM     14  C   UNL     1       7.307   5.503  17.774  0.00  0.00    +0.000 A 
ATOM     15  N   UNL     1       6.129   5.175  17.104  0.00  0.00    +0.000 N 
ATOM     16  C   UNL     1       6.035   4.835  15.735  0.00  0.00    +0.000 A 
ATOM     17  N   UNL     1       4.910   4.627  15.080  0.00  0.00    +0.000 NA
ATOM     18  C   UNL     1       5.188   4.258  13.781  0.00  0.00    +0.000 A 
ATOM     19  C   UNL     1       6.522   4.209  13.443  0.00  0.00    +0.000 A 
ATOM     20  S   UNL     1       7.465   4.649  14.803  0.00  0.00    +0.000 S 
ENDBRANCH   9  11
BRANCH   1  21
ATOM     21  C   UNL     1       2.991   7.498  18.045  0.00  0.00    +0.000 C 
BRANCH  21  25
ATOM     22  C   UNL     1      -0.908  10.736  18.600  0.00  0.00    +0.000 C 
ATOM     23  C   UNL     1       0.296   9.894  18.779  0.00  0.00    +0.000 A 
ATOM     24  C   UNL     1       1.132   9.347  17.783  0.00  0.00    +0.000 A 
ATOM     25  C   UNL     1       1.994   8.523  18.469  0.00  0.00    +0.000 A 
ATOM     26  O   UNL     1       1.725   8.623  19.801  0.00  0.00    +0.000 OA
ATOM     27  N   UNL     1       0.672   9.500  20.001  0.00  0.00    +0.000 NA
ENDBRANCH  21  25
ENDBRANCH   1  21
TORSDOF 3
ENDMDL
MODEL 2
REMARK VINA RESULT:      -7.1      7.624     10.134
REMARK  Name = 
REMARK  4 active torsions:
REMARK  status: ('A' for Active; 'I' for Inactive)
REMARK    1  A    between atoms: C_1  and  C_2
REMARK    2  A    between atoms: C_4  and  C_5
REMARK    3  A    between atoms: C_5  and  N_6
REMARK    4  A    between atoms: C_14  and  C_15
REMARK                            x       y       z     vdW  Elec       q    Type
REMARK                         _______ _______ _______ _____ _____    ______ ____
ROOT
ATOM      1  N   UNL     1      -0.318  11.316  18.887  0.00  0.00    +0.000 NA
ATOM      2  C   UNL     1       0.999  10.783  18.495  0.00  0.00    +0.000 C 
ATOM      3  C   UNL     1       2.091  11.869  18.317  0.00  0.00    +0.000 C 
ATOM      4  C   UNL     1       1.973  12.839  19.420  0.00  0.00    +0.000 A 
ATOM      5  N   UNL     1       2.911  13.702  19.898  0.00  0.00    +0.000 N 
ATOM      6  C   UNL     1       2.338  14.359  20.954  0.00  0.00    +0.000 A 
ATOM      7  N   UNL     1       1.097  13.973  21.162  0.00  0.00    +0.000 NA
ATOM      8  C   UNL     1       0.860  12.999  20.216  0.00  0.00    +0.000 A 
ATOM      9  C   UNL     1      -0.388  12.120  20.144  0.00  0.00    +0.000 C 
ATOM     10  H   UNL     1       3.860  13.817  19.569  0.00  0.00    +0.000 HD
ENDROOT
BRANCH   9  11
ATOM     11  C   UNL     1      -0.505  11.291  21.404  0.00  0.00    +0.000 A 
ATOM     12  C   UNL     1       0.377  10.309  21.850  0.00  0.00    +0.000 A 
ATOM     13  C   UNL     1      -0.105   9.784  23.056  0.00  0.00    +0.000 A 
ATOM     14  C   UNL     1      -1.269  10.453  23.334  0.00  0.00    +0.000 A 
ATOM     15  N   UNL     1      -1.482  11.465  22.399  0.00  0.00    +0.000 N 
ATOM     16  C   UNL     1      -2.508  12.435  22.465  0.00  0.00    +0.000 A 
ATOM     17  N   UNL     1      -2.772  13.325  21.530  0.00  0.00    +0.000 NA
ATOM     18  C   UNL     1      -3.795  14.151  21.947  0.00  0.00    +0.000 A 
ATOM     19  C   UNL     1      -4.322  13.874  23.189  0.00  0.00    +0.000 A 
ATOM     20  S   UNL     1      -3.511  12.521  23.856  0.00  0.00    +0.000 S 
ENDBRANCH   9  11
BRANCH   1  21
ATOM     21  C   UNL     1      -1.437  10.413  18.628  0.00  0.00    +0.000 C 
BRANCH  21  25
ATOM     22  C   UNL     1      -3.896  10.031  14.178  0.00  0.00    +0.000 C 
ATOM     23  C   UNL     1      -3.337  10.468  15.476  0.00  0.00    +0.000 A 
ATOM     24  C   UNL     1      -2.193   9.978  16.141  0.00  0.00    +0.000 A 
ATOM     25  C   UNL     1      -2.212  10.601  17.367  0.00  0.00    +0.000 A 
ATOM     26  O   UNL     1      -3.272  11.457  17.404  0.00  0.00    +0.000 OA
ATOM     27  N   UNL     1      -3.969  11.391  16.209  0.00  0.00    +0.000 NA
ENDBRANCH  21  25
ENDBRANCH   1  21
TORSDOF 3
ENDMDL
MODEL 3
REMARK VINA RESULT:      -7.1      3.163      6.590
REMARK  Name = 
REMARK  4 active torsions:
REMARK  status: ('A' for Active; 'I' for Inactive)
REMARK    1  A    between atoms: C_1  and  C_2
REMARK    2  A    between atoms: C_4  and  C_5
REMARK    3  A    between atoms: C_5  and  N_6
REMARK    4  A    between atoms: C_14  and  C_15
REMARK                            x       y       z     vdW  Elec       q    Type
REMARK                         _______ _______ _______ _____ _____    ______ ____
ROOT
ATOM      1  N   UNL     1       3.575   2.280  19.982  0.00  0.00    +0.000 NA
ATOM      2  C   UNL     1       2.140   1.963  19.884  0.00  0.00    +0.000 C 
ATOM      3  C   UNL     1       1.230   2.897  20.723  0.00  0.00    +0.000 C 
ATOM      4  C   UNL     1       1.704   4.283  20.563  0.00  0.00    +0.000 A 
ATOM      5  N   UNL     1       1.024   5.443  20.771  0.00  0.00    +0.000 N 
ATOM      6  C   UNL     1       1.879   6.463  20.446  0.00  0.00    +0.000 A 
ATOM      7  N   UNL     1       3.056   6.016  20.059  0.00  0.00    +0.000 NA
ATOM      8  C   UNL     1       2.953   4.643  20.107  0.00  0.00    +0.000 A 
ATOM      9  C   UNL     1       4.004   3.658  19.596  0.00  0.00    +0.000 C 
ATOM     10  H   UNL     1       0.064   5.544  21.071  0.00  0.00    +0.000 HD
ENDROOT
BRANCH   9  11
ATOM     11  C   UNL     1       4.206   3.850  18.109  0.00  0.00    +0.000 A 
ATOM     12  C   UNL     1       3.341   3.471  17.086  0.00  0.00    +0.000 A 
ATOM     13  C   UNL     1       3.911   3.829  15.857  0.00  0.00    +0.000 A 
ATOM     14  C   UNL     1       5.111   4.425  16.144  0.00  0.00    +0.000 A 
ATOM     15  N   UNL     1       5.270   4.558  17.523  0.00  0.00    +0.000 N 
ATOM     16  C   UNL     1       6.323   5.253  18.160  0.00  0.00    +0.000 A 
ATOM     17  N   UNL     1       6.529   5.290  19.461  0.00  0.00    +0.000 NA
ATOM     18  C   UNL     1       7.605   6.107  19.740  0.00  0.00    +0.000 A 
ATOM     19  C   UNL     1       8.229   6.671  18.650  0.00  0.00    +0.000 A 
ATOM     20  S   UNL     1       7.443   6.152  17.220  0.00  0.00    +0.000 S 
ENDBRANCH   9  11
BRANCH   1  21
ATOM     21  C   UNL     1       4.464   1.188  19.590  0.00  0.00    +0.000 C 
BRANCH  21  25
ATOM     22  C   UNL     1       7.675  -1.579  22.424  0.00  0.00    +0.000 C 
ATOM     23  C   UNL     1       6.677  -0.612  21.916  0.00  0.00    +0.000 A 
ATOM     24  C   UNL     1       5.897  -0.699  20.743  0.00  0.00    +0.000 A 
ATOM     25  C   UNL     1       5.267   0.520  20.656  0.00  0.00    +0.000 A 
ATOM     26  O   UNL     1       5.605   1.265  21.746  0.00  0.00    +0.000 OA
ATOM     27  N   UNL     1       6.474   0.549  22.551  0.00  0.00    +0.000 NA
ENDBRANCH  21  25
ENDBRANCH   1  21
TORSDOF 3
ENDMDL
MODEL 4
REMARK VINA RESULT:      -7.0      7.362      9.956
REMARK  Name = 
REMARK  4 active torsions:
REMARK  status: ('A' for Active; 'I' for Inactive)
REMARK    1  A    between atoms: C_1  and  C_2
REMARK    2  A    between atoms: C_4  and  C_5
REMARK    3  A    between atoms: C_5  and  N_6
REMARK    4  A    between atoms: C_14  and  C_15
REMARK                            x       y       z     vdW  Elec       q    Type
REMARK                         _______ _______ _______ _____ _____    ______ ____
ROOT
ATOM      1  N   UNL     1      -0.011  11.104  18.691  0.00  0.00    +0.000 NA
ATOM      2  C   UNL     1       1.367  10.688  18.375  0.00  0.00    +0.000 C 
ATOM      3  C   UNL     1       2.357  11.868  18.197  0.00  0.00    +0.000 C 
ATOM      4  C   UNL     1       2.098  12.862  19.253  0.00  0.00    +0.000 A 
ATOM      5  N   UNL     1       2.927  13.829  19.733  0.00  0.00    +0.000 N 
ATOM      6  C   UNL     1       2.247  14.467  20.737  0.00  0.00    +0.000 A 
ATOM      7  N   UNL     1       1.041  13.969  20.910  0.00  0.00    +0.000 NA
ATOM      8  C   UNL     1       0.940  12.942  19.996  0.00  0.00    +0.000 A 
ATOM      9  C   UNL     1      -0.214  11.944  19.910  0.00  0.00    +0.000 C 
ATOM     10  H   UNL     1       3.874  14.024  19.438  0.00  0.00    +0.000 HD
ENDROOT
BRANCH   9  11
ATOM     11  C   UNL     1      -0.306  11.155  21.198  0.00  0.00    +0.000 A 
ATOM     12  C   UNL     1       0.591  10.198  21.664  0.00  0.00    +0.000 A 
ATOM     13  C   UNL     1       0.129   9.707  22.892  0.00  0.00    +0.000 A 
ATOM     14  C   UNL     1      -1.038  10.372  23.163  0.00  0.00    +0.000 A 
ATOM     15  N   UNL     1      -1.273  11.351  22.199  0.00  0.00    +0.000 N 
ATOM     16  C   UNL     1      -2.309  12.313  22.246  0.00  0.00    +0.000 A 
ATOM     17  N   UNL     1      -2.594  13.169  21.286  0.00  0.00    +0.000 NA
ATOM     18  C   UNL     1      -3.620  13.997  21.689  0.00  0.00    +0.000 A 
ATOM     19  C   UNL     1      -4.129  13.755  22.945  0.00  0.00    +0.000 A 
ATOM     20  S   UNL     1      -3.295  12.433  23.646  0.00  0.00    +0.000 S 
ENDBRANCH   9  11
BRANCH   1  21
ATOM     21  C   UNL     1      -1.026  10.088  18.424  0.00  0.00    +0.000 C 
BRANCH  21  25
ATOM     22  C   UNL     1      -5.432  12.210  16.983  0.00  0.00    +0.000 C 
ATOM     23  C   UNL     1      -4.166  11.450  17.070  0.00  0.00    +0.000 A 
ATOM     24  C   UNL     1      -3.478  11.033  18.230  0.00  0.00    +0.000 A 
ATOM     25  C   UNL     1      -2.292  10.518  17.762  0.00  0.00    +0.000 A 
ATOM     26  O   UNL     1      -2.301  10.569  16.401  0.00  0.00    +0.000 OA
ATOM     27  N   UNL     1      -3.486  11.135  15.962  0.00  0.00    +0.000 NA
ENDBRANCH  21  25
ENDBRANCH   1  21
TORSDOF 3
ENDMDL
MODEL 5
REMARK VINA RESULT:      -7.0      8.244     11.108
REMARK  Name = 
REMARK  4 active torsions:
REMARK  status: ('A' for Active; 'I' for Inactive)
REMARK    1  A    between atoms: C_1  and  C_2
REMARK    2  A    between atoms: C_4  and  C_5
REMARK    3  A    between atoms: C_5  and  N_6
REMARK    4  A    between atoms: C_14  and  C_15
REMARK                            x       y       z     vdW  Elec       q    Type
REMARK                         _______ _______ _______ _____ _____    ______ ____
ROOT
ATOM      1  N   UNL     1       9.963  11.939  18.645  0.00  0.00    +0.000 NA
ATOM      2  C   UNL     1      11.434  11.861  18.686  0.00  0.00    +0.000 C 
ATOM      3  C   UNL     1      12.137  12.613  17.527  0.00  0.00    +0.000 C 
ATOM      4  C   UNL     1      11.461  13.908  17.329  0.00  0.00    +0.000 A 
ATOM      5  N   UNL     1      11.938  15.033  16.730  0.00  0.00    +0.000 N 
ATOM      6  C   UNL     1      10.953  15.980  16.833  0.00  0.00    +0.000 A 
ATOM      7  N   UNL     1       9.885  15.517  17.448  0.00  0.00    +0.000 NA
ATOM      8  C   UNL     1      10.199  14.218  17.785  0.00  0.00    +0.000 A 
ATOM      9  C   UNL     1       9.346  13.300  18.660  0.00  0.00    +0.000 C 
ATOM     10  H   UNL     1      12.852  15.167  16.318  0.00  0.00    +0.000 HD
ENDROOT
BRANCH   9  11
ATOM     11  C   UNL     1       9.201  13.899  20.043  0.00  0.00    +0.000 A 
ATOM     12  C   UNL     1      10.164  13.942  21.046  0.00  0.00    +0.000 A 
ATOM     13  C   UNL     1       9.619  14.579  22.168  0.00  0.00    +0.000 A 
ATOM     14  C   UNL     1       8.335  14.921  21.835  0.00  0.00    +0.000 A 
ATOM     15  N   UNL     1       8.084  14.622  20.497  0.00  0.00    +0.000 N 
ATOM     16  C   UNL     1       6.913  14.971  19.787  0.00  0.00    +0.000 A 
ATOM     17  N   UNL     1       6.632  14.597  18.555  0.00  0.00    +0.000 NA
ATOM     18  C   UNL     1       5.442  15.165  18.154  0.00  0.00    +0.000 A 
ATOM     19  C   UNL     1       4.806  15.951  19.090  0.00  0.00    +0.000 A 
ATOM     20  S   UNL     1       5.733  15.973  20.530  0.00  0.00    +0.000 S 
ENDBRANCH   9  11
BRANCH   1  21
ATOM     21  C   UNL     1       9.280  10.906  19.421  0.00  0.00    +0.000 C 
BRANCH  21  25
ATOM     22  C   UNL     1       7.455   6.400  17.887  0.00  0.00    +0.000 C 
ATOM     23  C   UNL     1       7.905   7.805  17.994  0.00  0.00    +0.000 A 
ATOM     24  C   UNL     1       8.810   8.362  18.922  0.00  0.00    +0.000 A 
ATOM     25  C   UNL     1       8.751   9.717  18.693  0.00  0.00    +0.000 A 
ATOM     26  O   UNL     1       7.907   9.946  17.648  0.00  0.00    +0.000 OA
ATOM     27  N   UNL     1       7.390   8.745  17.193  0.00  0.00    +0.000 NA
ENDBRANCH  21  25
ENDBRANCH   1  21
TORSDOF 3
ENDMDL
MODEL 6
REMARK VINA RESULT:      -7.0      4.642      9.883
REMARK  Name = 
REMARK  4 active torsions:
REMARK  status: ('A' for Active; 'I' for Inactive)
REMARK    1  A    between atoms: C_1  and  C_2
REMARK    2  A    between atoms: C_4  and  C_5
REMARK    3  A    between atoms: C_5  and  N_6
REMARK    4  A    between atoms: C_14  and  C_15
REMARK                            x       y       z     vdW  Elec       q    Type
REMARK                         _______ _______ _______ _____ _____    ______ ____
ROOT
ATOM      1  N   UNL     1       0.579  11.694  19.722  0.00  0.00    +0.000 NA
ATOM      2  C   UNL     1       1.323  12.143  20.913  0.00  0.00    +0.000 C 
ATOM      3  C   UNL     1       2.202  13.397  20.670  0.00  0.00    +0.000 C 
ATOM      4  C   UNL     1       1.436  14.359  19.859  0.00  0.00    +0.000 A 
ATOM      5  N   UNL     1       1.621  15.701  19.731  0.00  0.00    +0.000 N 
ATOM      6  C   UNL     1       0.630  16.157  18.902  0.00  0.00    +0.000 A 
ATOM      7  N   UNL     1      -0.158  15.184  18.493  0.00  0.00    +0.000 NA
ATOM      8  C   UNL     1       0.325  14.048  19.105  0.00  0.00    +0.000 A 
ATOM      9  C   UNL     1      -0.345  12.675  19.078  0.00  0.00    +0.000 C 
ATOM     10  H   UNL     1       2.325  16.267  20.184  0.00  0.00    +0.000 HD
ENDROOT
BRANCH   9  11
ATOM     11  C   UNL     1      -1.710  12.759  19.727  0.00  0.00    +0.000 A 
ATOM     12  C   UNL     1      -2.040  13.411  20.912  0.00  0.00    +0.000 A 
ATOM     13  C   UNL     1      -3.408  13.238  21.156  0.00  0.00    +0.000 A 
ATOM     14  C   UNL     1      -3.897  12.489  20.118  0.00  0.00    +0.000 A 
ATOM     15  N   UNL     1      -2.904  12.276  19.163  0.00  0.00    +0.000 N 
ATOM     16  C   UNL     1      -3.099  11.667  17.903  0.00  0.00    +0.000 A 
ATOM     17  N   UNL     1      -2.142  11.372  17.046  0.00  0.00    +0.000 NA
ATOM     18  C   UNL     1      -2.692  10.843  15.897  0.00  0.00    +0.000 A 
ATOM     19  C   UNL     1      -4.063  10.715  15.891  0.00  0.00    +0.000 A 
ATOM     20  S   UNL     1      -4.688  11.271  17.385  0.00  0.00    +0.000 S 
ENDBRANCH   9  11
BRANCH   1  21
ATOM     21  C   UNL     1       0.119  10.309  19.783  0.00  0.00    +0.000 C 
BRANCH  21  25
ATOM     22  C   UNL     1       3.639   7.466  17.434  0.00  0.00    +0.000 C 
ATOM     23  C   UNL     1       2.565   7.989  18.306  0.00  0.00    +0.000 A 
ATOM     24  C   UNL     1       1.714   9.091  18.076  0.00  0.00    +0.000 A 
ATOM     25  C   UNL     1       1.021   9.245  19.254  0.00  0.00    +0.000 A 
ATOM     26  O   UNL     1       1.394   8.255  20.112  0.00  0.00    +0.000 OA
ATOM     27  N   UNL     1       2.349   7.451  19.512  0.00  0.00    +0.000 NA
ENDBRANCH  21  25
ENDBRANCH   1  21
TORSDOF 3
ENDMDL
MODEL 7
REMARK VINA RESULT:      -6.9      2.320      4.777
REMARK  Name = 
REMARK  4 active torsions:
REMARK  status: ('A' for Active; 'I' for Inactive)
REMARK    1  A    between atoms: C_1  and  C_2
REMARK    2  A    between atoms: C_4  and  C_5
REMARK    3  A    between atoms: C_5  and  N_6
REMARK    4  A    between atoms: C_14  and  C_15
REMARK                            x       y       z     vdW  Elec       q    Type
REMARK                         _______ _______ _______ _____ _____    ______ ____
ROOT
ATOM      1  N   UNL     1       4.551   7.153  17.800  0.00  0.00    +0.000 NA
ATOM      2  C   UNL     1       5.584   7.572  16.836  0.00  0.00    +0.000 C 
ATOM      3  C   UNL     1       6.981   7.798  17.468  0.00  0.00    +0.000 C 
ATOM      4  C   UNL     1       7.247   6.709  18.425  0.00  0.00    +0.000 A 
ATOM      5  N   UNL     1       8.442   6.272  18.906  0.00  0.00    +0.000 N 
ATOM      6  C   UNL     1       8.170   5.212  19.730  0.00  0.00    +0.000 A 
ATOM      7  N   UNL     1       6.880   4.963  19.805  0.00  0.00    +0.000 NA
ATOM      8  C   UNL     1       6.286   5.886  18.971  0.00  0.00    +0.000 A 
ATOM      9  C   UNL     1       4.807   5.909  18.587  0.00  0.00    +0.000 C 
ATOM     10  H   UNL     1       9.360   6.629  18.678  0.00  0.00    +0.000 HD
ENDROOT
BRANCH   9  11
ATOM     11  C   UNL     1       4.447   4.632  17.859  0.00  0.00    +0.000 A 
ATOM     12  C   UNL     1       5.017   4.141  16.687  0.00  0.00    +0.000 A 
ATOM     13  C   UNL     1       4.390   2.935  16.351  0.00  0.00    +0.000 A 
ATOM     14  C   UNL     1       3.451   2.701  17.322  0.00  0.00    +0.000 A 
ATOM     15  N   UNL     1       3.539   3.665  18.325  0.00  0.00    +0.000 N 
ATOM     16  C   UNL     1       2.819   3.646  19.541  0.00  0.00    +0.000 A 
ATOM     17  N   UNL     1       2.825   4.609  20.441  0.00  0.00    +0.000 NA
ATOM     18  C   UNL     1       2.063   4.237  21.528  0.00  0.00    +0.000 A 
ATOM     19  C   UNL     1       1.460   3.001  21.444  0.00  0.00    +0.000 A 
ATOM     20  S   UNL     1       1.857   2.282  19.941  0.00  0.00    +0.000 S 
ENDBRANCH   9  11
BRANCH   1  21
ATOM     21  C   UNL     1       3.178   7.366  17.347  0.00  0.00    +0.000 C 
BRANCH  21  25
ATOM     22  C   UNL     1      -0.260  10.710  19.076  0.00  0.00    +0.000 C 
ATOM     23  C   UNL     1       0.822   9.712  18.925  0.00  0.00    +0.000 A 
ATOM     24  C   UNL     1       1.580   9.417  17.771  0.00  0.00    +0.000 A 
ATOM     25  C   UNL     1       2.324   8.315  18.119  0.00  0.00    +0.000 A 
ATOM     26  O   UNL     1       2.069   8.010  19.423  0.00  0.00    +0.000 OA
ATOM     27  N   UNL     1       1.141   8.899  19.938  0.00  0.00    +0.000 NA
ENDBRANCH  21  25
ENDBRANCH   1  21
TORSDOF 3
ENDMDL
MODEL 8
REMARK VINA RESULT:      -6.8      1.280      1.323
REMARK  Name = 
REMARK  4 active torsions:
REMARK  status: ('A' for Active; 'I' for Inactive)
REMARK    1  A    between atoms: C_1  and  C_2
REMARK    2  A    between atoms: C_4  and  C_5
REMARK    3  A    between atoms: C_5  and  N_6
REMARK    4  A    between atoms: C_14  and  C_15
REMARK                            x       y       z     vdW  Elec       q    Type
REMARK                         _______ _______ _______ _____ _____    ______ ____
ROOT
ATOM      1  N   UNL     1       3.013   5.666  18.405  0.00  0.00    +0.000 NA
ATOM      2  C   UNL     1       2.655   6.077  19.774  0.00  0.00    +0.000 C 
ATOM      3  C   UNL     1       2.156   4.915  20.671  0.00  0.00    +0.000 C 
ATOM      4  C   UNL     1       3.017   3.741  20.442  0.00  0.00    +0.000 A 
ATOM      5  N   UNL     1       3.217   2.662  21.247  0.00  0.00    +0.000 N 
ATOM      6  C   UNL     1       4.137   1.867  20.617  0.00  0.00    +0.000 A 
ATOM      7  N   UNL     1       4.519   2.371  19.463  0.00  0.00    +0.000 NA
ATOM      8  C   UNL     1       3.837   3.564  19.348  0.00  0.00    +0.000 A 
ATOM      9  C   UNL     1       4.057   4.608  18.254  0.00  0.00    +0.000 C 
ATOM     10  H   UNL     1       2.801   2.490  22.152  0.00  0.00    +0.000 HD
ENDROOT
BRANCH   9  11
ATOM     11  C   UNL     1       5.478   5.127  18.320  0.00  0.00    +0.000 A 
ATOM     12  C   UNL     1       6.188   5.493  19.460  0.00  0.00    +0.000 A 
ATOM     13  C   UNL     1       7.465   5.923  19.078  0.00  0.00    +0.000 A 
ATOM     14  C   UNL     1       7.521   5.809  17.713  0.00  0.00    +0.000 A 
ATOM     15  N   UNL     1       6.358   5.214  17.227  0.00  0.00    +0.000 N 
ATOM     16  C   UNL     1       6.140   4.818  15.888  0.00  0.00    +0.000 A 
ATOM     17  N   UNL     1       5.004   4.353  15.409  0.00  0.00    +0.000 NA
ATOM     18  C   UNL     1       5.162   4.010  14.083  0.00  0.00    +0.000 A 
ATOM     19  C   UNL     1       6.411   4.238  13.548  0.00  0.00    +0.000 A 
ATOM     20  S   UNL     1       7.424   4.914  14.752  0.00  0.00    +0.000 S 
ENDBRANCH   9  11
BRANCH   1  21
ATOM     21  C   UNL     1       3.048   6.758  17.435  0.00  0.00    +0.000 C 
BRANCH  21  25
ATOM     22  C   UNL     1       1.803  11.610  18.382  0.00  0.00    +0.000 C 
ATOM     23  C   UNL     1       1.817  10.143  18.188  0.00  0.00    +0.000 A 
ATOM     24  C   UNL     1       2.927   9.272  18.213  0.00  0.00    +0.000 A 
ATOM     25  C   UNL     1       2.421   8.056  17.817  0.00  0.00    +0.000 A 
ATOM     26  O   UNL     1       1.078   8.184  17.628  0.00  0.00    +0.000 OA
ATOM     27  N   UNL     1       0.691   9.489  17.881  0.00  0.00    +0.000 NA
ENDBRANCH  21  25
ENDBRANCH   1  21
TORSDOF 3
ENDMDL
MODEL 9
REMARK VINA RESULT:      -6.7      6.305     10.584
REMARK  Name = 
REMARK  4 active torsions:
REMARK  status: ('A' for Active; 'I' for Inactive)
REMARK    1  A    between atoms: C_1  and  C_2
REMARK    2  A    between atoms: C_4  and  C_5
REMARK    3  A    between atoms: C_5  and  N_6
REMARK    4  A    between atoms: C_14  and  C_15
REMARK                            x       y       z     vdW  Elec       q    Type
REMARK                         _______ _______ _______ _____ _____    ______ ____
ROOT
ATOM      1  N   UNL     1      -0.946  12.864  22.264  0.00  0.00    +0.000 NA
ATOM      2  C   UNL     1      -1.080  13.939  23.262  0.00  0.00    +0.000 C 
ATOM      3  C   UNL     1      -0.232  15.199  22.949  0.00  0.00    +0.000 C 
ATOM      4  C   UNL     1      -0.344  15.494  21.509  0.00  0.00    +0.000 A 
ATOM      5  N   UNL     1      -0.117  16.670  20.862  0.00  0.00    +0.000 N 
ATOM      6  C   UNL     1      -0.397  16.451  19.539  0.00  0.00    +0.000 A 
ATOM      7  N   UNL     1      -0.775  15.209  19.314  0.00  0.00    +0.000 NA
ATOM      8  C   UNL     1      -0.766  14.600  20.550  0.00  0.00    +0.000 A 
ATOM      9  C   UNL     1      -1.284  13.194  20.847  0.00  0.00    +0.000 C 
ATOM     10  H   UNL     1       0.167  17.549  21.273  0.00  0.00    +0.000 HD
ENDROOT
BRANCH   9  11
ATOM     11  C   UNL     1      -2.762  13.114  20.528  0.00  0.00    +0.000 A 
ATOM     12  C   UNL     1      -3.777  13.920  21.037  0.00  0.00    +0.000 A 
ATOM     13  C   UNL     1      -4.998  13.508  20.489  0.00  0.00    +0.000 A 
ATOM     14  C   UNL     1      -4.714  12.462  19.650  0.00  0.00    +0.000 A 
ATOM     15  N   UNL     1      -3.336  12.269  19.563  0.00  0.00    +0.000 N 
ATOM     16  C   UNL     1      -2.691  11.372  18.682  0.00  0.00    +0.000 A 
ATOM     17  N   UNL     1      -1.398  11.115  18.673  0.00  0.00    +0.000 NA
ATOM     18  C   UNL     1      -1.103  10.240  17.649  0.00  0.00    +0.000 A 
ATOM     19  C   UNL     1      -2.174   9.815  16.895  0.00  0.00    +0.000 A 
ATOM     20  S   UNL     1      -3.608  10.533  17.498  0.00  0.00    +0.000 S 
ENDBRANCH   9  11
BRANCH   1  21
ATOM     21  C   UNL     1      -1.351  11.543  22.739  0.00  0.00    +0.000 C 
BRANCH  21  25
ATOM     22  C   UNL     1       1.552   7.859  20.741  0.00  0.00    +0.000 C 
ATOM     23  C   UNL     1       0.859   8.816  21.630  0.00  0.00    +0.000 A 
ATOM     24  C   UNL     1      -0.341   9.518  21.388  0.00  0.00    +0.000 A 
ATOM     25  C   UNL     1      -0.454  10.387  22.448  0.00  0.00    +0.000 A 
ATOM     26  O   UNL     1       0.586  10.170  23.302  0.00  0.00    +0.000 OA
ATOM     27  N   UNL     1       1.401   9.169  22.801  0.00  0.00    +0.000 NA
ENDBRANCH  21  25
ENDBRANCH   1  21
TORSDOF 3
ENDMDL
