MODEL 1
REMARK VINA RESULT:      -8.5      0.000      0.000
REMARK  Name = 
REMARK  6 active torsions:
REMARK  status: ('A' for Active; 'I' for Inactive)
REMARK    1  A    between atoms: C_6  and  C_7
REMARK    2  A    between atoms: C_7  and  O_8
REMARK    3  A    between atoms: O_8  and  C_9
REMARK    4  A    between atoms: C_12  and  O_13
REMARK    5  A    between atoms: O_13  and  C_14
REMARK    6  A    between atoms: C_14  and  C_15
REMARK                            x       y       z     vdW  Elec       q    Type
REMARK                         _______ _______ _______ _____ _____    ______ ____
ROOT
ATOM      1  C   UNL     1       5.978   5.285  17.726  0.00  0.00    +0.000 A 
ATOM      2  C   UNL     1       5.951   6.486  17.020  0.00  0.00    +0.000 A 
ATOM      3  C   UNL     1       6.893   7.473  17.267  0.00  0.00    +0.000 A 
ATOM      4  C   UNL     1       7.851   7.294  18.260  0.00  0.00    +0.000 A 
ATOM      5  C   UNL     1       7.910   6.082  18.951  0.00  0.00    +0.000 A 
ATOM      6  C   UNL     1       6.972   5.078  18.685  0.00  0.00    +0.000 A 
ENDROOT
BRANCH   1   7
ATOM      7  O   UNL     1       5.076   4.266  17.545  0.00  0.00    +0.000 OA
BRANCH   7   8
ATOM      8  C   UNL     1       4.771   3.548  18.744  0.00  0.00    +0.000 C 
BRANCH   8  14
ATOM      9  O   UNL     1       1.729   2.575  22.101  0.00  0.00    +0.000 OA
ATOM     10  C   UNL     1       1.925   2.877  20.932  0.00  0.00    +0.000 C 
ATOM     11  C   UNL     1       0.796   3.033  19.996  0.00  0.00    +0.000 C 
ATOM     12  C   UNL     1       0.987   3.139  18.674  0.00  0.00    +0.000 C 
ATOM     13  C   UNL     1       2.365   3.188  18.098  0.00  0.00    +0.000 C 
ATOM     14  C   UNL     1       3.320   3.729  19.158  0.00  0.00    +0.000 C 
ATOM     15  O   UNL     1       3.165   3.033  20.415  0.00  0.00    +0.000 OA
ENDBRANCH   8  14
ENDBRANCH   7   8
ENDBRANCH   1   7
BRANCH   4  16
ATOM     16  O   UNL     1       8.749   8.260  18.624  0.00  0.00    +0.000 OA
BRANCH  16  17
ATOM     17  C   UNL     1       8.421   9.565  18.133  0.00  0.00    +0.000 C 
BRANCH  17  18
ATOM     18  C   UNL     1       9.367  10.568  18.724  0.00  0.00    +0.000 A 
ATOM     19  C   UNL     1      10.229  11.295  17.896  0.00  0.00    +0.000 A 
ATOM     20  C   UNL     1      11.120  12.212  18.449  0.00  0.00    +0.000 A 
ATOM     21  C   UNL     1      11.150  12.408  19.829  0.00  0.00    +0.000 A 
ATOM     22  C   UNL     1      10.289  11.696  20.657  0.00  0.00    +0.000 A 
ATOM     23  C   UNL     1       9.396  10.778  20.109  0.00  0.00    +0.000 A 
ENDBRANCH  17  18
ENDBRANCH  16  17
ENDBRANCH   4  16
TORSDOF 6
ENDMDL
MODEL 2
REMARK VINA RESULT:      -8.4      1.184      1.998
REMARK  Name = 
REMARK  6 active torsions:
REMARK  status: ('A' for Active; 'I' for Inactive)
REMARK    1  A    between atoms: C_6  and  C_7
REMARK    2  A    between atoms: C_7  and  O_8
REMARK    3  A    between atoms: O_8  and  C_9
REMARK    4  A    between atoms: C_12  and  O_13
REMARK    5  A    between atoms: O_13  and  C_14
REMARK    6  A    between atoms: C_14  and  C_15
REMARK                            x       y       z     vdW  Elec       q    Type
REMARK                         _______ _______ _______ _____ _____    ______ ____
ROOT
ATOM      1  C   UNL     1       6.480   5.283  18.640  0.00  0.00    +0.000 A 
ATOM      2  C   UNL     1       7.642   5.689  19.295  0.00  0.00    +0.000 A 
ATOM      3  C   UNL     1       8.281   6.866  18.937  0.00  0.00    +0.000 A 
ATOM      4  C   UNL     1       7.796   7.634  17.883  0.00  0.00    +0.000 A 
ATOM      5  C   UNL     1       6.615   7.257  17.241  0.00  0.00    +0.000 A 
ATOM      6  C   UNL     1       5.958   6.079  17.618  0.00  0.00    +0.000 A 
ENDROOT
BRANCH   1   7
ATOM      7  O   UNL     1       5.797   4.128  18.930  0.00  0.00    +0.000 OA
BRANCH   7   8
ATOM      8  C   UNL     1       4.541   4.018  18.256  0.00  0.00    +0.000 C 
BRANCH   8  14
ATOM      9  O   UNL     1       0.284   2.202  18.503  0.00  0.00    +0.000 OA
ATOM     10  C   UNL     1       1.134   2.930  18.998  0.00  0.00    +0.000 C 
ATOM     11  C   UNL     1       0.856   3.672  20.242  0.00  0.00    +0.000 C 
ATOM     12  C   UNL     1       1.673   4.639  20.681  0.00  0.00    +0.000 C 
ATOM     13  C   UNL     1       2.949   4.950  19.969  0.00  0.00    +0.000 C 
ATOM     14  C   UNL     1       3.408   3.703  19.220  0.00  0.00    +0.000 C 
ATOM     15  O   UNL     1       2.340   3.140  18.425  0.00  0.00    +0.000 OA
ENDBRANCH   8  14
ENDBRANCH   7   8
ENDBRANCH   1   7
BRANCH   4  16
ATOM     16  O   UNL     1       8.428   8.752  17.413  0.00  0.00    +0.000 OA
BRANCH  16  17
ATOM     17  C   UNL     1       8.024   9.961  18.067  0.00  0.00    +0.000 C 
BRANCH  17  18
ATOM     18  C   UNL     1       9.233  10.645  18.632  0.00  0.00    +0.000 A 
ATOM     19  C   UNL     1       9.354  10.831  20.014  0.00  0.00    +0.000 A 
ATOM     20  C   UNL     1      10.469  11.483  20.536  0.00  0.00    +0.000 A 
ATOM     21  C   UNL     1      11.467  11.948  19.681  0.00  0.00    +0.000 A 
ATOM     22  C   UNL     1      11.358  11.758  18.307  0.00  0.00    +0.000 A 
ATOM     23  C   UNL     1      10.245  11.106  17.780  0.00  0.00    +0.000 A 
ENDBRANCH  17  18
ENDBRANCH  16  17
ENDBRANCH   4  16
TORSDOF 6
ENDMDL
MODEL 3
REMARK VINA RESULT:      -8.4      1.146      1.415
REMARK  Name = 
REMARK  6 active torsions:
REMARK  status: ('A' for Active; 'I' for Inactive)
REMARK    1  A    between atoms: C_6  and  C_7
REMARK    2  A    between atoms: C_7  and  O_8
REMARK    3  A    between atoms: O_8  and  C_9
REMARK    4  A    between atoms: C_12  and  O_13
REMARK    5  A    between atoms: O_13  and  C_14
REMARK    6  A    between atoms: C_14  and  C_15
REMARK                            x       y       z     vdW  Elec       q    Type
REMARK                         _______ _______ _______ _____ _____    ______ ____
ROOT
ATOM      1  C   UNL     1       5.951   5.489  17.630  0.00  0.00    +0.000 A 
ATOM      2  C   UNL     1       6.001   6.702  16.945  0.00  0.00    +0.000 A 
ATOM      3  C   UNL     1       6.966   7.649  17.250  0.00  0.00    +0.000 A 
ATOM      4  C   UNL     1       7.872   7.418  18.282  0.00  0.00    +0.000 A 
ATOM      5  C   UNL     1       7.855   6.195  18.954  0.00  0.00    +0.000 A 
ATOM      6  C   UNL     1       6.893   5.231  18.629  0.00  0.00    +0.000 A 
ENDROOT
BRANCH   1   7
ATOM      7  O   UNL     1       5.021   4.508  17.392  0.00  0.00    +0.000 OA
BRANCH   7   8
ATOM      8  C   UNL     1       3.675   4.919  17.643  0.00  0.00    +0.000 C 
BRANCH   8  14
ATOM      9  O   UNL     1       0.099   2.133  18.607  0.00  0.00    +0.000 OA
ATOM     10  C   UNL     1       0.967   2.892  19.019  0.00  0.00    +0.000 C 
ATOM     11  C   UNL     1       1.072   3.202  20.457  0.00  0.00    +0.000 C 
ATOM     12  C   UNL     1       1.856   4.191  20.907  0.00  0.00    +0.000 C 
ATOM     13  C   UNL     1       2.723   4.971  19.972  0.00  0.00    +0.000 C 
ATOM     14  C   UNL     1       3.034   4.105  18.755  0.00  0.00    +0.000 C 
ATOM     15  O   UNL     1       1.834   3.525  18.198  0.00  0.00    +0.000 OA
ENDBRANCH   8  14
ENDBRANCH   7   8
ENDBRANCH   1   7
BRANCH   4  16
ATOM     16  O   UNL     1       8.787   8.345  18.701  0.00  0.00    +0.000 OA
BRANCH  16  17
ATOM     17  C   UNL     1       8.530   9.668  18.218  0.00  0.00    +0.000 C 
BRANCH  17  18
ATOM     18  C   UNL     1       9.501  10.621  18.849  0.00  0.00    +0.000 A 
ATOM     19  C   UNL     1      10.510  11.211  18.078  0.00  0.00    +0.000 A 
ATOM     20  C   UNL     1      11.422  12.082  18.669  0.00  0.00    +0.000 A 
ATOM     21  C   UNL     1      11.328  12.369  20.031  0.00  0.00    +0.000 A 
ATOM     22  C   UNL     1      10.322  11.794  20.801  0.00  0.00    +0.000 A 
ATOM     23  C   UNL     1       9.407  10.923  20.214  0.00  0.00    +0.000 A 
ENDBRANCH  17  18
ENDBRANCH  16  17
ENDBRANCH   4  16
TORSDOF 6
ENDMDL
MODEL 4
REMARK VINA RESULT:      -8.2      1.897      9.589
REMARK  Name = 
REMARK  6 active torsions:
REMARK  status: ('A' for Active; 'I' for Inactive)
REMARK    1  A    between atoms: C_6  and  C_7
REMARK    2  A    between atoms: C_7  and  O_8
REMARK    3  A    between atoms: O_8  and  C_9
REMARK    4  A    between atoms: C_12  and  O_13
REMARK    5  A    between atoms: O_13  and  C_14
REMARK    6  A    between atoms: C_14  and  C_15
REMARK                            x       y       z     vdW  Elec       q    Type
REMARK                         _______ _______ _______ _____ _____    ______ ____
ROOT
ATOM      1  C   UNL     1       8.026   7.355  18.384  0.00  0.00    +0.000 A 
ATOM      2  C   UNL     1       8.048   6.122  19.033  0.00  0.00    +0.000 A 
ATOM      3  C   UNL     1       7.308   5.055  18.549  0.00  0.00    +0.000 A 
ATOM      4  C   UNL     1       6.493   5.216  17.432  0.00  0.00    +0.000 A 
ATOM      5  C   UNL     1       6.488   6.436  16.753  0.00  0.00    +0.000 A 
ATOM      6  C   UNL     1       7.253   7.507  17.231  0.00  0.00    +0.000 A 
ENDROOT
BRANCH   1   7
ATOM      7  O   UNL     1       8.723   8.460  18.807  0.00  0.00    +0.000 OA
BRANCH   7   8
ATOM      8  C   UNL     1       8.424   9.647  18.068  0.00  0.00    +0.000 C 
BRANCH   8  14
ATOM      9  O   UNL     1      12.002  12.530  17.466  0.00  0.00    +0.000 OA
ATOM     10  C   UNL     1      11.171  12.047  18.225  0.00  0.00    +0.000 C 
ATOM     11  C   UNL     1      11.152  12.419  19.652  0.00  0.00    +0.000 C 
ATOM     12  C   UNL     1      10.411  11.747  20.544  0.00  0.00    +0.000 C 
ATOM     13  C   UNL     1       9.506  10.640  20.112  0.00  0.00    +0.000 C 
ATOM     14  C   UNL     1       9.113  10.867  18.656  0.00  0.00    +0.000 C 
ATOM     15  O   UNL     1      10.270  11.122  17.828  0.00  0.00    +0.000 OA
ENDBRANCH   8  14
ENDBRANCH   7   8
ENDBRANCH   1   7
BRANCH   4  16
ATOM     16  O   UNL     1       5.664   4.238  16.957  0.00  0.00    +0.000 OA
BRANCH  16  17
ATOM     17  C   UNL     1       4.331   4.691  16.691  0.00  0.00    +0.000 C 
BRANCH  17  18
ATOM     18  C   UNL     1       3.360   3.848  17.462  0.00  0.00    +0.000 A 
ATOM     19  C   UNL     1       3.717   2.557  17.869  0.00  0.00    +0.000 A 
ATOM     20  C   UNL     1       2.807   1.769  18.569  0.00  0.00    +0.000 A 
ATOM     21  C   UNL     1       1.540   2.267  18.868  0.00  0.00    +0.000 A 
ATOM     22  C   UNL     1       1.181   3.552  18.475  0.00  0.00    +0.000 A 
ATOM     23  C   UNL     1       2.088   4.345  17.775  0.00  0.00    +0.000 A 
ENDBRANCH  17  18
ENDBRANCH  16  17
ENDBRANCH   4  16
TORSDOF 6
ENDMDL
MODEL 5
REMARK VINA RESULT:      -8.1      1.897      9.443
REMARK  Name = 
REMARK  6 active torsions:
REMARK  status: ('A' for Active; 'I' for Inactive)
REMARK    1  A    between atoms: C_6  and  C_7
REMARK    2  A    between atoms: C_7  and  O_8
REMARK    3  A    between atoms: O_8  and  C_9
REMARK    4  A    between atoms: C_12  and  O_13
REMARK    5  A    between atoms: O_13  and  C_14
REMARK    6  A    between atoms: C_14  and  C_15
REMARK                            x       y       z     vdW  Elec       q    Type
REMARK                         _______ _______ _______ _____ _____    ______ ____
ROOT
ATOM      1  C   UNL     1       7.879   7.407  18.237  0.00  0.00    +0.000 A 
ATOM      2  C   UNL     1       6.978   7.474  17.177  0.00  0.00    +0.000 A 
ATOM      3  C   UNL     1       6.263   6.354  16.783  0.00  0.00    +0.000 A 
ATOM      4  C   UNL     1       6.474   5.131  17.413  0.00  0.00    +0.000 A 
ATOM      5  C   UNL     1       7.349   5.057  18.499  0.00  0.00    +0.000 A 
ATOM      6  C   UNL     1       8.053   6.195  18.909  0.00  0.00    +0.000 A 
ENDROOT
BRANCH   1   7
ATOM      7  O   UNL     1       8.629   8.469  18.679  0.00  0.00    +0.000 OA
BRANCH   7   8
ATOM      8  C   UNL     1       8.418   9.671  17.934  0.00  0.00    +0.000 C 
BRANCH   8  14
ATOM      9  O   UNL     1      12.011  12.554  17.430  0.00  0.00    +0.000 OA
ATOM     10  C   UNL     1      11.183  12.044  18.173  0.00  0.00    +0.000 C 
ATOM     11  C   UNL     1      11.179  12.352  19.616  0.00  0.00    +0.000 C 
ATOM     12  C   UNL     1      10.441  11.647  20.483  0.00  0.00    +0.000 C 
ATOM     13  C   UNL     1       9.524  10.565  20.011  0.00  0.00    +0.000 C 
ATOM     14  C   UNL     1       9.120  10.859  18.570  0.00  0.00    +0.000 C 
ATOM     15  O   UNL     1      10.273  11.143  17.744  0.00  0.00    +0.000 OA
ENDBRANCH   8  14
ENDBRANCH   7   8
ENDBRANCH   1   7
BRANCH   4  16
ATOM     16  O   UNL     1       5.878   3.966  17.015  0.00  0.00    +0.000 OA
BRANCH  16  17
ATOM     17  C   UNL     1       4.621   4.157  16.355  0.00  0.00    +0.000 C 
BRANCH  17  18
ATOM     18  C   UNL     1       3.509   3.807  17.298  0.00  0.00    +0.000 A 
ATOM     19  C   UNL     1       3.292   2.474  17.666  0.00  0.00    +0.000 A 
ATOM     20  C   UNL     1       2.248   2.148  18.527  0.00  0.00    +0.000 A 
ATOM     21  C   UNL     1       1.418   3.152  19.026  0.00  0.00    +0.000 A 
ATOM     22  C   UNL     1       1.633   4.480  18.672  0.00  0.00    +0.000 A 
ATOM     23  C   UNL     1       2.678   4.811  17.811  0.00  0.00    +0.000 A 
ENDBRANCH  17  18
ENDBRANCH  16  17
ENDBRANCH   4  16
TORSDOF 6
ENDMDL
MODEL 6
REMARK VINA RESULT:      -8.0      0.809      1.309
REMARK  Name = 
REMARK  6 active torsions:
REMARK  status: ('A' for Active; 'I' for Inactive)
REMARK    1  A    between atoms: C_6  and  C_7
REMARK    2  A    between atoms: C_7  and  O_8
REMARK    3  A    between atoms: O_8  and  C_9
REMARK    4  A    between atoms: C_12  and  O_13
REMARK    5  A    between atoms: O_13  and  C_14
REMARK    6  A    between atoms: C_14  and  C_15
REMARK                            x       y       z     vdW  Elec       q    Type
REMARK                         _______ _______ _______ _____ _____    ______ ____
ROOT
ATOM      1  C   UNL     1       5.703   5.355  17.970  0.00  0.00    +0.000 A 
ATOM      2  C   UNL     1       6.702   5.133  18.916  0.00  0.00    +0.000 A 
ATOM      3  C   UNL     1       7.701   6.072  19.123  0.00  0.00    +0.000 A 
ATOM      4  C   UNL     1       7.747   7.229  18.351  0.00  0.00    +0.000 A 
ATOM      5  C   UNL     1       6.734   7.478  17.423  0.00  0.00    +0.000 A 
ATOM      6  C   UNL     1       5.712   6.540  17.231  0.00  0.00    +0.000 A 
ENDROOT
BRANCH   1   7
ATOM      7  O   UNL     1       4.687   4.471  17.703  0.00  0.00    +0.000 OA
BRANCH   7   8
ATOM      8  C   UNL     1       3.428   5.100  17.454  0.00  0.00    +0.000 C 
BRANCH   8  14
ATOM      9  O   UNL     1       2.296   3.981  21.806  0.00  0.00    +0.000 OA
ATOM     10  C   UNL     1       2.109   3.816  20.608  0.00  0.00    +0.000 C 
ATOM     11  C   UNL     1       1.115   2.837  20.130  0.00  0.00    +0.000 C 
ATOM     12  C   UNL     1       1.047   2.474  18.842  0.00  0.00    +0.000 C 
ATOM     13  C   UNL     1       1.927   3.113  17.817  0.00  0.00    +0.000 C 
ATOM     14  C   UNL     1       2.320   4.503  18.306  0.00  0.00    +0.000 C 
ATOM     15  O   UNL     1       2.821   4.466  19.661  0.00  0.00    +0.000 OA
ENDBRANCH   8  14
ENDBRANCH   7   8
ENDBRANCH   1   7
BRANCH   4  16
ATOM     16  O   UNL     1       8.755   8.149  18.432  0.00  0.00    +0.000 OA
BRANCH  16  17
ATOM     17  C   UNL     1       8.346   9.483  18.107  0.00  0.00    +0.000 C 
BRANCH  17  18
ATOM     18  C   UNL     1       9.317  10.457  18.707  0.00  0.00    +0.000 A 
ATOM     19  C   UNL     1      10.222  11.141  17.888  0.00  0.00    +0.000 A 
ATOM     20  C   UNL     1      11.135  12.032  18.447  0.00  0.00    +0.000 A 
ATOM     21  C   UNL     1      11.145  12.243  19.825  0.00  0.00    +0.000 A 
ATOM     22  C   UNL     1      10.242  11.574  20.645  0.00  0.00    +0.000 A 
ATOM     23  C   UNL     1       9.326  10.683  20.089  0.00  0.00    +0.000 A 
ENDBRANCH  17  18
ENDBRANCH  16  17
ENDBRANCH   4  16
TORSDOF 6
ENDMDL
MODEL 7
REMARK VINA RESULT:      -8.0      1.637      9.481
REMARK  Name = 
REMARK  6 active torsions:
REMARK  status: ('A' for Active; 'I' for Inactive)
REMARK    1  A    between atoms: C_6  and  C_7
REMARK    2  A    between atoms: C_7  and  O_8
REMARK    3  A    between atoms: O_8  and  C_9
REMARK    4  A    between atoms: C_12  and  O_13
REMARK    5  A    between atoms: O_13  and  C_14
REMARK    6  A    between atoms: C_14  and  C_15
REMARK                            x       y       z     vdW  Elec       q    Type
REMARK                         _______ _______ _______ _____ _____    ______ ____
ROOT
ATOM      1  C   UNL     1       7.425   7.579  17.708  0.00  0.00    +0.000 A 
ATOM      2  C   UNL     1       8.013   6.731  18.643  0.00  0.00    +0.000 A 
ATOM      3  C   UNL     1       7.445   5.502  18.940  0.00  0.00    +0.000 A 
ATOM      4  C   UNL     1       6.248   5.120  18.341  0.00  0.00    +0.000 A 
ATOM      5  C   UNL     1       5.666   5.946  17.378  0.00  0.00    +0.000 A 
ATOM      6  C   UNL     1       6.253   7.177  17.062  0.00  0.00    +0.000 A 
ENDROOT
BRANCH   1   7
ATOM      7  O   UNL     1       7.922   8.813  17.368  0.00  0.00    +0.000 OA
BRANCH   7   8
ATOM      8  C   UNL     1       8.359   9.586  18.489  0.00  0.00    +0.000 C 
BRANCH   8  14
ATOM      9  O   UNL     1      12.262  11.607  19.957  0.00  0.00    +0.000 OA
ATOM     10  C   UNL     1      11.288  11.642  19.218  0.00  0.00    +0.000 C 
ATOM     11  C   UNL     1      11.072  12.787  18.313  0.00  0.00    +0.000 C 
ATOM     12  C   UNL     1       9.913  12.961  17.663  0.00  0.00    +0.000 C 
ATOM     13  C   UNL     1       8.815  11.953  17.766  0.00  0.00    +0.000 C 
ATOM     14  C   UNL     1       9.425  10.595  18.098  0.00  0.00    +0.000 C 
ATOM     15  O   UNL     1      10.335  10.683  19.218  0.00  0.00    +0.000 OA
ENDBRANCH   8  14
ENDBRANCH   7   8
ENDBRANCH   1   7
BRANCH   4  16
ATOM     16  O   UNL     1       5.581   3.969  18.657  0.00  0.00    +0.000 OA
BRANCH  16  17
ATOM     17  C   UNL     1       4.272   3.884  18.081  0.00  0.00    +0.000 C 
BRANCH  17  18
ATOM     18  C   UNL     1       3.270   3.631  19.168  0.00  0.00    +0.000 A 
ATOM     19  C   UNL     1       3.637   2.909  20.309  0.00  0.00    +0.000 A 
ATOM     20  C   UNL     1       2.701   2.659  21.309  0.00  0.00    +0.000 A 
ATOM     21  C   UNL     1       1.396   3.132  21.175  0.00  0.00    +0.000 A 
ATOM     22  C   UNL     1       1.026   3.859  20.048  0.00  0.00    +0.000 A 
ATOM     23  C   UNL     1       1.960   4.112  19.045  0.00  0.00    +0.000 A 
ENDBRANCH  17  18
ENDBRANCH  16  17
ENDBRANCH   4  16
TORSDOF 6
ENDMDL
MODEL 8
REMARK VINA RESULT:      -7.9      1.053      1.615
REMARK  Name = 
REMARK  6 active torsions:
REMARK  status: ('A' for Active; 'I' for Inactive)
REMARK    1  A    between atoms: C_6  and  C_7
REMARK    2  A    between atoms: C_7  and  O_8
REMARK    3  A    between atoms: O_8  and  C_9
REMARK    4  A    between atoms: C_12  and  O_13
REMARK    5  A    between atoms: O_13  and  C_14
REMARK    6  A    between atoms: C_14  and  C_15
REMARK                            x       y       z     vdW  Elec       q    Type
REMARK                         _______ _______ _______ _____ _____    ______ ____
ROOT
ATOM      1  C   UNL     1       6.203   5.113  17.411  0.00  0.00    +0.000 A 
ATOM      2  C   UNL     1       7.122   4.875  18.431  0.00  0.00    +0.000 A 
ATOM      3  C   UNL     1       7.929   5.897  18.908  0.00  0.00    +0.000 A 
ATOM      4  C   UNL     1       7.866   7.165  18.338  0.00  0.00    +0.000 A 
ATOM      5  C   UNL     1       6.927   7.424  17.338  0.00  0.00    +0.000 A 
ATOM      6  C   UNL     1       6.096   6.397  16.873  0.00  0.00    +0.000 A 
ENDROOT
BRANCH   1   7
ATOM      7  O   UNL     1       5.377   4.153  16.881  0.00  0.00    +0.000 OA
BRANCH   7   8
ATOM      8  C   UNL     1       3.988   4.399  17.111  0.00  0.00    +0.000 C 
BRANCH   8  14
ATOM      9  O   UNL     1       4.896   1.788  20.831  0.00  0.00    +0.000 OA
ATOM     10  C   UNL     1       4.119   2.531  20.247  0.00  0.00    +0.000 C 
ATOM     11  C   UNL     1       2.802   2.850  20.831  0.00  0.00    +0.000 C 
ATOM     12  C   UNL     1       1.850   3.471  20.121  0.00  0.00    +0.000 C 
ATOM     13  C   UNL     1       2.114   3.942  18.728  0.00  0.00    +0.000 C 
ATOM     14  C   UNL     1       3.611   4.187  18.568  0.00  0.00    +0.000 C 
ATOM     15  O   UNL     1       4.385   3.057  19.030  0.00  0.00    +0.000 OA
ENDBRANCH   8  14
ENDBRANCH   7   8
ENDBRANCH   1   7
BRANCH   4  16
ATOM     16  O   UNL     1       8.698   8.192  18.690  0.00  0.00    +0.000 OA
BRANCH  16  17
ATOM     17  C   UNL     1       8.393   9.430  18.039  0.00  0.00    +0.000 C 
BRANCH  17  18
ATOM     18  C   UNL     1       9.182  10.533  18.680  0.00  0.00    +0.000 A 
ATOM     19  C   UNL     1       9.696  11.575  17.900  0.00  0.00    +0.000 A 
ATOM     20  C   UNL     1      10.444  12.589  18.494  0.00  0.00    +0.000 A 
ATOM     21  C   UNL     1      10.678  12.567  19.868  0.00  0.00    +0.000 A 
ATOM     22  C   UNL     1      10.162  11.539  20.651  0.00  0.00    +0.000 A 
ATOM     23  C   UNL     1       9.413  10.523  20.061  0.00  0.00    +0.000 A 
ENDBRANCH  17  18
ENDBRANCH  16  17
ENDBRANCH   4  16
TORSDOF 6
ENDMDL
MODEL 9
REMARK VINA RESULT:      -7.9      0.734      1.541
REMARK  Name = 
REMARK  6 active torsions:
REMARK  status: ('A' for Active; 'I' for Inactive)
REMARK    1  A    between atoms: C_6  and  C_7
REMARK    2  A    between atoms: C_7  and  O_8
REMARK    3  A    between atoms: O_8  and  C_9
REMARK    4  A    between atoms: C_12  and  O_13
REMARK    5  A    between atoms: O_13  and  C_14
REMARK    6  A    between atoms: C_14  and  C_15
REMARK                            x       y       z     vdW  Elec       q    Type
REMARK                         _______ _______ _______ _____ _____    ______ ____
ROOT
ATOM      1  C   UNL     1       6.109   5.251  18.453  0.00  0.00    +0.000 A 
ATOM      2  C   UNL     1       7.304   5.433  19.148  0.00  0.00    +0.000 A 
ATOM      3  C   UNL     1       8.099   6.543  18.909  0.00  0.00    +0.000 A 
ATOM      4  C   UNL     1       7.738   7.467  17.933  0.00  0.00    +0.000 A 
ATOM      5  C   UNL     1       6.528   7.314  17.254  0.00  0.00    +0.000 A 
ATOM      6  C   UNL     1       5.714   6.205  17.513  0.00  0.00    +0.000 A 
ENDROOT
BRANCH   1   7
ATOM      7  O   UNL     1       5.274   4.175  18.628  0.00  0.00    +0.000 OA
BRANCH   7   8
ATOM      8  C   UNL     1       4.027   4.298  17.939  0.00  0.00    +0.000 C 
BRANCH   8  14
ATOM      9  O   UNL     1       2.796   2.519  22.037  0.00  0.00    +0.000 OA
ATOM     10  C   UNL     1       2.458   2.890  20.921  0.00  0.00    +0.000 C 
ATOM     11  C   UNL     1       1.051   2.787  20.488  0.00  0.00    +0.000 C 
ATOM     12  C   UNL     1       0.693   2.971  19.210  0.00  0.00    +0.000 C 
ATOM     13  C   UNL     1       1.699   3.373  18.181  0.00  0.00    +0.000 C 
ATOM     14  C   UNL     1       2.844   4.105  18.873  0.00  0.00    +0.000 C 
ATOM     15  O   UNL     1       3.338   3.360  20.010  0.00  0.00    +0.000 OA
ENDBRANCH   8  14
ENDBRANCH   7   8
ENDBRANCH   1   7
BRANCH   4  16
ATOM     16  O   UNL     1       8.520   8.530  17.576  0.00  0.00    +0.000 OA
BRANCH  16  17
ATOM     17  C   UNL     1       7.934   9.803  17.873  0.00  0.00    +0.000 C 
BRANCH  17  18
ATOM     18  C   UNL     1       8.974  10.696  18.481  0.00  0.00    +0.000 A 
ATOM     19  C   UNL     1       9.463  10.432  19.766  0.00  0.00    +0.000 A 
ATOM     20  C   UNL     1      10.415  11.273  20.337  0.00  0.00    +0.000 A 
ATOM     21  C   UNL     1      10.884  12.377  19.627  0.00  0.00    +0.000 A 
ATOM     22  C   UNL     1      10.410  12.640  18.346  0.00  0.00    +0.000 A 
ATOM     23  C   UNL     1       9.458  11.802  17.770  0.00  0.00    +0.000 A 
ENDBRANCH  17  18
ENDBRANCH  16  17
ENDBRANCH   4  16
TORSDOF 6
ENDMDL
