MODEL 1
REMARK VINA RESULT:      -8.1      0.000      0.000
REMARK  Name = 
REMARK  9 active torsions:
REMARK  status: ('A' for Active; 'I' for Inactive)
REMARK    1  A    between atoms: C_2  and  C_13
REMARK    2  A    between atoms: N_3  and  C_4
REMARK    3  A    between atoms: C_4  and  C_5
REMARK    4  A    between atoms: C_5  and  C_6
REMARK    5  A    between atoms: C_6  and  N_7
REMARK    6  A    between atoms: C_17  and  S_18
REMARK    7  A    between atoms: S_18  and  N_21
REMARK    8  A    between atoms: N_21  and  C_22
REMARK    9  A    between atoms: C_22  and  C_23
REMARK                            x       y       z     vdW  Elec       q    Type
REMARK                         _______ _______ _______ _____ _____    ______ ____
ROOT
ATOM      1  C   UNL     1       2.508   7.427  18.928  0.00  0.00    +0.000 A 
ATOM      2  C   UNL     1       2.408   8.326  17.858  0.00  0.00    +0.000 A 
ATOM      3  C   UNL     1       1.628   9.477  17.976  0.00  0.00    +0.000 A 
ATOM      4  C   UNL     1       0.942   9.738  19.162  0.00  0.00    +0.000 A 
ATOM      5  C   UNL     1       1.054   8.849  20.238  0.00  0.00    +0.000 A 
ATOM      6  C   UNL     1       1.847   7.701  20.131  0.00  0.00    +0.000 A 
ENDROOT
BRANCH   1   8
ATOM      7  O   UNL     1       3.982   5.779  19.731  0.00  0.00    +0.000 OA
ATOM      8  C   UNL     1       3.367   6.221  18.771  0.00  0.00    +0.000 C 
ATOM      9  N   UNL     1       3.438   5.685  17.502  0.00  0.00    +0.000 N 
ATOM     10  H   UNL     1       3.023   6.177  16.722  0.00  0.00    +0.000 HD
BRANCH   9  11
ATOM     11  C   UNL     1       4.271   4.535  17.206  0.00  0.00    +0.000 C 
BRANCH  11  12
ATOM     12  C   UNL     1       3.454   3.252  17.060  0.00  0.00    +0.000 C 
BRANCH  12  13
ATOM     13  C   UNL     1       3.595   2.387  18.314  0.00  0.00    +0.000 C 
BRANCH  13  14
ATOM     14  N   UNL     1       2.748   2.825  19.408  0.00  0.00    +0.000 N 
ATOM     15  C   UNL     1       1.366   3.190  19.223  0.00  0.00    +0.000 C 
ATOM     16  C   UNL     1       0.984   3.769  20.571  0.00  0.00    +0.000 C 
ATOM     17  C   UNL     1       1.831   2.975  21.558  0.00  0.00    +0.000 C 
ATOM     18  C   UNL     1       3.053   2.615  20.746  0.00  0.00    +0.000 C 
ATOM     19  O   UNL     1       4.095   2.162  21.192  0.00  0.00    +0.000 OA
ENDBRANCH  13  14
ENDBRANCH  12  13
ENDBRANCH  11  12
ENDBRANCH   9  11
ENDBRANCH   1   8
BRANCH   5  20
ATOM     20  S   UNL     1       0.263   9.247  21.787  0.00  0.00    +0.000 S 
ATOM     21  O   UNL     1      -0.712   8.216  22.041  0.00  0.00    +0.000 OA
ATOM     22  O   UNL     1       1.313   9.568  22.725  0.00  0.00    +0.000 OA
BRANCH  20  23
ATOM     23  N   UNL     1      -0.537  10.694  21.456  0.00  0.00    +0.000 NA
ATOM     24  H   UNL     1      -1.300  10.592  20.788  0.00  0.00    +0.000 HD
BRANCH  23  25
ATOM     25  C   UNL     1      -0.846  11.552  22.607  0.00  0.00    +0.000 C 
BRANCH  25  26
ATOM     26  C   UNL     1      -2.222  12.158  22.503  0.00  0.00    +0.000 A 
ATOM     27  C   UNL     1      -2.702  12.636  21.274  0.00  0.00    +0.000 A 
ATOM     28  C   UNL     1      -3.986  13.175  21.177  0.00  0.00    +0.000 A 
ATOM     29  C   UNL     1      -4.802  13.240  22.305  0.00  0.00    +0.000 A 
ATOM     30  C   UNL     1      -4.338  12.762  23.529  0.00  0.00    +0.000 A 
ATOM     31  C   UNL     1      -3.055  12.224  23.629  0.00  0.00    +0.000 A 
ENDBRANCH  25  26
ENDBRANCH  23  25
ENDBRANCH  20  23
ENDBRANCH   5  20
TORSDOF 9
ENDMDL
MODEL 2
REMARK VINA RESULT:      -8.0      2.436      3.631
REMARK  Name = 
REMARK  9 active torsions:
REMARK  status: ('A' for Active; 'I' for Inactive)
REMARK    1  A    between atoms: C_2  and  C_13
REMARK    2  A    between atoms: N_3  and  C_4
REMARK    3  A    between atoms: C_4  and  C_5
REMARK    4  A    between atoms: C_5  and  C_6
REMARK    5  A    between atoms: C_6  and  N_7
REMARK    6  A    between atoms: C_17  and  S_18
REMARK    7  A    between atoms: S_18  and  N_21
REMARK    8  A    between atoms: N_21  and  C_22
REMARK    9  A    between atoms: C_22  and  C_23
REMARK                            x       y       z     vdW  Elec       q    Type
REMARK                         _______ _______ _______ _____ _____    ______ ____
ROOT
ATOM      1  C   UNL     1       2.228   7.510  19.466  0.00  0.00    +0.000 A 
ATOM      2  C   UNL     1       2.526   7.855  18.140  0.00  0.00    +0.000 A 
ATOM      3  C   UNL     1       2.084   9.069  17.612  0.00  0.00    +0.000 A 
ATOM      4  C   UNL     1       1.344   9.947  18.403  0.00  0.00    +0.000 A 
ATOM      5  C   UNL     1       1.059   9.612  19.732  0.00  0.00    +0.000 A 
ATOM      6  C   UNL     1       1.512   8.403  20.272  0.00  0.00    +0.000 A 
ENDROOT
BRANCH   1   8
ATOM      7  O   UNL     1       3.839   5.809  19.671  0.00  0.00    +0.000 OA
ATOM      8  C   UNL     1       2.734   6.216  19.999  0.00  0.00    +0.000 C 
ATOM      9  N   UNL     1       1.877   5.524  20.830  0.00  0.00    +0.000 N 
ATOM     10  H   UNL     1       0.924   5.840  20.949  0.00  0.00    +0.000 HD
BRANCH   9  11
ATOM     11  C   UNL     1       2.232   4.231  21.384  0.00  0.00    +0.000 C 
BRANCH  11  12
ATOM     12  C   UNL     1       1.195   3.157  21.058  0.00  0.00    +0.000 C 
BRANCH  12  13
ATOM     13  C   UNL     1       1.796   2.103  20.128  0.00  0.00    +0.000 C 
BRANCH  13  14
ATOM     14  N   UNL     1       2.557   2.676  19.032  0.00  0.00    +0.000 N 
ATOM     15  C   UNL     1       3.937   2.344  18.786  0.00  0.00    +0.000 C 
ATOM     16  C   UNL     1       4.337   3.330  17.706  0.00  0.00    +0.000 C 
ATOM     17  C   UNL     1       3.053   3.532  16.909  0.00  0.00    +0.000 C 
ATOM     18  C   UNL     1       1.973   3.304  17.939  0.00  0.00    +0.000 C 
ATOM     19  O   UNL     1       0.790   3.570  17.800  0.00  0.00    +0.000 OA
ENDBRANCH  13  14
ENDBRANCH  12  13
ENDBRANCH  11  12
ENDBRANCH   9  11
ENDBRANCH   1   8
BRANCH   5  20
ATOM     20  S   UNL     1       0.206  10.789  20.767  0.00  0.00    +0.000 S 
ATOM     21  O   UNL     1      -0.760  10.049  21.540  0.00  0.00    +0.000 OA
ATOM     22  O   UNL     1       1.217  11.620  21.380  0.00  0.00    +0.000 OA
BRANCH  20  23
ATOM     23  N   UNL     1      -0.605  11.767  19.659  0.00  0.00    +0.000 NA
ATOM     24  H   UNL     1      -0.237  11.696  18.711  0.00  0.00    +0.000 HD
BRANCH  23  25
ATOM     25  C   UNL     1      -2.070  11.781  19.744  0.00  0.00    +0.000 C 
BRANCH  25  26
ATOM     26  C   UNL     1      -2.713  11.424  18.428  0.00  0.00    +0.000 A 
ATOM     27  C   UNL     1      -4.070  11.693  18.198  0.00  0.00    +0.000 A 
ATOM     28  C   UNL     1      -4.655  11.381  16.970  0.00  0.00    +0.000 A 
ATOM     29  C   UNL     1      -3.890  10.801  15.960  0.00  0.00    +0.000 A 
ATOM     30  C   UNL     1      -2.539  10.536  16.174  0.00  0.00    +0.000 A 
ATOM     31  C   UNL     1      -1.952  10.845  17.402  0.00  0.00    +0.000 A 
ENDBRANCH  25  26
ENDBRANCH  23  25
ENDBRANCH  20  23
ENDBRANCH   5  20
TORSDOF 9
ENDMDL
MODEL 3
REMARK VINA RESULT:      -7.8      3.567      9.293
REMARK  Name = 
REMARK  9 active torsions:
REMARK  status: ('A' for Active; 'I' for Inactive)
REMARK    1  A    between atoms: C_2  and  C_13
REMARK    2  A    between atoms: N_3  and  C_4
REMARK    3  A    between atoms: C_4  and  C_5
REMARK    4  A    between atoms: C_5  and  C_6
REMARK    5  A    between atoms: C_6  and  N_7
REMARK    6  A    between atoms: C_17  and  S_18
REMARK    7  A    between atoms: S_18  and  N_21
REMARK    8  A    between atoms: N_21  and  C_22
REMARK    9  A    between atoms: C_22  and  C_23
REMARK                            x       y       z     vdW  Elec       q    Type
REMARK                         _______ _______ _______ _____ _____    ______ ____
ROOT
ATOM      1  C   UNL     1       2.138   6.854  19.006  0.00  0.00    +0.000 A 
ATOM      2  C   UNL     1       1.853   6.708  20.370  0.00  0.00    +0.000 A 
ATOM      3  C   UNL     1       1.936   5.454  20.977  0.00  0.00    +0.000 A 
ATOM      4  C   UNL     1       2.304   4.338  20.225  0.00  0.00    +0.000 A 
ATOM      5  C   UNL     1       2.605   4.485  18.867  0.00  0.00    +0.000 A 
ATOM      6  C   UNL     1       2.538   5.743  18.257  0.00  0.00    +0.000 A 
ENDROOT
BRANCH   1   8
ATOM      7  O   UNL     1       2.651   8.452  17.358  0.00  0.00    +0.000 OA
ATOM      8  C   UNL     1       2.058   8.212  18.400  0.00  0.00    +0.000 C 
ATOM      9  N   UNL     1       1.321   9.147  19.097  0.00  0.00    +0.000 N 
ATOM     10  H   UNL     1       0.975   8.930  20.021  0.00  0.00    +0.000 HD
BRANCH   9  11
ATOM     11  C   UNL     1       1.198  10.517  18.636  0.00  0.00    +0.000 C 
BRANCH  11  12
ATOM     12  C   UNL     1      -0.245  11.018  18.691  0.00  0.00    +0.000 C 
BRANCH  12  13
ATOM     13  C   UNL     1      -1.106  10.269  17.673  0.00  0.00    +0.000 C 
BRANCH  13  14
ATOM     14  N   UNL     1      -2.466  10.772  17.597  0.00  0.00    +0.000 N 
ATOM     15  C   UNL     1      -3.051  11.590  18.629  0.00  0.00    +0.000 C 
ATOM     16  C   UNL     1      -4.506  11.675  18.211  0.00  0.00    +0.000 C 
ATOM     17  C   UNL     1      -4.447  11.629  16.688  0.00  0.00    +0.000 C 
ATOM     18  C   UNL     1      -3.201  10.820  16.419  0.00  0.00    +0.000 C 
ATOM     19  O   UNL     1      -2.877  10.350  15.341  0.00  0.00    +0.000 OA
ENDBRANCH  13  14
ENDBRANCH  12  13
ENDBRANCH  11  12
ENDBRANCH   9  11
ENDBRANCH   1   8
BRANCH   5  20
ATOM     20  S   UNL     1       3.181   3.072  17.941  0.00  0.00    +0.000 S 
ATOM     21  O   UNL     1       3.184   1.948  18.843  0.00  0.00    +0.000 OA
ATOM     22  O   UNL     1       2.452   3.062  16.693  0.00  0.00    +0.000 OA
BRANCH  20  23
ATOM     23  N   UNL     1       4.771   3.478  17.558  0.00  0.00    +0.000 NA
ATOM     24  H   UNL     1       4.856   4.014  16.695  0.00  0.00    +0.000 HD
BRANCH  23  25
ATOM     25  C   UNL     1       5.610   3.964  18.661  0.00  0.00    +0.000 C 
BRANCH  25  26
ATOM     26  C   UNL     1       6.311   5.251  18.310  0.00  0.00    +0.000 A 
ATOM     27  C   UNL     1       7.438   5.672  19.031  0.00  0.00    +0.000 A 
ATOM     28  C   UNL     1       8.097   6.853  18.688  0.00  0.00    +0.000 A 
ATOM     29  C   UNL     1       7.638   7.623  17.621  0.00  0.00    +0.000 A 
ATOM     30  C   UNL     1       6.523   7.212  16.893  0.00  0.00    +0.000 A 
ATOM     31  C   UNL     1       5.862   6.032  17.235  0.00  0.00    +0.000 A 
ENDBRANCH  25  26
ENDBRANCH  23  25
ENDBRANCH  20  23
ENDBRANCH   5  20
TORSDOF 9
ENDMDL
MODEL 4
REMARK VINA RESULT:      -7.7      2.906      8.484
REMARK  Name = 
REMARK  9 active torsions:
REMARK  status: ('A' for Active; 'I' for Inactive)
REMARK    1  A    between atoms: C_2  and  C_13
REMARK    2  A    between atoms: N_3  and  C_4
REMARK    3  A    between atoms: C_4  and  C_5
REMARK    4  A    between atoms: C_5  and  C_6
REMARK    5  A    between atoms: C_6  and  N_7
REMARK    6  A    between atoms: C_17  and  S_18
REMARK    7  A    between atoms: S_18  and  N_21
REMARK    8  A    between atoms: N_21  and  C_22
REMARK    9  A    between atoms: C_22  and  C_23
REMARK                            x       y       z     vdW  Elec       q    Type
REMARK                         _______ _______ _______ _____ _____    ______ ____
ROOT
ATOM      1  C   UNL     1       2.860   6.853  19.341  0.00  0.00    +0.000 A 
ATOM      2  C   UNL     1       2.601   7.523  18.138  0.00  0.00    +0.000 A 
ATOM      3  C   UNL     1       3.450   7.356  17.042  0.00  0.00    +0.000 A 
ATOM      4  C   UNL     1       4.562   6.519  17.142  0.00  0.00    +0.000 A 
ATOM      5  C   UNL     1       4.813   5.838  18.338  0.00  0.00    +0.000 A 
ATOM      6  C   UNL     1       3.957   5.990  19.434  0.00  0.00    +0.000 A 
ENDROOT
BRANCH   1   8
ATOM      7  O   UNL     1       1.286   6.089  20.914  0.00  0.00    +0.000 OA
ATOM      8  C   UNL     1       1.920   7.041  20.480  0.00  0.00    +0.000 C 
ATOM      9  N   UNL     1       1.800   8.327  20.965  0.00  0.00    +0.000 N 
ATOM     10  H   UNL     1       2.240   9.094  20.474  0.00  0.00    +0.000 HD
BRANCH   9  11
ATOM     11  C   UNL     1       0.888   8.652  22.046  0.00  0.00    +0.000 C 
BRANCH  11  12
ATOM     12  C   UNL     1      -0.317   9.457  21.562  0.00  0.00    +0.000 C 
BRANCH  12  13
ATOM     13  C   UNL     1       0.121  10.508  20.541  0.00  0.00    +0.000 C 
BRANCH  13  14
ATOM     14  N   UNL     1      -0.932  10.871  19.609  0.00  0.00    +0.000 N 
ATOM     15  C   UNL     1      -1.866  11.938  19.869  0.00  0.00    +0.000 C 
ATOM     16  C   UNL     1      -2.871  11.789  18.743  0.00  0.00    +0.000 C 
ATOM     17  C   UNL     1      -2.038  11.261  17.582  0.00  0.00    +0.000 C 
ATOM     18  C   UNL     1      -0.939  10.490  18.274  0.00  0.00    +0.000 C 
ATOM     19  O   UNL     1      -0.161   9.720  17.733  0.00  0.00    +0.000 OA
ENDBRANCH  13  14
ENDBRANCH  12  13
ENDBRANCH  11  12
ENDBRANCH   9  11
ENDBRANCH   1   8
BRANCH   5  20
ATOM     20  S   UNL     1       6.175   4.687  18.420  0.00  0.00    +0.000 S 
ATOM     21  O   UNL     1       6.611   4.451  17.066  0.00  0.00    +0.000 OA
ATOM     22  O   UNL     1       7.069   5.166  19.449  0.00  0.00    +0.000 OA
BRANCH  20  23
ATOM     23  N   UNL     1       5.464   3.283  19.024  0.00  0.00    +0.000 NA
ATOM     24  H   UNL     1       5.249   3.335  20.020  0.00  0.00    +0.000 HD
BRANCH  23  25
ATOM     25  C   UNL     1       4.409   2.675  18.204  0.00  0.00    +0.000 C 
BRANCH  25  26
ATOM     26  C   UNL     1       3.056   2.779  18.862  0.00  0.00    +0.000 A 
ATOM     27  C   UNL     1       1.914   3.080  18.104  0.00  0.00    +0.000 A 
ATOM     28  C   UNL     1       0.660   3.153  18.714  0.00  0.00    +0.000 A 
ATOM     29  C   UNL     1       0.536   2.923  20.082  0.00  0.00    +0.000 A 
ATOM     30  C   UNL     1       1.662   2.617  20.843  0.00  0.00    +0.000 A 
ATOM     31  C   UNL     1       2.917   2.545  20.237  0.00  0.00    +0.000 A 
ENDBRANCH  25  26
ENDBRANCH  23  25
ENDBRANCH  20  23
ENDBRANCH   5  20
TORSDOF 9
ENDMDL
MODEL 5
REMARK VINA RESULT:      -7.7      3.081      8.540
REMARK  Name = 
REMARK  9 active torsions:
REMARK  status: ('A' for Active; 'I' for Inactive)
REMARK    1  A    between atoms: C_2  and  C_13
REMARK    2  A    between atoms: N_3  and  C_4
REMARK    3  A    between atoms: C_4  and  C_5
REMARK    4  A    between atoms: C_5  and  C_6
REMARK    5  A    between atoms: C_6  and  N_7
REMARK    6  A    between atoms: C_17  and  S_18
REMARK    7  A    between atoms: S_18  and  N_21
REMARK    8  A    between atoms: N_21  and  C_22
REMARK    9  A    between atoms: C_22  and  C_23
REMARK                            x       y       z     vdW  Elec       q    Type
REMARK                         _______ _______ _______ _____ _____    ______ ____
ROOT
ATOM      1  C   UNL     1       2.876   6.848  19.247  0.00  0.00    +0.000 A 
ATOM      2  C   UNL     1       2.716   7.524  18.029  0.00  0.00    +0.000 A 
ATOM      3  C   UNL     1       3.665   7.382  17.015  0.00  0.00    +0.000 A 
ATOM      4  C   UNL     1       4.778   6.564  17.210  0.00  0.00    +0.000 A 
ATOM      5  C   UNL     1       4.931   5.877  18.420  0.00  0.00    +0.000 A 
ATOM      6  C   UNL     1       3.975   6.004  19.434  0.00  0.00    +0.000 A 
ENDROOT
BRANCH   1   8
ATOM      7  O   UNL     1       1.362   6.024  20.847  0.00  0.00    +0.000 OA
ATOM      8  C   UNL     1       1.832   7.009  20.296  0.00  0.00    +0.000 C 
ATOM      9  N   UNL     1       1.430   8.302  20.561  0.00  0.00    +0.000 N 
ATOM     10  H   UNL     1       1.750   9.061  19.974  0.00  0.00    +0.000 HD
BRANCH   9  11
ATOM     11  C   UNL     1       0.392   8.593  21.532  0.00  0.00    +0.000 C 
BRANCH  11  12
ATOM     12  C   UNL     1       0.418  10.051  21.988  0.00  0.00    +0.000 C 
BRANCH  12  13
ATOM     13  C   UNL     1      -0.284  10.941  20.961  0.00  0.00    +0.000 C 
BRANCH  13  14
ATOM     14  N   UNL     1       0.640  11.632  20.079  0.00  0.00    +0.000 N 
ATOM     15  C   UNL     1       1.537  12.659  20.543  0.00  0.00    +0.000 C 
ATOM     16  C   UNL     1       2.118  13.210  19.256  0.00  0.00    +0.000 C 
ATOM     17  C   UNL     1       2.151  12.001  18.328  0.00  0.00    +0.000 C 
ATOM     18  C   UNL     1       0.998  11.161  18.823  0.00  0.00    +0.000 C 
ATOM     19  O   UNL     1       0.516  10.202  18.241  0.00  0.00    +0.000 OA
ENDBRANCH  13  14
ENDBRANCH  12  13
ENDBRANCH  11  12
ENDBRANCH   9  11
ENDBRANCH   1   8
BRANCH   5  20
ATOM     20  S   UNL     1       6.300   4.750  18.618  0.00  0.00    +0.000 S 
ATOM     21  O   UNL     1       6.914   4.599  17.322  0.00  0.00    +0.000 OA
ATOM     22  O   UNL     1       7.040   5.186  19.780  0.00  0.00    +0.000 OA
BRANCH  20  23
ATOM     23  N   UNL     1       5.554   3.300  19.047  0.00  0.00    +0.000 NA
ATOM     24  H   UNL     1       5.398   3.207  20.050  0.00  0.00    +0.000 HD
BRANCH  23  25
ATOM     25  C   UNL     1       4.425   2.870  18.213  0.00  0.00    +0.000 C 
BRANCH  25  26
ATOM     26  C   UNL     1       3.131   2.845  18.987  0.00  0.00    +0.000 A 
ATOM     27  C   UNL     1       1.900   2.960  18.326  0.00  0.00    +0.000 A 
ATOM     28  C   UNL     1       0.704   2.914  19.044  0.00  0.00    +0.000 A 
ATOM     29  C   UNL     1       0.728   2.749  20.428  0.00  0.00    +0.000 A 
ATOM     30  C   UNL     1       1.945   2.627  21.095  0.00  0.00    +0.000 A 
ATOM     31  C   UNL     1       3.142   2.674  20.379  0.00  0.00    +0.000 A 
ENDBRANCH  25  26
ENDBRANCH  23  25
ENDBRANCH  20  23
ENDBRANCH   5  20
TORSDOF 9
ENDMDL
MODEL 6
REMARK VINA RESULT:      -7.7      2.954      8.654
REMARK  Name = 
REMARK  9 active torsions:
REMARK  status: ('A' for Active; 'I' for Inactive)
REMARK    1  A    between atoms: C_2  and  C_13
REMARK    2  A    between atoms: N_3  and  C_4
REMARK    3  A    between atoms: C_4  and  C_5
REMARK    4  A    between atoms: C_5  and  C_6
REMARK    5  A    between atoms: C_6  and  N_7
REMARK    6  A    between atoms: C_17  and  S_18
REMARK    7  A    between atoms: S_18  and  N_21
REMARK    8  A    between atoms: N_21  and  C_22
REMARK    9  A    between atoms: C_22  and  C_23
REMARK                            x       y       z     vdW  Elec       q    Type
REMARK                         _______ _______ _______ _____ _____    ______ ____
ROOT
ATOM      1  C   UNL     1       2.813   7.025  19.058  0.00  0.00    +0.000 A 
ATOM      2  C   UNL     1       2.815   7.923  17.982  0.00  0.00    +0.000 A 
ATOM      3  C   UNL     1       3.673   7.722  16.899  0.00  0.00    +0.000 A 
ATOM      4  C   UNL     1       4.533   6.625  16.884  0.00  0.00    +0.000 A 
ATOM      5  C   UNL     1       4.521   5.719  17.950  0.00  0.00    +0.000 A 
ATOM      6  C   UNL     1       3.652   5.906  19.031  0.00  0.00    +0.000 A 
ENDROOT
BRANCH   1   8
ATOM      7  O   UNL     1       1.549   6.338  20.919  0.00  0.00    +0.000 OA
ATOM      8  C   UNL     1       1.869   7.262  20.185  0.00  0.00    +0.000 C 
ATOM      9  N   UNL     1       1.378   8.546  20.308  0.00  0.00    +0.000 N 
ATOM     10  H   UNL     1       1.566   9.229  19.588  0.00  0.00    +0.000 HD
BRANCH   9  11
ATOM     11  C   UNL     1       0.420   8.899  21.339  0.00  0.00    +0.000 C 
BRANCH  11  12
ATOM     12  C   UNL     1      -0.461  10.078  20.930  0.00  0.00    +0.000 C 
BRANCH  12  13
ATOM     13  C   UNL     1       0.029  10.674  19.609  0.00  0.00    +0.000 C 
BRANCH  13  14
ATOM     14  N   UNL     1      -1.028  10.828  18.626  0.00  0.00    +0.000 N 
ATOM     15  C   UNL     1      -1.277   9.855  17.593  0.00  0.00    +0.000 C 
ATOM     16  C   UNL     1      -2.301  10.547  16.714  0.00  0.00    +0.000 C 
ATOM     17  C   UNL     1      -3.098  11.401  17.693  0.00  0.00    +0.000 C 
ATOM     18  C   UNL     1      -2.092  11.708  18.776  0.00  0.00    +0.000 C 
ATOM     19  O   UNL     1      -2.228  12.540  19.658  0.00  0.00    +0.000 OA
ENDBRANCH  13  14
ENDBRANCH  12  13
ENDBRANCH  11  12
ENDBRANCH   9  11
ENDBRANCH   1   8
BRANCH   5  20
ATOM     20  S   UNL     1       5.546   4.260  17.870  0.00  0.00    +0.000 S 
ATOM     21  O   UNL     1       6.505   4.475  16.815  0.00  0.00    +0.000 OA
ATOM     22  O   UNL     1       5.941   3.949  19.224  0.00  0.00    +0.000 OA
BRANCH  20  23
ATOM     23  N   UNL     1       4.469   3.051  17.400  0.00  0.00    +0.000 NA
ATOM     24  H   UNL     1       4.632   2.708  16.454  0.00  0.00    +0.000 HD
BRANCH  23  25
ATOM     25  C   UNL     1       4.187   2.002  18.388  0.00  0.00    +0.000 C 
BRANCH  25  26
ATOM     26  C   UNL     1       3.052   2.382  19.304  0.00  0.00    +0.000 A 
ATOM     27  C   UNL     1       1.764   2.600  18.794  0.00  0.00    +0.000 A 
ATOM     28  C   UNL     1       0.711   2.930  19.650  0.00  0.00    +0.000 A 
ATOM     29  C   UNL     1       0.936   3.042  21.021  0.00  0.00    +0.000 A 
ATOM     30  C   UNL     1       2.210   2.820  21.539  0.00  0.00    +0.000 A 
ATOM     31  C   UNL     1       3.264   2.492  20.686  0.00  0.00    +0.000 A 
ENDBRANCH  25  26
ENDBRANCH  23  25
ENDBRANCH  20  23
ENDBRANCH   5  20
TORSDOF 9
ENDMDL
MODEL 7
REMARK VINA RESULT:      -7.6      3.773     10.170
REMARK  Name = 
REMARK  9 active torsions:
REMARK  status: ('A' for Active; 'I' for Inactive)
REMARK    1  A    between atoms: C_2  and  C_13
REMARK    2  A    between atoms: N_3  and  C_4
REMARK    3  A    between atoms: C_4  and  C_5
REMARK    4  A    between atoms: C_5  and  C_6
REMARK    5  A    between atoms: C_6  and  N_7
REMARK    6  A    between atoms: C_17  and  S_18
REMARK    7  A    between atoms: S_18  and  N_21
REMARK    8  A    between atoms: N_21  and  C_22
REMARK    9  A    between atoms: C_22  and  C_23
REMARK                            x       y       z     vdW  Elec       q    Type
REMARK                         _______ _______ _______ _____ _____    ______ ____
ROOT
ATOM      1  C   UNL     1       2.323   7.271  18.872  0.00  0.00    +0.000 A 
ATOM      2  C   UNL     1       1.746   6.962  20.111  0.00  0.00    +0.000 A 
ATOM      3  C   UNL     1       1.967   5.716  20.700  0.00  0.00    +0.000 A 
ATOM      4  C   UNL     1       2.764   4.770  20.055  0.00  0.00    +0.000 A 
ATOM      5  C   UNL     1       3.354   5.083  18.824  0.00  0.00    +0.000 A 
ATOM      6  C   UNL     1       3.148   6.337  18.237  0.00  0.00    +0.000 A 
ENDROOT
BRANCH   1   8
ATOM      7  O   UNL     1       2.518   8.890  17.177  0.00  0.00    +0.000 OA
ATOM      8  C   UNL     1       2.081   8.618  18.286  0.00  0.00    +0.000 C 
ATOM      9  N   UNL     1       1.384   9.509  19.077  0.00  0.00    +0.000 N 
ATOM     10  H   UNL     1       1.175   9.275  20.037  0.00  0.00    +0.000 HD
BRANCH   9  11
ATOM     11  C   UNL     1       1.117  10.867  18.640  0.00  0.00    +0.000 C 
BRANCH  11  12
ATOM     12  C   UNL     1      -0.336  11.275  18.877  0.00  0.00    +0.000 C 
BRANCH  12  13
ATOM     13  C   UNL     1      -1.280  10.148  18.454  0.00  0.00    +0.000 C 
BRANCH  13  14
ATOM     14  N   UNL     1      -2.288  10.576  17.501  0.00  0.00    +0.000 N 
ATOM     15  C   UNL     1      -2.385  10.026  16.172  0.00  0.00    +0.000 C 
ATOM     16  C   UNL     1      -3.416  10.919  15.510  0.00  0.00    +0.000 C 
ATOM     17  C   UNL     1      -4.344  11.310  16.653  0.00  0.00    +0.000 C 
ATOM     18  C   UNL     1      -3.435  11.271  17.859  0.00  0.00    +0.000 C 
ATOM     19  O   UNL     1      -3.700  11.720  18.963  0.00  0.00    +0.000 OA
ENDBRANCH  13  14
ENDBRANCH  12  13
ENDBRANCH  11  12
ENDBRANCH   9  11
ENDBRANCH   1   8
BRANCH   5  20
ATOM     20  S   UNL     1       4.459   3.909  18.061  0.00  0.00    +0.000 S 
ATOM     21  O   UNL     1       5.719   4.000  18.756  0.00  0.00    +0.000 OA
ATOM     22  O   UNL     1       3.731   2.667  17.935  0.00  0.00    +0.000 OA
BRANCH  20  23
ATOM     23  N   UNL     1       4.646   4.509  16.496  0.00  0.00    +0.000 NA
ATOM     24  H   UNL     1       3.883   5.116  16.201  0.00  0.00    +0.000 HD
BRANCH  23  25
ATOM     25  C   UNL     1       5.984   4.994  16.135  0.00  0.00    +0.000 C 
BRANCH  25  26
ATOM     26  C   UNL     1       6.325   4.686  14.699  0.00  0.00    +0.000 A 
ATOM     27  C   UNL     1       7.425   5.297  14.078  0.00  0.00    +0.000 A 
ATOM     28  C   UNL     1       7.749   4.992  12.755  0.00  0.00    +0.000 A 
ATOM     29  C   UNL     1       6.981   4.073  12.042  0.00  0.00    +0.000 A 
ATOM     30  C   UNL     1       5.890   3.456  12.651  0.00  0.00    +0.000 A 
ATOM     31  C   UNL     1       5.563   3.760  13.973  0.00  0.00    +0.000 A 
ENDBRANCH  25  26
ENDBRANCH  23  25
ENDBRANCH  20  23
ENDBRANCH   5  20
TORSDOF 9
ENDMDL
MODEL 8
REMARK VINA RESULT:      -7.6      0.948      1.028
REMARK  Name = 
REMARK  9 active torsions:
REMARK  status: ('A' for Active; 'I' for Inactive)
REMARK    1  A    between atoms: C_2  and  C_13
REMARK    2  A    between atoms: N_3  and  C_4
REMARK    3  A    between atoms: C_4  and  C_5
REMARK    4  A    between atoms: C_5  and  C_6
REMARK    5  A    between atoms: C_6  and  N_7
REMARK    6  A    between atoms: C_17  and  S_18
REMARK    7  A    between atoms: S_18  and  N_21
REMARK    8  A    between atoms: N_21  and  C_22
REMARK    9  A    between atoms: C_22  and  C_23
REMARK                            x       y       z     vdW  Elec       q    Type
REMARK                         _______ _______ _______ _____ _____    ______ ____
ROOT
ATOM      1  C   UNL     1       2.119   8.183  18.601  0.00  0.00    +0.000 A 
ATOM      2  C   UNL     1       1.497   9.047  17.688  0.00  0.00    +0.000 A 
ATOM      3  C   UNL     1       0.535   9.959  18.125  0.00  0.00    +0.000 A 
ATOM      4  C   UNL     1       0.187  10.015  19.475  0.00  0.00    +0.000 A 
ATOM      5  C   UNL     1       0.818   9.164  20.389  0.00  0.00    +0.000 A 
ATOM      6  C   UNL     1       1.794   8.258  19.960  0.00  0.00    +0.000 A 
ENDROOT
BRANCH   1   8
ATOM      7  O   UNL     1       3.813   7.522  17.110  0.00  0.00    +0.000 OA
ATOM      8  C   UNL     1       3.154   7.238  18.100  0.00  0.00    +0.000 C 
ATOM      9  N   UNL     1       3.281   6.052  18.793  0.00  0.00    +0.000 N 
ATOM     10  H   UNL     1       2.613   5.813  19.513  0.00  0.00    +0.000 HD
BRANCH   9  11
ATOM     11  C   UNL     1       4.225   5.028  18.383  0.00  0.00    +0.000 C 
BRANCH  11  12
ATOM     12  C   UNL     1       3.637   4.086  17.335  0.00  0.00    +0.000 C 
BRANCH  12  13
ATOM     13  C   UNL     1       3.326   2.725  17.959  0.00  0.00    +0.000 C 
BRANCH  13  14
ATOM     14  N   UNL     1       2.784   2.824  19.302  0.00  0.00    +0.000 N 
ATOM     15  C   UNL     1       1.372   2.938  19.564  0.00  0.00    +0.000 C 
ATOM     16  C   UNL     1       1.324   3.225  21.052  0.00  0.00    +0.000 C 
ATOM     17  C   UNL     1       2.529   2.472  21.604  0.00  0.00    +0.000 C 
ATOM     18  C   UNL     1       3.496   2.480  20.444  0.00  0.00    +0.000 C 
ATOM     19  O   UNL     1       4.677   2.176  20.501  0.00  0.00    +0.000 OA
ENDBRANCH  13  14
ENDBRANCH  12  13
ENDBRANCH  11  12
ENDBRANCH   9  11
ENDBRANCH   1   8
BRANCH   5  20
ATOM     20  S   UNL     1       0.446   9.319  22.128  0.00  0.00    +0.000 S 
ATOM     21  O   UNL     1      -0.663   8.439  22.403  0.00  0.00    +0.000 OA
ATOM     22  O   UNL     1       1.701   9.228  22.837  0.00  0.00    +0.000 OA
BRANCH  20  23
ATOM     23  N   UNL     1      -0.068  10.918  22.276  0.00  0.00    +0.000 NA
ATOM     24  H   UNL     1      -0.097  11.418  21.388  0.00  0.00    +0.000 HD
BRANCH  23  25
ATOM     25  C   UNL     1      -1.225  11.158  23.148  0.00  0.00    +0.000 C 
BRANCH  25  26
ATOM     26  C   UNL     1      -2.258  12.032  22.483  0.00  0.00    +0.000 A 
ATOM     27  C   UNL     1      -2.109  12.423  21.144  0.00  0.00    +0.000 A 
ATOM     28  C   UNL     1      -3.080  13.214  20.526  0.00  0.00    +0.000 A 
ATOM     29  C   UNL     1      -4.207  13.618  21.239  0.00  0.00    +0.000 A 
ATOM     30  C   UNL     1      -4.368  13.230  22.567  0.00  0.00    +0.000 A 
ATOM     31  C   UNL     1      -3.399  12.441  23.187  0.00  0.00    +0.000 A 
ENDBRANCH  25  26
ENDBRANCH  23  25
ENDBRANCH  20  23
ENDBRANCH   5  20
TORSDOF 9
ENDMDL
MODEL 9
REMARK VINA RESULT:      -7.6      2.811      9.046
REMARK  Name = 
REMARK  9 active torsions:
REMARK  status: ('A' for Active; 'I' for Inactive)
REMARK    1  A    between atoms: C_2  and  C_13
REMARK    2  A    between atoms: N_3  and  C_4
REMARK    3  A    between atoms: C_4  and  C_5
REMARK    4  A    between atoms: C_5  and  C_6
REMARK    5  A    between atoms: C_6  and  N_7
REMARK    6  A    between atoms: C_17  and  S_18
REMARK    7  A    between atoms: S_18  and  N_21
REMARK    8  A    between atoms: N_21  and  C_22
REMARK    9  A    between atoms: C_22  and  C_23
REMARK                            x       y       z     vdW  Elec       q    Type
REMARK                         _______ _______ _______ _____ _____    ______ ____
ROOT
ATOM      1  C   UNL     1       2.190   5.936  19.836  0.00  0.00    +0.000 A 
ATOM      2  C   UNL     1       1.961   5.408  21.114  0.00  0.00    +0.000 A 
ATOM      3  C   UNL     1       2.086   4.037  21.342  0.00  0.00    +0.000 A 
ATOM      4  C   UNL     1       2.441   3.185  20.296  0.00  0.00    +0.000 A 
ATOM      5  C   UNL     1       2.686   3.712  19.024  0.00  0.00    +0.000 A 
ATOM      6  C   UNL     1       2.577   5.088  18.792  0.00  0.00    +0.000 A 
ENDROOT
BRANCH   1   8
ATOM      7  O   UNL     1       1.851   8.137  20.593  0.00  0.00    +0.000 OA
ATOM      8  C   UNL     1       2.067   7.406  19.637  0.00  0.00    +0.000 C 
ATOM      9  N   UNL     1       2.176   7.856  18.337  0.00  0.00    +0.000 N 
ATOM     10  H   UNL     1       2.210   7.193  17.575  0.00  0.00    +0.000 HD
BRANCH   9  11
ATOM     11  C   UNL     1       2.034   9.261  18.002  0.00  0.00    +0.000 C 
BRANCH  11  12
ATOM     12  C   UNL     1       0.645   9.798  18.342  0.00  0.00    +0.000 C 
BRANCH  12  13
ATOM     13  C   UNL     1       0.738  11.247  18.822  0.00  0.00    +0.000 C 
BRANCH  13  14
ATOM     14  N   UNL     1      -0.176  11.548  19.909  0.00  0.00    +0.000 N 
ATOM     15  C   UNL     1      -1.594  11.713  19.710  0.00  0.00    +0.000 C 
ATOM     16  C   UNL     1      -2.070  12.217  21.058  0.00  0.00    +0.000 C 
ATOM     17  C   UNL     1      -1.128  11.542  22.049  0.00  0.00    +0.000 C 
ATOM     18  C   UNL     1       0.141  11.370  21.249  0.00  0.00    +0.000 C 
ATOM     19  O   UNL     1       1.232  11.066  21.704  0.00  0.00    +0.000 OA
ENDBRANCH  13  14
ENDBRANCH  12  13
ENDBRANCH  11  12
ENDBRANCH   9  11
ENDBRANCH   1   8
BRANCH   5  20
ATOM     20  S   UNL     1       3.245   2.629  17.721  0.00  0.00    +0.000 S 
ATOM     21  O   UNL     1       3.317   1.301  18.277  0.00  0.00    +0.000 OA
ATOM     22  O   UNL     1       2.455   2.936  16.550  0.00  0.00    +0.000 OA
BRANCH  20  23
ATOM     23  N   UNL     1       4.805   3.179  17.398  0.00  0.00    +0.000 NA
ATOM     24  H   UNL     1       5.412   2.464  16.998  0.00  0.00    +0.000 HD
BRANCH  23  25
ATOM     25  C   UNL     1       4.919   4.498  16.763  0.00  0.00    +0.000 C 
BRANCH  25  26
ATOM     26  C   UNL     1       5.993   5.340  17.405  0.00  0.00    +0.000 A 
ATOM     27  C   UNL     1       6.543   4.975  18.643  0.00  0.00    +0.000 A 
ATOM     28  C   UNL     1       7.552   5.745  19.223  0.00  0.00    +0.000 A 
ATOM     29  C   UNL     1       8.023   6.883  18.570  0.00  0.00    +0.000 A 
ATOM     30  C   UNL     1       7.489   7.251  17.337  0.00  0.00    +0.000 A 
ATOM     31  C   UNL     1       6.478   6.484  16.757  0.00  0.00    +0.000 A 
ENDBRANCH  25  26
ENDBRANCH  23  25
ENDBRANCH  20  23
ENDBRANCH   5  20
TORSDOF 9
ENDMDL
