MODEL 1
REMARK VINA RESULT:      -7.1      0.000      0.000
REMARK  Name = 
REMARK  6 active torsions:
REMARK  status: ('A' for Active; 'I' for Inactive)
REMARK    1  A    between atoms: C_1  and  C_2
REMARK    2  A    between atoms: C_2  and  C_3
REMARK    3  A    between atoms: C_3  and  C_4
REMARK    4  A    between atoms: C_7  and  C_8
REMARK    5  A    between atoms: C_10  and  N_11
REMARK    6  A    between atoms: N_12  and  C_13
REMARK                            x       y       z     vdW  Elec       q    Type
REMARK                         _______ _______ _______ _____ _____    ______ ____
ROOT
ATOM      1  C   UNL     1       0.882   8.201  21.132  0.00  0.00    +0.000 C 
ATOM      2  C   UNL     1       2.050   8.877  21.877  0.00  0.00    +0.000 C 
ATOM      3  C   UNL     1       1.061   6.664  21.076  0.00  0.00    +0.000 C 
ATOM      4  C   UNL     1       2.133   6.248  20.099  0.00  0.00    +0.000 A 
ATOM      5  C   UNL     1       2.710   4.923  20.167  0.00  0.00    +0.000 A 
ATOM      6  C   UNL     1       3.640   4.497  19.271  0.00  0.00    +0.000 A 
ATOM      7  N   UNL     1       4.099   5.409  18.295  0.00  0.00    +0.000 N 
ATOM      8  C   UNL     1       3.627   6.734  18.214  0.00  0.00    +0.000 A 
ATOM      9  O   UNL     1       4.026   7.587  17.421  0.00  0.00    +0.000 OA
ATOM     10  C   UNL     1       2.531   7.108  19.151  0.00  0.00    +0.000 A 
ATOM     11  C   UNL     1       1.926   8.470  18.963  0.00  0.00    +0.000 C 
ATOM     12  O   UNL     1       0.769   8.690  19.786  0.00  0.00    +0.000 OA
ENDROOT
BRANCH   7  13
ATOM     13  C   UNL     1       5.084   5.028  17.320  0.00  0.00    +0.000 A 
ATOM     14  C   UNL     1       4.689   4.590  16.049  0.00  0.00    +0.000 A 
ATOM     15  C   UNL     1       5.645   4.251  15.090  0.00  0.00    +0.000 A 
ATOM     16  C   UNL     1       7.002   4.323  15.402  0.00  0.00    +0.000 A 
ATOM     17  C   UNL     1       7.405   4.746  16.667  0.00  0.00    +0.000 A 
ATOM     18  C   UNL     1       6.451   5.111  17.619  0.00  0.00    +0.000 A 
ENDBRANCH   7  13
BRANCH   6  19
ATOM     19  N   UNL     1       4.175   3.213  19.332  0.00  0.00    +0.000 N 
ATOM     20  H   UNL     1       5.167   3.139  19.547  0.00  0.00    +0.000 HD
ATOM     21  H   UNL     1       3.922   2.641  18.530  0.00  0.00    +0.000 HD
ENDBRANCH   6  19
BRANCH   1  23
ATOM     22  C   UNL     1      -0.368   9.549  22.954  0.00  0.00    +0.000 C 
ATOM     23  C   UNL     1      -0.455   8.499  21.854  0.00  0.00    +0.000 C 
ENDBRANCH   1  23
BRANCH   5  24
ATOM     24  C   UNL     1       2.241   3.973  21.256  0.00  0.00    +0.000 C 
ATOM     25  N   UNL     1       1.853   3.184  22.159  0.00  0.00    +0.000 NA
ENDBRANCH   5  24
TORSDOF 4
ENDMDL
MODEL 2
REMARK VINA RESULT:      -7.1      0.036      1.008
REMARK  Name = 
REMARK  6 active torsions:
REMARK  status: ('A' for Active; 'I' for Inactive)
REMARK    1  A    between atoms: C_1  and  C_2
REMARK    2  A    between atoms: C_2  and  C_3
REMARK    3  A    between atoms: C_3  and  C_4
REMARK    4  A    between atoms: C_7  and  C_8
REMARK    5  A    between atoms: C_10  and  N_11
REMARK    6  A    between atoms: N_12  and  C_13
REMARK                            x       y       z     vdW  Elec       q    Type
REMARK                         _______ _______ _______ _____ _____    ______ ____
ROOT
ATOM      1  C   UNL     1       0.863   8.216  21.141  0.00  0.00    +0.000 C 
ATOM      2  C   UNL     1       2.029   8.890  21.890  0.00  0.00    +0.000 C 
ATOM      3  C   UNL     1       1.046   6.680  21.075  0.00  0.00    +0.000 C 
ATOM      4  C   UNL     1       2.119   6.273  20.095  0.00  0.00    +0.000 A 
ATOM      5  C   UNL     1       2.700   4.950  20.154  0.00  0.00    +0.000 A 
ATOM      6  C   UNL     1       3.631   4.532  19.255  0.00  0.00    +0.000 A 
ATOM      7  N   UNL     1       4.086   5.451  18.285  0.00  0.00    +0.000 N 
ATOM      8  C   UNL     1       3.611   6.776  18.213  0.00  0.00    +0.000 A 
ATOM      9  O   UNL     1       4.007   7.635  17.426  0.00  0.00    +0.000 OA
ATOM     10  C   UNL     1       2.514   7.140  19.152  0.00  0.00    +0.000 A 
ATOM     11  C   UNL     1       1.905   8.502  18.974  0.00  0.00    +0.000 C 
ATOM     12  O   UNL     1       0.748   8.714  19.798  0.00  0.00    +0.000 OA
ENDROOT
BRANCH   7  13
ATOM     13  C   UNL     1       5.072   5.080  17.307  0.00  0.00    +0.000 A 
ATOM     14  C   UNL     1       6.437   5.166  17.611  0.00  0.00    +0.000 A 
ATOM     15  C   UNL     1       7.396   4.775  16.674  0.00  0.00    +0.000 A 
ATOM     16  C   UNL     1       6.998   4.320  15.417  0.00  0.00    +0.000 A 
ATOM     17  C   UNL     1       5.643   4.243  15.101  0.00  0.00    +0.000 A 
ATOM     18  C   UNL     1       4.682   4.608  16.046  0.00  0.00    +0.000 A 
ENDBRANCH   7  13
BRANCH   6  19
ATOM     19  N   UNL     1       4.169   3.249  19.308  0.00  0.00    +0.000 N 
ATOM     20  H   UNL     1       3.525   2.491  19.526  0.00  0.00    +0.000 HD
ATOM     21  H   UNL     1       5.014   3.197  19.872  0.00  0.00    +0.000 HD
ENDBRANCH   6  19
BRANCH   1  23
ATOM     22  C   UNL     1      -0.386   9.534  22.986  0.00  0.00    +0.000 C 
ATOM     23  C   UNL     1      -0.474   8.506  21.866  0.00  0.00    +0.000 C 
ENDBRANCH   1  23
BRANCH   5  24
ATOM     24  C   UNL     1       2.234   3.991  21.237  0.00  0.00    +0.000 C 
ATOM     25  N   UNL     1       1.847   3.195  22.135  0.00  0.00    +0.000 NA
ENDBRANCH   5  24
TORSDOF 4
ENDMDL
MODEL 3
REMARK VINA RESULT:      -6.4      3.554      4.690
REMARK  Name = 
REMARK  6 active torsions:
REMARK  status: ('A' for Active; 'I' for Inactive)
REMARK    1  A    between atoms: C_1  and  C_2
REMARK    2  A    between atoms: C_2  and  C_3
REMARK    3  A    between atoms: C_3  and  C_4
REMARK    4  A    between atoms: C_7  and  C_8
REMARK    5  A    between atoms: C_10  and  N_11
REMARK    6  A    between atoms: N_12  and  C_13
REMARK                            x       y       z     vdW  Elec       q    Type
REMARK                         _______ _______ _______ _____ _____    ______ ____
ROOT
ATOM      1  C   UNL     1       2.447   3.686  19.883  0.00  0.00    +0.000 C 
ATOM      2  C   UNL     1       1.273   3.163  19.033  0.00  0.00    +0.000 C 
ATOM      3  C   UNL     1       2.955   5.054  19.365  0.00  0.00    +0.000 C 
ATOM      4  C   UNL     1       3.736   4.925  18.081  0.00  0.00    +0.000 A 
ATOM      5  C   UNL     1       3.968   6.085  17.247  0.00  0.00    +0.000 A 
ATOM      6  C   UNL     1       4.711   6.015  16.110  0.00  0.00    +0.000 A 
ATOM      7  N   UNL     1       5.204   4.755  15.706  0.00  0.00    +0.000 N 
ATOM      8  C   UNL     1       4.958   3.575  16.436  0.00  0.00    +0.000 A 
ATOM      9  O   UNL     1       5.315   2.445  16.107  0.00  0.00    +0.000 OA
ATOM     10  C   UNL     1       4.234   3.732  17.728  0.00  0.00    +0.000 A 
ATOM     11  C   UNL     1       4.106   2.499  18.577  0.00  0.00    +0.000 C 
ATOM     12  O   UNL     1       3.549   2.764  19.874  0.00  0.00    +0.000 OA
ENDROOT
BRANCH   7  13
ATOM     13  C   UNL     1       5.991   4.607  14.513  0.00  0.00    +0.000 A 
ATOM     14  C   UNL     1       5.520   3.830  13.446  0.00  0.00    +0.000 A 
ATOM     15  C   UNL     1       6.269   3.712  12.274  0.00  0.00    +0.000 A 
ATOM     16  C   UNL     1       7.505   4.347  12.168  0.00  0.00    +0.000 A 
ATOM     17  C   UNL     1       7.989   5.113  13.228  0.00  0.00    +0.000 A 
ATOM     18  C   UNL     1       7.229   5.254  14.392  0.00  0.00    +0.000 A 
ENDBRANCH   7  13
BRANCH   6  19
ATOM     19  N   UNL     1       4.947   7.141  15.325  0.00  0.00    +0.000 N 
ATOM     20  H   UNL     1       5.515   7.007  14.491  0.00  0.00    +0.000 HD
ATOM     21  H   UNL     1       5.260   7.943  15.868  0.00  0.00    +0.000 HD
ENDBRANCH   6  19
BRANCH   1  23
ATOM     22  C   UNL     1       1.501   2.602  22.035  0.00  0.00    +0.000 C 
ATOM     23  C   UNL     1       2.000   3.870  21.354  0.00  0.00    +0.000 C 
ENDBRANCH   1  23
BRANCH   5  24
ATOM     24  C   UNL     1       3.388   7.423  17.671  0.00  0.00    +0.000 C 
ATOM     25  N   UNL     1       2.906   8.533  18.024  0.00  0.00    +0.000 NA
ENDBRANCH   5  24
TORSDOF 4
ENDMDL
MODEL 4
REMARK VINA RESULT:      -6.3      3.560      4.789
REMARK  Name = 
REMARK  6 active torsions:
REMARK  status: ('A' for Active; 'I' for Inactive)
REMARK    1  A    between atoms: C_1  and  C_2
REMARK    2  A    between atoms: C_2  and  C_3
REMARK    3  A    between atoms: C_3  and  C_4
REMARK    4  A    between atoms: C_7  and  C_8
REMARK    5  A    between atoms: C_10  and  N_11
REMARK    6  A    between atoms: N_12  and  C_13
REMARK                            x       y       z     vdW  Elec       q    Type
REMARK                         _______ _______ _______ _____ _____    ______ ____
ROOT
ATOM      1  C   UNL     1       2.482   3.675  19.902  0.00  0.00    +0.000 C 
ATOM      2  C   UNL     1       1.303   3.146  19.062  0.00  0.00    +0.000 C 
ATOM      3  C   UNL     1       2.979   5.046  19.379  0.00  0.00    +0.000 C 
ATOM      4  C   UNL     1       3.749   4.921  18.088  0.00  0.00    +0.000 A 
ATOM      5  C   UNL     1       3.968   6.081  17.252  0.00  0.00    +0.000 A 
ATOM      6  C   UNL     1       4.702   6.015  16.108  0.00  0.00    +0.000 A 
ATOM      7  N   UNL     1       5.197   4.758  15.700  0.00  0.00    +0.000 N 
ATOM      8  C   UNL     1       4.963   3.576  16.433  0.00  0.00    +0.000 A 
ATOM      9  O   UNL     1       5.324   2.448  16.101  0.00  0.00    +0.000 OA
ATOM     10  C   UNL     1       4.250   3.730  17.731  0.00  0.00    +0.000 A 
ATOM     11  C   UNL     1       4.135   2.497  18.581  0.00  0.00    +0.000 C 
ATOM     12  O   UNL     1       3.588   2.759  19.883  0.00  0.00    +0.000 OA
ENDROOT
BRANCH   7  13
ATOM     13  C   UNL     1       5.975   4.613  14.500  0.00  0.00    +0.000 A 
ATOM     14  C   UNL     1       7.217   5.251  14.382  0.00  0.00    +0.000 A 
ATOM     15  C   UNL     1       7.988   5.085  13.230  0.00  0.00    +0.000 A 
ATOM     16  C   UNL     1       7.514   4.303  12.178  0.00  0.00    +0.000 A 
ATOM     17  C   UNL     1       6.274   3.674  12.281  0.00  0.00    +0.000 A 
ATOM     18  C   UNL     1       5.512   3.817  13.443  0.00  0.00    +0.000 A 
ENDBRANCH   7  13
BRANCH   6  19
ATOM     19  N   UNL     1       4.925   7.142  15.321  0.00  0.00    +0.000 N 
ATOM     20  H   UNL     1       5.763   7.139  14.744  0.00  0.00    +0.000 HD
ATOM     21  H   UNL     1       4.831   8.012  15.841  0.00  0.00    +0.000 HD
ENDBRANCH   6  19
BRANCH   1  23
ATOM     22  C   UNL     1       1.503   2.601  22.043  0.00  0.00    +0.000 C 
ATOM     23  C   UNL     1       2.047   3.857  21.376  0.00  0.00    +0.000 C 
ENDBRANCH   1  23
BRANCH   5  24
ATOM     24  C   UNL     1       3.384   7.417  17.681  0.00  0.00    +0.000 C 
ATOM     25  N   UNL     1       2.900   8.525  18.037  0.00  0.00    +0.000 NA
ENDBRANCH   5  24
TORSDOF 4
ENDMDL
MODEL 5
REMARK VINA RESULT:      -6.1      5.261     10.006
REMARK  Name = 
REMARK  6 active torsions:
REMARK  status: ('A' for Active; 'I' for Inactive)
REMARK    1  A    between atoms: C_1  and  C_2
REMARK    2  A    between atoms: C_2  and  C_3
REMARK    3  A    between atoms: C_3  and  C_4
REMARK    4  A    between atoms: C_7  and  C_8
REMARK    5  A    between atoms: C_10  and  N_11
REMARK    6  A    between atoms: N_12  and  C_13
REMARK                            x       y       z     vdW  Elec       q    Type
REMARK                         _______ _______ _______ _____ _____    ______ ____
ROOT
ATOM      1  C   UNL     1       1.255   9.705  18.569  0.00  0.00    +0.000 C 
ATOM      2  C   UNL     1       2.140  10.947  18.348  0.00  0.00    +0.000 C 
ATOM      3  C   UNL     1      -0.231  10.007  18.257  0.00  0.00    +0.000 C 
ATOM      4  C   UNL     1      -0.880  10.854  19.324  0.00  0.00    +0.000 A 
ATOM      5  C   UNL     1      -2.118  11.551  19.052  0.00  0.00    +0.000 A 
ATOM      6  C   UNL     1      -2.757  12.280  20.006  0.00  0.00    +0.000 A 
ATOM      7  N   UNL     1      -2.146  12.411  21.271  0.00  0.00    +0.000 N 
ATOM      8  C   UNL     1      -0.908  11.814  21.581  0.00  0.00    +0.000 A 
ATOM      9  O   UNL     1      -0.303  11.936  22.646  0.00  0.00    +0.000 OA
ATOM     10  C   UNL     1      -0.312  10.938  20.535  0.00  0.00    +0.000 A 
ATOM     11  C   UNL     1       0.928  10.183  20.921  0.00  0.00    +0.000 C 
ATOM     12  O   UNL     1       1.344   9.236  19.924  0.00  0.00    +0.000 OA
ENDROOT
BRANCH   7  13
ATOM     13  C   UNL     1      -2.762  13.171  22.324  0.00  0.00    +0.000 A 
ATOM     14  C   UNL     1      -3.583  12.538  23.267  0.00  0.00    +0.000 A 
ATOM     15  C   UNL     1      -4.155  13.270  24.309  0.00  0.00    +0.000 A 
ATOM     16  C   UNL     1      -3.933  14.643  24.403  0.00  0.00    +0.000 A 
ATOM     17  C   UNL     1      -3.127  15.284  23.464  0.00  0.00    +0.000 A 
ATOM     18  C   UNL     1      -2.532  14.550  22.435  0.00  0.00    +0.000 A 
ENDBRANCH   7  13
BRANCH   6  19
ATOM     19  N   UNL     1      -3.960  12.930  19.740  0.00  0.00    +0.000 N 
ATOM     20  H   UNL     1      -3.898  13.891  19.410  0.00  0.00    +0.000 HD
ATOM     21  H   UNL     1      -4.635  12.836  20.496  0.00  0.00    +0.000 HD
ENDBRANCH   6  19
BRANCH   1  23
ATOM     22  C   UNL     1       2.517   7.458  18.329  0.00  0.00    +0.000 C 
ATOM     23  C   UNL     1       1.713   8.553  17.641  0.00  0.00    +0.000 C 
ENDBRANCH   1  23
BRANCH   5  24
ATOM     24  C   UNL     1      -2.735  11.439  17.668  0.00  0.00    +0.000 C 
ATOM     25  N   UNL     1      -3.248  11.347  16.520  0.00  0.00    +0.000 NA
ENDBRANCH   5  24
TORSDOF 4
ENDMDL
MODEL 6
REMARK VINA RESULT:      -6.1      5.287     10.038
REMARK  Name = 
REMARK  6 active torsions:
REMARK  status: ('A' for Active; 'I' for Inactive)
REMARK    1  A    between atoms: C_1  and  C_2
REMARK    2  A    between atoms: C_2  and  C_3
REMARK    3  A    between atoms: C_3  and  C_4
REMARK    4  A    between atoms: C_7  and  C_8
REMARK    5  A    between atoms: C_10  and  N_11
REMARK    6  A    between atoms: N_12  and  C_13
REMARK                            x       y       z     vdW  Elec       q    Type
REMARK                         _______ _______ _______ _____ _____    ______ ____
ROOT
ATOM      1  C   UNL     1       1.248   9.713  18.577  0.00  0.00    +0.000 C 
ATOM      2  C   UNL     1       2.129  10.956  18.343  0.00  0.00    +0.000 C 
ATOM      3  C   UNL     1      -0.239  10.007  18.261  0.00  0.00    +0.000 C 
ATOM      4  C   UNL     1      -0.891  10.863  19.319  0.00  0.00    +0.000 A 
ATOM      5  C   UNL     1      -2.131  11.553  19.039  0.00  0.00    +0.000 A 
ATOM      6  C   UNL     1      -2.773  12.291  19.985  0.00  0.00    +0.000 A 
ATOM      7  N   UNL     1      -2.162  12.438  21.249  0.00  0.00    +0.000 N 
ATOM      8  C   UNL     1      -0.922  11.848  21.566  0.00  0.00    +0.000 A 
ATOM      9  O   UNL     1      -0.318  11.984  22.629  0.00  0.00    +0.000 OA
ATOM     10  C   UNL     1      -0.323  10.963  20.529  0.00  0.00    +0.000 A 
ATOM     11  C   UNL     1       0.919  10.216  20.923  0.00  0.00    +0.000 C 
ATOM     12  O   UNL     1       1.338   9.259  19.937  0.00  0.00    +0.000 OA
ENDROOT
BRANCH   7  13
ATOM     13  C   UNL     1      -2.780  13.208  22.293  0.00  0.00    +0.000 A 
ATOM     14  C   UNL     1      -2.567  14.591  22.374  0.00  0.00    +0.000 A 
ATOM     15  C   UNL     1      -3.193  15.345  23.368  0.00  0.00    +0.000 A 
ATOM     16  C   UNL     1      -4.015  14.720  24.305  0.00  0.00    +0.000 A 
ATOM     17  C   UNL     1      -4.224  13.344  24.241  0.00  0.00    +0.000 A 
ATOM     18  C   UNL     1      -3.620  12.591  23.231  0.00  0.00    +0.000 A 
ENDBRANCH   7  13
BRANCH   6  19
ATOM     19  N   UNL     1      -3.977  12.934  19.712  0.00  0.00    +0.000 N 
ATOM     20  H   UNL     1      -3.987  13.571  18.918  0.00  0.00    +0.000 HD
ATOM     21  H   UNL     1      -4.396  13.357  20.537  0.00  0.00    +0.000 HD
ENDBRANCH   6  19
BRANCH   1  23
ATOM     22  C   UNL     1       2.528   7.474  18.360  0.00  0.00    +0.000 C 
ATOM     23  C   UNL     1       1.709   8.552  17.662  0.00  0.00    +0.000 C 
ENDBRANCH   1  23
BRANCH   5  24
ATOM     24  C   UNL     1      -2.748  11.424  17.656  0.00  0.00    +0.000 C 
ATOM     25  N   UNL     1      -3.259  11.318  16.509  0.00  0.00    +0.000 NA
ENDBRANCH   5  24
TORSDOF 4
ENDMDL
MODEL 7
REMARK VINA RESULT:      -6.0      5.451      9.966
REMARK  Name = 
REMARK  6 active torsions:
REMARK  status: ('A' for Active; 'I' for Inactive)
REMARK    1  A    between atoms: C_1  and  C_2
REMARK    2  A    between atoms: C_2  and  C_3
REMARK    3  A    between atoms: C_3  and  C_4
REMARK    4  A    between atoms: C_7  and  C_8
REMARK    5  A    between atoms: C_10  and  N_11
REMARK    6  A    between atoms: N_12  and  C_13
REMARK                            x       y       z     vdW  Elec       q    Type
REMARK                         _______ _______ _______ _____ _____    ______ ____
ROOT
ATOM      1  C   UNL     1       1.366   9.577  18.433  0.00  0.00    +0.000 C 
ATOM      2  C   UNL     1       2.171  10.860  18.149  0.00  0.00    +0.000 C 
ATOM      3  C   UNL     1      -0.067   9.668  17.853  0.00  0.00    +0.000 C 
ATOM      4  C   UNL     1      -0.952  10.590  18.655  0.00  0.00    +0.000 A 
ATOM      5  C   UNL     1      -2.180  11.102  18.088  0.00  0.00    +0.000 A 
ATOM      6  C   UNL     1      -3.027  11.893  18.800  0.00  0.00    +0.000 A 
ATOM      7  N   UNL     1      -2.649  12.275  20.105  0.00  0.00    +0.000 N 
ATOM      8  C   UNL     1      -1.435  11.866  20.694  0.00  0.00    +0.000 A 
ATOM      9  O   UNL     1      -1.030  12.209  21.804  0.00  0.00    +0.000 OA
ATOM     10  C   UNL     1      -0.603  10.914  19.908  0.00  0.00    +0.000 A 
ATOM     11  C   UNL     1       0.612  10.361  20.597  0.00  0.00    +0.000 C 
ATOM     12  O   UNL     1       1.264   9.327  19.844  0.00  0.00    +0.000 OA
ENDROOT
BRANCH   7  13
ATOM     13  C   UNL     1      -3.492  13.113  20.913  0.00  0.00    +0.000 A 
ATOM     14  C   UNL     1      -3.314  14.503  20.916  0.00  0.00    +0.000 A 
ATOM     15  C   UNL     1      -4.154  15.321  21.674  0.00  0.00    +0.000 A 
ATOM     16  C   UNL     1      -5.159  14.755  22.457  0.00  0.00    +0.000 A 
ATOM     17  C   UNL     1      -5.337  13.373  22.471  0.00  0.00    +0.000 A 
ATOM     18  C   UNL     1      -4.515  12.554  21.692  0.00  0.00    +0.000 A 
ENDBRANCH   7  13
BRANCH   6  19
ATOM     19  N   UNL     1      -4.217  12.363  18.252  0.00  0.00    +0.000 N 
ATOM     20  H   UNL     1      -5.065  12.201  18.791  0.00  0.00    +0.000 HD
ATOM     21  H   UNL     1      -4.336  12.097  17.277  0.00  0.00    +0.000 HD
ENDBRANCH   6  19
BRANCH   1  23
ATOM     22  C   UNL     1       2.492   7.271  18.768  0.00  0.00    +0.000 C 
ATOM     23  C   UNL     1       2.065   8.356  17.788  0.00  0.00    +0.000 C 
ENDBRANCH   1  23
BRANCH   5  24
ATOM     24  C   UNL     1      -2.546  10.721  16.663  0.00  0.00    +0.000 C 
ATOM     25  N   UNL     1      -2.849  10.405  15.481  0.00  0.00    +0.000 NA
ENDBRANCH   5  24
TORSDOF 4
ENDMDL
MODEL 8
REMARK VINA RESULT:      -6.0      5.506     10.001
REMARK  Name = 
REMARK  6 active torsions:
REMARK  status: ('A' for Active; 'I' for Inactive)
REMARK    1  A    between atoms: C_1  and  C_2
REMARK    2  A    between atoms: C_2  and  C_3
REMARK    3  A    between atoms: C_3  and  C_4
REMARK    4  A    between atoms: C_7  and  C_8
REMARK    5  A    between atoms: C_10  and  N_11
REMARK    6  A    between atoms: N_12  and  C_13
REMARK                            x       y       z     vdW  Elec       q    Type
REMARK                         _______ _______ _______ _____ _____    ______ ____
ROOT
ATOM      1  C   UNL     1       1.308   9.633  18.433  0.00  0.00    +0.000 C 
ATOM      2  C   UNL     1       2.105  10.923  18.158  0.00  0.00    +0.000 C 
ATOM      3  C   UNL     1      -0.121   9.714  17.840  0.00  0.00    +0.000 C 
ATOM      4  C   UNL     1      -1.020  10.627  18.635  0.00  0.00    +0.000 A 
ATOM      5  C   UNL     1      -2.247  11.130  18.057  0.00  0.00    +0.000 A 
ATOM      6  C   UNL     1      -3.106  11.913  18.764  0.00  0.00    +0.000 A 
ATOM      7  N   UNL     1      -2.743  12.297  20.073  0.00  0.00    +0.000 N 
ATOM      8  C   UNL     1      -1.532  11.896  20.672  0.00  0.00    +0.000 A 
ATOM      9  O   UNL     1      -1.139  12.241  21.786  0.00  0.00    +0.000 OA
ATOM     10  C   UNL     1      -0.685  10.951  19.892  0.00  0.00    +0.000 A 
ATOM     11  C   UNL     1       0.528  10.408  20.591  0.00  0.00    +0.000 C 
ATOM     12  O   UNL     1       1.195   9.379  19.842  0.00  0.00    +0.000 OA
ENDROOT
BRANCH   7  13
ATOM     13  C   UNL     1      -3.600  13.127  20.874  0.00  0.00    +0.000 A 
ATOM     14  C   UNL     1      -4.622  12.554  21.643  0.00  0.00    +0.000 A 
ATOM     15  C   UNL     1      -5.434  13.356  22.448  0.00  0.00    +0.000 A 
ATOM     16  C   UNL     1      -5.249  14.737  22.469  0.00  0.00    +0.000 A 
ATOM     17  C   UNL     1      -4.244  15.318  21.698  0.00  0.00    +0.000 A 
ATOM     18  C   UNL     1      -3.413  14.515  20.913  0.00  0.00    +0.000 A 
ENDBRANCH   7  13
BRANCH   6  19
ATOM     19  N   UNL     1      -4.295  12.375  18.205  0.00  0.00    +0.000 N 
ATOM     20  H   UNL     1      -4.705  13.207  18.624  0.00  0.00    +0.000 HD
ATOM     21  H   UNL     1      -4.986  11.639  18.081  0.00  0.00    +0.000 HD
ENDBRANCH   6  19
BRANCH   1  23
ATOM     22  C   UNL     1       2.484   7.353  18.778  0.00  0.00    +0.000 C 
ATOM     23  C   UNL     1       2.022   8.418  17.792  0.00  0.00    +0.000 C 
ENDBRANCH   1  23
BRANCH   5  24
ATOM     24  C   UNL     1      -2.597  10.748  16.629  0.00  0.00    +0.000 C 
ATOM     25  N   UNL     1      -2.887  10.431  15.444  0.00  0.00    +0.000 NA
ENDBRANCH   5  24
TORSDOF 4
ENDMDL
MODEL 9
REMARK VINA RESULT:      -5.8      6.467     10.701
REMARK  Name = 
REMARK  6 active torsions:
REMARK  status: ('A' for Active; 'I' for Inactive)
REMARK    1  A    between atoms: C_1  and  C_2
REMARK    2  A    between atoms: C_2  and  C_3
REMARK    3  A    between atoms: C_3  and  C_4
REMARK    4  A    between atoms: C_7  and  C_8
REMARK    5  A    between atoms: C_10  and  N_11
REMARK    6  A    between atoms: N_12  and  C_13
REMARK                            x       y       z     vdW  Elec       q    Type
REMARK                         _______ _______ _______ _____ _____    ______ ____
ROOT
ATOM      1  C   UNL     1       0.704  11.028  18.768  0.00  0.00    +0.000 C 
ATOM      2  C   UNL     1       1.074  12.496  18.482  0.00  0.00    +0.000 C 
ATOM      3  C   UNL     1      -0.504  10.572  17.912  0.00  0.00    +0.000 C 
ATOM      4  C   UNL     1      -1.805  11.160  18.399  0.00  0.00    +0.000 A 
ATOM      5  C   UNL     1      -2.969  11.171  17.540  0.00  0.00    +0.000 A 
ATOM      6  C   UNL     1      -4.171  11.646  17.964  0.00  0.00    +0.000 A 
ATOM      7  N   UNL     1      -4.252  12.208  19.256  0.00  0.00    +0.000 N 
ATOM      8  C   UNL     1      -3.141  12.289  20.119  0.00  0.00    +0.000 A 
ATOM      9  O   UNL     1      -3.139  12.814  21.233  0.00  0.00    +0.000 OA
ATOM     10  C   UNL     1      -1.882  11.654  19.643  0.00  0.00    +0.000 A 
ATOM     11  C   UNL     1      -0.743  11.608  20.622  0.00  0.00    +0.000 C 
ATOM     12  O   UNL     1       0.372  10.833  20.152  0.00  0.00    +0.000 OA
ENDROOT
BRANCH   7  13
ATOM     13  C   UNL     1      -5.489  12.733  19.767  0.00  0.00    +0.000 A 
ATOM     14  C   UNL     1      -5.823  14.079  19.563  0.00  0.00    +0.000 A 
ATOM     15  C   UNL     1      -7.039  14.583  20.030  0.00  0.00    +0.000 A 
ATOM     16  C   UNL     1      -7.917  13.754  20.728  0.00  0.00    +0.000 A 
ATOM     17  C   UNL     1      -7.587  12.418  20.948  0.00  0.00    +0.000 A 
ATOM     18  C   UNL     1      -6.384  11.904  20.458  0.00  0.00    +0.000 A 
ENDBRANCH   7  13
BRANCH   6  19
ATOM     19  N   UNL     1      -5.291  11.633  17.137  0.00  0.00    +0.000 N 
ATOM     20  H   UNL     1      -5.788  12.514  17.024  0.00  0.00    +0.000 HD
ATOM     21  H   UNL     1      -5.928  10.868  17.346  0.00  0.00    +0.000 HD
ENDBRANCH   6  19
BRANCH   1  23
ATOM     22  C   UNL     1       1.528   8.808  17.723  0.00  0.00    +0.000 C 
ATOM     23  C   UNL     1       1.899  10.101  18.437  0.00  0.00    +0.000 C 
ENDBRANCH   1  23
BRANCH   5  24
ATOM     24  C   UNL     1      -2.850  10.609  16.133  0.00  0.00    +0.000 C 
ATOM     25  N   UNL     1      -2.750  10.143  14.966  0.00  0.00    +0.000 NA
ENDBRANCH   5  24
TORSDOF 4
ENDMDL
