MODEL 1
REMARK VINA RESULT:      -7.3      0.000      0.000
REMARK  Name = 
REMARK  6 active torsions:
REMARK  status: ('A' for Active; 'I' for Inactive)
REMARK    1  A    between atoms: C_1  and  N_2
REMARK    2  A    between atoms: N_2  and  C_3
REMARK    3  A    between atoms: C_6  and  C_7
REMARK    4  A    between atoms: C_18  and  C_19
REMARK    5  A    between atoms: C_19  and  S_20
REMARK    6  A    between atoms: S_20  and  C_21
REMARK                            x       y       z     vdW  Elec       q    Type
REMARK                         _______ _______ _______ _____ _____    ______ ____
ROOT
ATOM      1  C   UNL     1       7.569   5.890  17.401  0.00  0.00    +0.000 C 
ATOM      2  C   UNL     1       7.034   6.167  18.822  0.00  0.00    +0.000 C 
ATOM      3  C   UNL     1       6.050   5.117  19.317  0.00  0.00    +0.000 C 
ATOM      4  C   UNL     1       4.852   4.971  18.363  0.00  0.00    +0.000 C 
ATOM      5  C   UNL     1       5.323   4.714  16.941  0.00  0.00    +0.000 A 
ATOM      6  C   UNL     1       4.446   4.084  16.040  0.00  0.00    +0.000 A 
ATOM      7  C   UNL     1       4.828   3.832  14.722  0.00  0.00    +0.000 A 
ATOM      8  C   UNL     1       6.107   4.183  14.284  0.00  0.00    +0.000 A 
ATOM      9  C   UNL     1       6.988   4.791  15.191  0.00  0.00    +0.000 A 
ATOM     10  C   UNL     1       6.599   5.117  16.506  0.00  0.00    +0.000 A 
ENDROOT
BRANCH   4  11
ATOM     11  C   UNL     1       3.863   6.127  18.480  0.00  0.00    +0.000 A 
ATOM     12  C   UNL     1       3.750   7.114  17.490  0.00  0.00    +0.000 A 
ATOM     13  C   UNL     1       2.838   8.167  17.621  0.00  0.00    +0.000 A 
ATOM     14  C   UNL     1       2.027   8.251  18.751  0.00  0.00    +0.000 A 
ATOM     15 CL   UNL     1       0.928   9.580  18.852  0.00  0.00    +0.000 Cl
ATOM     16  C   UNL     1       2.126   7.279  19.751  0.00  0.00    +0.000 A 
ATOM     17 CL   UNL     1       1.146   7.311  21.175  0.00  0.00    +0.000 Cl
ATOM     18  C   UNL     1       3.042   6.228  19.617  0.00  0.00    +0.000 A 
ENDBRANCH   4  11
BRANCH   1  20
ATOM     19  C   UNL     1       7.854   8.318  17.658  0.00  0.00    +0.000 C 
ATOM     20  N   UNL     1       7.920   7.175  16.759  0.00  0.00    +0.000 NA
ATOM     21  H   UNL     1       8.864   7.122  16.386  0.00  0.00    +0.000 HD
ENDBRANCH   1  20
BRANCH   8  22
ATOM     22  C   UNL     1       6.548   3.930  12.866  0.00  0.00    +0.000 C 
BRANCH  22  23
ATOM     23  S   UNL     1       5.859   2.414  12.122  0.00  0.00    +0.000 S 
ATOM     24  C   UNL     1       4.475   3.177  11.239  0.00  0.00    +0.000 C 
ATOM     25  O   UNL     1       6.886   1.918  11.041  0.00  0.00    +0.000 OA
ENDBRANCH  22  23
ENDBRANCH   8  22
TORSDOF 4
ENDMDL
MODEL 2
REMARK VINA RESULT:      -6.6      5.094      7.953
REMARK  Name = 
REMARK  6 active torsions:
REMARK  status: ('A' for Active; 'I' for Inactive)
REMARK    1  A    between atoms: C_1  and  N_2
REMARK    2  A    between atoms: N_2  and  C_3
REMARK    3  A    between atoms: C_6  and  C_7
REMARK    4  A    between atoms: C_18  and  C_19
REMARK    5  A    between atoms: C_19  and  S_20
REMARK    6  A    between atoms: S_20  and  C_21
REMARK                            x       y       z     vdW  Elec       q    Type
REMARK                         _______ _______ _______ _____ _____    ______ ____
ROOT
ATOM      1  C   UNL     1      -0.141   9.856  21.250  0.00  0.00    +0.000 C 
ATOM      2  C   UNL     1      -0.901  11.171  20.973  0.00  0.00    +0.000 C 
ATOM      3  C   UNL     1      -1.296  11.349  19.514  0.00  0.00    +0.000 C 
ATOM      4  C   UNL     1      -0.071  11.287  18.586  0.00  0.00    +0.000 C 
ATOM      5  C   UNL     1       0.727  10.017  18.830  0.00  0.00    +0.000 A 
ATOM      6  C   UNL     1       1.561   9.532  17.805  0.00  0.00    +0.000 A 
ATOM      7  C   UNL     1       2.319   8.374  17.983  0.00  0.00    +0.000 A 
ATOM      8  C   UNL     1       2.238   7.661  19.180  0.00  0.00    +0.000 A 
ATOM      9  C   UNL     1       1.389   8.133  20.193  0.00  0.00    +0.000 A 
ATOM     10  C   UNL     1       0.668   9.337  20.061  0.00  0.00    +0.000 A 
ENDROOT
BRANCH   4  11
ATOM     11  C   UNL     1       0.773  12.558  18.638  0.00  0.00    +0.000 A 
ATOM     12  C   UNL     1       2.174  12.520  18.680  0.00  0.00    +0.000 A 
ATOM     13  C   UNL     1       2.926  13.699  18.732  0.00  0.00    +0.000 A 
ATOM     14  C   UNL     1       2.285  14.936  18.748  0.00  0.00    +0.000 A 
ATOM     15 CL   UNL     1       3.274  16.351  18.820  0.00  0.00    +0.000 Cl
ATOM     16  C   UNL     1       0.889  14.995  18.710  0.00  0.00    +0.000 A 
ATOM     17 CL   UNL     1       0.024  16.493  18.717  0.00  0.00    +0.000 Cl
ATOM     18  C   UNL     1       0.139  13.813  18.661  0.00  0.00    +0.000 A 
ENDBRANCH   4  11
BRANCH   1  20
ATOM     19  C   UNL     1       0.255   9.459  23.644  0.00  0.00    +0.000 C 
ATOM     20  N   UNL     1       0.753  10.052  22.412  0.00  0.00    +0.000 NA
ATOM     21  H   UNL     1       1.663   9.645  22.212  0.00  0.00    +0.000 HD
ENDBRANCH   1  20
BRANCH   8  22
ATOM     22  C   UNL     1       3.048   6.410  19.405  0.00  0.00    +0.000 C 
BRANCH  22  23
ATOM     23  S   UNL     1       3.216   5.348  17.933  0.00  0.00    +0.000 S 
ATOM     24  C   UNL     1       4.353   4.127  18.634  0.00  0.00    +0.000 C 
ATOM     25  O   UNL     1       1.835   4.629  17.718  0.00  0.00    +0.000 OA
ENDBRANCH  22  23
ENDBRANCH   8  22
TORSDOF 4
ENDMDL
MODEL 3
REMARK VINA RESULT:      -6.5      7.139     10.041
REMARK  Name = 
REMARK  6 active torsions:
REMARK  status: ('A' for Active; 'I' for Inactive)
REMARK    1  A    between atoms: C_1  and  N_2
REMARK    2  A    between atoms: N_2  and  C_3
REMARK    3  A    between atoms: C_6  and  C_7
REMARK    4  A    between atoms: C_18  and  C_19
REMARK    5  A    between atoms: C_19  and  S_20
REMARK    6  A    between atoms: S_20  and  C_21
REMARK                            x       y       z     vdW  Elec       q    Type
REMARK                         _______ _______ _______ _____ _____    ______ ____
ROOT
ATOM      1  C   UNL     1      -0.824  12.227  20.486  0.00  0.00    +0.000 C 
ATOM      2  C   UNL     1       0.692  12.002  20.670  0.00  0.00    +0.000 C 
ATOM      3  C   UNL     1       1.440  11.797  19.360  0.00  0.00    +0.000 C 
ATOM      4  C   UNL     1       0.864  10.617  18.559  0.00  0.00    +0.000 C 
ATOM      5  C   UNL     1      -0.635  10.778  18.364  0.00  0.00    +0.000 A 
ATOM      6  C   UNL     1      -1.254  10.111  17.290  0.00  0.00    +0.000 A 
ATOM      7  C   UNL     1      -2.628  10.221  17.073  0.00  0.00    +0.000 A 
ATOM      8  C   UNL     1      -3.408  11.022  17.909  0.00  0.00    +0.000 A 
ATOM      9  C   UNL     1      -2.785  11.703  18.966  0.00  0.00    +0.000 A 
ATOM     10  C   UNL     1      -1.412  11.552  19.245  0.00  0.00    +0.000 A 
ENDROOT
BRANCH   4  11
ATOM     11  C   UNL     1       1.263   9.263  19.138  0.00  0.00    +0.000 A 
ATOM     12  C   UNL     1       0.914   8.877  20.440  0.00  0.00    +0.000 A 
ATOM     13  C   UNL     1       1.295   7.631  20.950  0.00  0.00    +0.000 A 
ATOM     14  C   UNL     1       2.038   6.752  20.165  0.00  0.00    +0.000 A 
ATOM     15 CL   UNL     1       2.480   5.233  20.859  0.00  0.00    +0.000 Cl
ATOM     16  C   UNL     1       2.398   7.119  18.865  0.00  0.00    +0.000 A 
ATOM     17 CL   UNL     1       3.310   6.078  17.827  0.00  0.00    +0.000 Cl
ATOM     18  C   UNL     1       2.018   8.368  18.358  0.00  0.00    +0.000 A 
ENDBRANCH   4  11
BRANCH   1  20
ATOM     19  C   UNL     1      -0.648  11.216  22.720  0.00  0.00    +0.000 C 
ATOM     20  N   UNL     1      -1.532  11.748  21.693  0.00  0.00    +0.000 NA
ATOM     21  H   UNL     1      -2.063  12.513  22.101  0.00  0.00    +0.000 HD
ENDBRANCH   1  20
BRANCH   8  22
ATOM     22  C   UNL     1      -4.895  11.156  17.704  0.00  0.00    +0.000 C 
BRANCH  22  23
ATOM     23  S   UNL     1      -5.821  11.629  19.202  0.00  0.00    +0.000 S 
ATOM     24  C   UNL     1      -6.262  13.311  18.701  0.00  0.00    +0.000 C 
ATOM     25  O   UNL     1      -7.146  10.784  19.216  0.00  0.00    +0.000 OA
ENDBRANCH  22  23
ENDBRANCH   8  22
TORSDOF 4
ENDMDL
MODEL 4
REMARK VINA RESULT:      -6.5      7.282     10.352
REMARK  Name = 
REMARK  6 active torsions:
REMARK  status: ('A' for Active; 'I' for Inactive)
REMARK    1  A    between atoms: C_1  and  N_2
REMARK    2  A    between atoms: N_2  and  C_3
REMARK    3  A    between atoms: C_6  and  C_7
REMARK    4  A    between atoms: C_18  and  C_19
REMARK    5  A    between atoms: C_19  and  S_20
REMARK    6  A    between atoms: S_20  and  C_21
REMARK                            x       y       z     vdW  Elec       q    Type
REMARK                         _______ _______ _______ _____ _____    ______ ____
ROOT
ATOM      1  C   UNL     1       0.142  12.702  20.488  0.00  0.00    +0.000 C 
ATOM      2  C   UNL     1       1.605  12.266  20.251  0.00  0.00    +0.000 C 
ATOM      3  C   UNL     1       1.892  11.855  18.814  0.00  0.00    +0.000 C 
ATOM      4  C   UNL     1       0.962  10.719  18.355  0.00  0.00    +0.000 C 
ATOM      5  C   UNL     1      -0.495  11.089  18.583  0.00  0.00    +0.000 A 
ATOM      6  C   UNL     1      -1.486  10.446  17.817  0.00  0.00    +0.000 A 
ATOM      7  C   UNL     1      -2.837  10.746  17.994  0.00  0.00    +0.000 A 
ATOM      8  C   UNL     1      -3.225  11.714  18.922  0.00  0.00    +0.000 A 
ATOM      9  C   UNL     1      -2.234  12.370  19.669  0.00  0.00    +0.000 A 
ATOM     10  C   UNL     1      -0.870  12.034  19.556  0.00  0.00    +0.000 A 
ENDROOT
BRANCH   4  11
ATOM     11  C   UNL     1       1.348   9.366  18.946  0.00  0.00    +0.000 A 
ATOM     12  C   UNL     1       0.960   8.979  20.236  0.00  0.00    +0.000 A 
ATOM     13  C   UNL     1       1.330   7.734  20.758  0.00  0.00    +0.000 A 
ATOM     14  C   UNL     1       2.101   6.859  19.996  0.00  0.00    +0.000 A 
ATOM     15 CL   UNL     1       2.528   5.342  20.703  0.00  0.00    +0.000 Cl
ATOM     16  C   UNL     1       2.500   7.228  18.708  0.00  0.00    +0.000 A 
ATOM     17 CL   UNL     1       3.449   6.191  17.699  0.00  0.00    +0.000 Cl
ATOM     18  C   UNL     1       2.131   8.475  18.190  0.00  0.00    +0.000 A 
ENDBRANCH   4  11
BRANCH   1  20
ATOM     19  C   UNL     1      -0.664  13.602  22.630  0.00  0.00    +0.000 C 
ATOM     20  N   UNL     1      -0.221  12.426  21.895  0.00  0.00    +0.000 NA
ATOM     21  H   UNL     1      -0.968  11.736  21.923  0.00  0.00    +0.000 HD
ENDBRANCH   1  20
BRANCH   8  22
ATOM     22  C   UNL     1      -4.676  12.056  19.140  0.00  0.00    +0.000 C 
BRANCH  22  23
ATOM     23  S   UNL     1      -4.985  13.147  20.568  0.00  0.00    +0.000 S 
ATOM     24  C   UNL     1      -6.566  13.835  20.017  0.00  0.00    +0.000 C 
ATOM     25  O   UNL     1      -5.284  12.223  21.804  0.00  0.00    +0.000 OA
ENDBRANCH  22  23
ENDBRANCH   8  22
TORSDOF 4
ENDMDL
MODEL 5
REMARK VINA RESULT:      -6.4      5.149      7.396
REMARK  Name = 
REMARK  6 active torsions:
REMARK  status: ('A' for Active; 'I' for Inactive)
REMARK    1  A    between atoms: C_1  and  N_2
REMARK    2  A    between atoms: N_2  and  C_3
REMARK    3  A    between atoms: C_6  and  C_7
REMARK    4  A    between atoms: C_18  and  C_19
REMARK    5  A    between atoms: C_19  and  S_20
REMARK    6  A    between atoms: S_20  and  C_21
REMARK                            x       y       z     vdW  Elec       q    Type
REMARK                         _______ _______ _______ _____ _____    ______ ____
ROOT
ATOM      1  C   UNL     1       3.553   4.483  19.254  0.00  0.00    +0.000 C 
ATOM      2  C   UNL     1       4.860   3.719  18.950  0.00  0.00    +0.000 C 
ATOM      3  C   UNL     1       6.066   4.627  18.761  0.00  0.00    +0.000 C 
ATOM      4  C   UNL     1       5.829   5.655  17.642  0.00  0.00    +0.000 C 
ATOM      5  C   UNL     1       4.541   6.427  17.882  0.00  0.00    +0.000 A 
ATOM      6  C   UNL     1       4.389   7.693  17.288  0.00  0.00    +0.000 A 
ATOM      7  C   UNL     1       3.224   8.438  17.472  0.00  0.00    +0.000 A 
ATOM      8  C   UNL     1       2.195   7.942  18.276  0.00  0.00    +0.000 A 
ATOM      9  C   UNL     1       2.358   6.688  18.885  0.00  0.00    +0.000 A 
ATOM     10  C   UNL     1       3.497   5.890  18.657  0.00  0.00    +0.000 A 
ENDROOT
BRANCH   4  11
ATOM     11  C   UNL     1       5.922   5.041  16.249  0.00  0.00    +0.000 A 
ATOM     12  C   UNL     1       5.038   4.044  15.813  0.00  0.00    +0.000 A 
ATOM     13  C   UNL     1       5.145   3.493  14.532  0.00  0.00    +0.000 A 
ATOM     14  C   UNL     1       6.147   3.927  13.666  0.00  0.00    +0.000 A 
ATOM     15 CL   UNL     1       6.228   3.200  12.102  0.00  0.00    +0.000 Cl
ATOM     16  C   UNL     1       7.041   4.918  14.083  0.00  0.00    +0.000 A 
ATOM     17 CL   UNL     1       8.303   5.515  13.062  0.00  0.00    +0.000 Cl
ATOM     18  C   UNL     1       6.932   5.466  15.367  0.00  0.00    +0.000 A 
ENDBRANCH   4  11
BRANCH   1  20
ATOM     19  C   UNL     1       2.769   2.361  18.291  0.00  0.00    +0.000 C 
ATOM     20  N   UNL     1       2.406   3.689  18.764  0.00  0.00    +0.000 NA
ATOM     21  H   UNL     1       1.723   3.583  19.510  0.00  0.00    +0.000 HD
ENDBRANCH   1  20
BRANCH   8  22
ATOM     22  C   UNL     1       0.921   8.719  18.489  0.00  0.00    +0.000 C 
BRANCH  22  23
ATOM     23  S   UNL     1       0.832   9.592  20.087  0.00  0.00    +0.000 S 
ATOM     24  C   UNL     1      -0.650  10.574  19.751  0.00  0.00    +0.000 C 
ATOM     25  O   UNL     1       0.448   8.527  21.178  0.00  0.00    +0.000 OA
ENDBRANCH  22  23
ENDBRANCH   8  22
TORSDOF 4
ENDMDL
MODEL 6
REMARK VINA RESULT:      -6.4      5.158      7.856
REMARK  Name = 
REMARK  6 active torsions:
REMARK  status: ('A' for Active; 'I' for Inactive)
REMARK    1  A    between atoms: C_1  and  N_2
REMARK    2  A    between atoms: N_2  and  C_3
REMARK    3  A    between atoms: C_6  and  C_7
REMARK    4  A    between atoms: C_18  and  C_19
REMARK    5  A    between atoms: C_19  and  S_20
REMARK    6  A    between atoms: S_20  and  C_21
REMARK                            x       y       z     vdW  Elec       q    Type
REMARK                         _______ _______ _______ _____ _____    ______ ____
ROOT
ATOM      1  C   UNL     1       0.106   9.623  21.120  0.00  0.00    +0.000 C 
ATOM      2  C   UNL     1      -0.480  11.049  21.035  0.00  0.00    +0.000 C 
ATOM      3  C   UNL     1      -0.699  11.531  19.608  0.00  0.00    +0.000 C 
ATOM      4  C   UNL     1       0.602  11.487  18.789  0.00  0.00    +0.000 C 
ATOM      5  C   UNL     1       1.233  10.105  18.854  0.00  0.00    +0.000 A 
ATOM      6  C   UNL     1       2.113   9.713  17.829  0.00  0.00    +0.000 A 
ATOM      7  C   UNL     1       2.723   8.459  17.846  0.00  0.00    +0.000 A 
ATOM      8  C   UNL     1       2.445   7.558  18.877  0.00  0.00    +0.000 A 
ATOM      9  C   UNL     1       1.549   7.943  19.886  0.00  0.00    +0.000 A 
ATOM     10  C   UNL     1       0.976   9.230  19.925  0.00  0.00    +0.000 A 
ENDROOT
BRANCH   4  11
ATOM     11  C   UNL     1       1.564  12.615  19.150  0.00  0.00    +0.000 A 
ATOM     12  C   UNL     1       1.956  12.865  20.473  0.00  0.00    +0.000 A 
ATOM     13  C   UNL     1       2.836  13.908  20.780  0.00  0.00    +0.000 A 
ATOM     14  C   UNL     1       3.334  14.723  19.765  0.00  0.00    +0.000 A 
ATOM     15 CL   UNL     1       4.411  15.997  20.215  0.00  0.00    +0.000 Cl
ATOM     16  C   UNL     1       2.953  14.492  18.440  0.00  0.00    +0.000 A 
ATOM     17 CL   UNL     1       3.537  15.455  17.127  0.00  0.00    +0.000 Cl
ATOM     18  C   UNL     1       2.069  13.449  18.137  0.00  0.00    +0.000 A 
ENDBRANCH   4  11
BRANCH   1  20
ATOM     19  C   UNL     1       0.076   9.479  23.575  0.00  0.00    +0.000 C 
ATOM     20  N   UNL     1       0.890   9.498  22.368  0.00  0.00    +0.000 NA
ATOM     21  H   UNL     1       1.436   8.641  22.341  0.00  0.00    +0.000 HD
ENDBRANCH   1  20
BRANCH   8  22
ATOM     22  C   UNL     1       3.092   6.198  18.927  0.00  0.00    +0.000 C 
BRANCH  22  23
ATOM     23  S   UNL     1       2.134   4.879  18.111  0.00  0.00    +0.000 S 
ATOM     24  C   UNL     1       3.521   3.808  17.659  0.00  0.00    +0.000 C 
ATOM     25  O   UNL     1       1.317   4.137  19.230  0.00  0.00    +0.000 OA
ENDBRANCH  22  23
ENDBRANCH   8  22
TORSDOF 4
ENDMDL
MODEL 7
REMARK VINA RESULT:      -6.3      4.938      6.827
REMARK  Name = 
REMARK  6 active torsions:
REMARK  status: ('A' for Active; 'I' for Inactive)
REMARK    1  A    between atoms: C_1  and  N_2
REMARK    2  A    between atoms: N_2  and  C_3
REMARK    3  A    between atoms: C_6  and  C_7
REMARK    4  A    between atoms: C_18  and  C_19
REMARK    5  A    between atoms: C_19  and  S_20
REMARK    6  A    between atoms: S_20  and  C_21
REMARK                            x       y       z     vdW  Elec       q    Type
REMARK                         _______ _______ _______ _____ _____    ______ ____
ROOT
ATOM      1  C   UNL     1       6.465   5.753  18.344  0.00  0.00    +0.000 C 
ATOM      2  C   UNL     1       6.870   6.578  17.102  0.00  0.00    +0.000 C 
ATOM      3  C   UNL     1       5.688   7.003  16.243  0.00  0.00    +0.000 C 
ATOM      4  C   UNL     1       4.862   5.792  15.778  0.00  0.00    +0.000 C 
ATOM      5  C   UNL     1       4.451   4.933  16.963  0.00  0.00    +0.000 A 
ATOM      6  C   UNL     1       3.328   4.094  16.835  0.00  0.00    +0.000 A 
ATOM      7  C   UNL     1       2.915   3.281  17.891  0.00  0.00    +0.000 A 
ATOM      8  C   UNL     1       3.600   3.309  19.107  0.00  0.00    +0.000 A 
ATOM      9  C   UNL     1       4.706   4.163  19.240  0.00  0.00    +0.000 A 
ATOM     10  C   UNL     1       5.182   4.940  18.165  0.00  0.00    +0.000 A 
ENDROOT
BRANCH   4  11
ATOM     11  C   UNL     1       5.545   5.007  14.662  0.00  0.00    +0.000 A 
ATOM     12  C   UNL     1       6.939   4.880  14.586  0.00  0.00    +0.000 A 
ATOM     13  C   UNL     1       7.543   4.158  13.551  0.00  0.00    +0.000 A 
ATOM     14  C   UNL     1       6.758   3.556  12.569  0.00  0.00    +0.000 A 
ATOM     15 CL   UNL     1       7.567   2.686  11.315  0.00  0.00    +0.000 Cl
ATOM     16  C   UNL     1       5.366   3.674  12.625  0.00  0.00    +0.000 A 
ATOM     17 CL   UNL     1       4.326   2.946  11.449  0.00  0.00    +0.000 Cl
ATOM     18  C   UNL     1       4.765   4.400  13.661  0.00  0.00    +0.000 A 
ENDBRANCH   4  11
BRANCH   1  20
ATOM     19  C   UNL     1       8.358   5.306  19.849  0.00  0.00    +0.000 C 
ATOM     20  N   UNL     1       7.579   4.850  18.706  0.00  0.00    +0.000 NA
ATOM     21  H   UNL     1       7.211   3.928  18.924  0.00  0.00    +0.000 HD
ENDBRANCH   1  20
BRANCH   8  22
ATOM     22  C   UNL     1       3.182   2.439  20.264  0.00  0.00    +0.000 C 
BRANCH  22  23
ATOM     23  S   UNL     1       2.264   3.316  21.572  0.00  0.00    +0.000 S 
ATOM     24  C   UNL     1       1.087   4.187  20.509  0.00  0.00    +0.000 C 
ATOM     25  O   UNL     1       1.455   2.236  22.377  0.00  0.00    +0.000 OA
ENDBRANCH  22  23
ENDBRANCH   8  22
TORSDOF 4
ENDMDL
MODEL 8
REMARK VINA RESULT:      -6.3      6.908      9.999
REMARK  Name = 
REMARK  6 active torsions:
REMARK  status: ('A' for Active; 'I' for Inactive)
REMARK    1  A    between atoms: C_1  and  N_2
REMARK    2  A    between atoms: N_2  and  C_3
REMARK    3  A    between atoms: C_6  and  C_7
REMARK    4  A    between atoms: C_18  and  C_19
REMARK    5  A    between atoms: C_19  and  S_20
REMARK    6  A    between atoms: S_20  and  C_21
REMARK                            x       y       z     vdW  Elec       q    Type
REMARK                         _______ _______ _______ _____ _____    ______ ____
ROOT
ATOM      1  C   UNL     1      -1.656  12.004  18.503  0.00  0.00    +0.000 C 
ATOM      2  C   UNL     1      -1.841  10.536  18.946  0.00  0.00    +0.000 C 
ATOM      3  C   UNL     1      -1.233  10.230  20.307  0.00  0.00    +0.000 C 
ATOM      4  C   UNL     1       0.267  10.566  20.344  0.00  0.00    +0.000 C 
ATOM      5  C   UNL     1       0.510  11.999  19.899  0.00  0.00    +0.000 A 
ATOM      6  C   UNL     1       1.690  12.646  20.311  0.00  0.00    +0.000 A 
ATOM      7  C   UNL     1       1.962  13.958  19.924  0.00  0.00    +0.000 A 
ATOM      8  C   UNL     1       1.048  14.661  19.136  0.00  0.00    +0.000 A 
ATOM      9  C   UNL     1      -0.138  14.021  18.745  0.00  0.00    +0.000 A 
ATOM     10  C   UNL     1      -0.401  12.674  19.067  0.00  0.00    +0.000 A 
ENDROOT
BRANCH   4  11
ATOM     11  C   UNL     1       1.119   9.542  19.599  0.00  0.00    +0.000 A 
ATOM     12  C   UNL     1       1.610   9.780  18.308  0.00  0.00    +0.000 A 
ATOM     13  C   UNL     1       2.386   8.824  17.643  0.00  0.00    +0.000 A 
ATOM     14  C   UNL     1       2.677   7.609  18.260  0.00  0.00    +0.000 A 
ATOM     15 CL   UNL     1       3.634   6.471  17.381  0.00  0.00    +0.000 Cl
ATOM     16  C   UNL     1       2.193   7.351  19.547  0.00  0.00    +0.000 A 
ATOM     17 CL   UNL     1       2.521   5.871  20.380  0.00  0.00    +0.000 Cl
ATOM     18  C   UNL     1       1.415   8.309  20.208  0.00  0.00    +0.000 A 
ENDBRANCH   4  11
BRANCH   1  20
ATOM     19  C   UNL     1      -2.556  11.142  16.384  0.00  0.00    +0.000 C 
ATOM     20  N   UNL     1      -1.628  12.062  17.026  0.00  0.00    +0.000 NA
ATOM     21  H   UNL     1      -1.856  13.005  16.719  0.00  0.00    +0.000 HD
ENDBRANCH   1  20
BRANCH   8  22
ATOM     22  C   UNL     1       1.316  16.077  18.696  0.00  0.00    +0.000 C 
BRANCH  22  23
ATOM     23  S   UNL     1       3.054  16.412  18.258  0.00  0.00    +0.000 S 
ATOM     24  C   UNL     1       2.761  17.176  16.644  0.00  0.00    +0.000 C 
ATOM     25  O   UNL     1       3.567  17.542  19.223  0.00  0.00    +0.000 OA
ENDBRANCH  22  23
ENDBRANCH   8  22
TORSDOF 4
ENDMDL
MODEL 9
REMARK VINA RESULT:      -6.3      0.775      1.484
REMARK  Name = 
REMARK  6 active torsions:
REMARK  status: ('A' for Active; 'I' for Inactive)
REMARK    1  A    between atoms: C_1  and  N_2
REMARK    2  A    between atoms: N_2  and  C_3
REMARK    3  A    between atoms: C_6  and  C_7
REMARK    4  A    between atoms: C_18  and  C_19
REMARK    5  A    between atoms: C_19  and  S_20
REMARK    6  A    between atoms: S_20  and  C_21
REMARK                            x       y       z     vdW  Elec       q    Type
REMARK                         _______ _______ _______ _____ _____    ______ ____
ROOT
ATOM      1  C   UNL     1       7.636   6.008  17.401  0.00  0.00    +0.000 C 
ATOM      2  C   UNL     1       7.273   6.125  18.897  0.00  0.00    +0.000 C 
ATOM      3  C   UNL     1       6.559   4.899  19.448  0.00  0.00    +0.000 C 
ATOM      4  C   UNL     1       5.277   4.589  18.657  0.00  0.00    +0.000 C 
ATOM      5  C   UNL     1       5.574   4.480  17.170  0.00  0.00    +0.000 A 
ATOM      6  C   UNL     1       4.693   3.747  16.354  0.00  0.00    +0.000 A 
ATOM      7  C   UNL     1       4.917   3.623  14.983  0.00  0.00    +0.000 A 
ATOM      8  C   UNL     1       6.043   4.210  14.401  0.00  0.00    +0.000 A 
ATOM      9  C   UNL     1       6.933   4.923  15.220  0.00  0.00    +0.000 A 
ATOM     10  C   UNL     1       6.689   5.118  16.594  0.00  0.00    +0.000 A 
ENDROOT
BRANCH   4  11
ATOM     11  C   UNL     1       4.137   5.548  18.984  0.00  0.00    +0.000 A 
ATOM     12  C   UNL     1       3.301   5.361  20.094  0.00  0.00    +0.000 A 
ATOM     13  C   UNL     1       2.259   6.252  20.371  0.00  0.00    +0.000 A 
ATOM     14  C   UNL     1       2.033   7.345  19.536  0.00  0.00    +0.000 A 
ATOM     15 CL   UNL     1       0.726   8.402  19.933  0.00  0.00    +0.000 Cl
ATOM     16  C   UNL     1       2.854   7.547  18.422  0.00  0.00    +0.000 A 
ATOM     17 CL   UNL     1       2.642   8.885  17.347  0.00  0.00    +0.000 Cl
ATOM     18  C   UNL     1       3.894   6.651  18.146  0.00  0.00    +0.000 A 
ENDBRANCH   4  11
BRANCH   1  20
ATOM     19  C   UNL     1       7.895   8.425  17.776  0.00  0.00    +0.000 C 
ATOM     20  N   UNL     1       7.671   7.362  16.806  0.00  0.00    +0.000 NA
ATOM     21  H   UNL     1       8.411   7.408  16.111  0.00  0.00    +0.000 HD
ENDBRANCH   1  20
BRANCH   8  22
ATOM     22  C   UNL     1       6.310   4.101  12.922  0.00  0.00    +0.000 C 
BRANCH  22  23
ATOM     23  S   UNL     1       5.754   2.535  12.172  0.00  0.00    +0.000 S 
ATOM     24  C   UNL     1       4.341   3.189  11.250  0.00  0.00    +0.000 C 
ATOM     25  O   UNL     1       6.842   2.111  11.119  0.00  0.00    +0.000 OA
ENDBRANCH  22  23
ENDBRANCH   8  22
TORSDOF 4
ENDMDL
