MODEL 1
REMARK VINA RESULT:      -7.0      0.000      0.000
REMARK  Name = 
REMARK  12 active torsions:
REMARK  status: ('A' for Active; 'I' for Inactive)
REMARK    1  A    between atoms: C_1  and  O_2
REMARK    2  A    between atoms: O_2  and  C_3
REMARK    3  A    between atoms: C_4  and  O_5
REMARK    4  A    between atoms: O_5  and  C_6
REMARK    5  A    between atoms: C_6  and  C_7
REMARK    6  A    between atoms: C_7  and  C_8
REMARK    7  A    between atoms: N_16  and  C_17
REMARK    8  A    between atoms: C_17  and  C_18
REMARK    9  A    between atoms: C_21  and  C_22
REMARK   10  A    between atoms: C_22  and  C_23
REMARK   11  A    between atoms: C_22  and  N_24
REMARK   12  A    between atoms: C_25  and  C_26
REMARK                            x       y       z     vdW  Elec       q    Type
REMARK                         _______ _______ _______ _____ _____    ______ ____
ROOT
ATOM      1  C   UNL     1       2.468   6.209  19.824  0.00  0.00    +0.000 A 
ATOM      2  C   UNL     1       2.992   5.816  18.576  0.00  0.00    +0.000 A 
ATOM      3  C   UNL     1       3.026   6.732  17.513  0.00  0.00    +0.000 A 
ATOM      4  C   UNL     1       2.588   8.046  17.686  0.00  0.00    +0.000 A 
ATOM      5  C   UNL     1       2.064   8.446  18.915  0.00  0.00    +0.000 A 
ATOM      6  C   UNL     1       1.984   7.517  19.979  0.00  0.00    +0.000 A 
ATOM      7  C   UNL     1       1.231   7.999  21.190  0.00  0.00    +0.000 C 
ATOM      8  C   UNL     1       0.017   8.772  20.688  0.00  0.00    +0.000 C 
ATOM      9  N   UNL     1       0.367  10.012  19.976  0.00  0.00    +0.000 NA
ATOM     10  C   UNL     1       1.587   9.870  19.143  0.00  0.00    +0.000 C 
ENDROOT
BRANCH   1  12
ATOM     11  C   UNL     1       1.130   4.398  20.575  0.00  0.00    +0.000 C 
ATOM     12  O   UNL     1       2.268   5.234  20.771  0.00  0.00    +0.000 OA
ENDBRANCH   1  12
BRANCH   2  13
ATOM     13  O   UNL     1       3.412   4.511  18.456  0.00  0.00    +0.000 OA
BRANCH  13  14
ATOM     14  C   UNL     1       4.787   4.325  18.106  0.00  0.00    +0.000 C 
BRANCH  14  15
ATOM     15  C   UNL     1       5.639   5.007  19.168  0.00  0.00    +0.000 C 
BRANCH  15  16
ATOM     16  C   UNL     1       6.978   5.439  18.605  0.00  0.00    +0.000 C 
ATOM     17  F   UNL     1       7.441   4.476  17.765  0.00  0.00    +0.000 F 
ENDBRANCH  15  16
ENDBRANCH  14  15
ENDBRANCH  13  14
ENDBRANCH   2  13
BRANCH   9  18
ATOM     18  C   UNL     1       0.526  11.151  20.897  0.00  0.00    +0.000 C 
BRANCH  18  19
ATOM     19  C   UNL     1      -0.771  11.657  21.495  0.00  0.00    +0.000 A 
ATOM     20  C   UNL     1      -1.738  12.273  20.688  0.00  0.00    +0.000 A 
ATOM     21  C   UNL     1      -2.962  12.676  21.228  0.00  0.00    +0.000 A 
ATOM     22  C   UNL     1      -3.240  12.483  22.587  0.00  0.00    +0.000 A 
ATOM     23  C   UNL     1      -2.244  11.919  23.403  0.00  0.00    +0.000 A 
ATOM     24  C   UNL     1      -1.025  11.508  22.863  0.00  0.00    +0.000 A 
BRANCH  22  25
ATOM     25  C   UNL     1      -4.608  12.841  23.142  0.00  0.00    +0.000 C 
ATOM     26  C   UNL     1      -4.761  12.396  24.598  0.00  0.00    +0.000 C 
BRANCH  25  27
ATOM     27  N   UNL     1      -5.646  12.264  22.296  0.00  0.00    +0.000 N 
ATOM     28  C   UNL     1      -6.818  12.916  22.028  0.00  0.00    +0.000 C 
ATOM     29  C   UNL     1      -7.775  12.149  21.150  0.00  0.00    +0.000 C 
ATOM     30  O   UNL     1      -7.101  14.032  22.467  0.00  0.00    +0.000 OA
ATOM     31  H   UNL     1      -5.481  11.348  21.901  0.00  0.00    +0.000 HD
ENDBRANCH  25  27
ENDBRANCH  22  25
ENDBRANCH  18  19
ENDBRANCH   9  18
TORSDOF 9
ENDMDL
MODEL 2
REMARK VINA RESULT:      -7.0      1.544      1.991
REMARK  Name = 
REMARK  12 active torsions:
REMARK  status: ('A' for Active; 'I' for Inactive)
REMARK    1  A    between atoms: C_1  and  O_2
REMARK    2  A    between atoms: O_2  and  C_3
REMARK    3  A    between atoms: C_4  and  O_5
REMARK    4  A    between atoms: O_5  and  C_6
REMARK    5  A    between atoms: C_6  and  C_7
REMARK    6  A    between atoms: C_7  and  C_8
REMARK    7  A    between atoms: N_16  and  C_17
REMARK    8  A    between atoms: C_17  and  C_18
REMARK    9  A    between atoms: C_21  and  C_22
REMARK   10  A    between atoms: C_22  and  C_23
REMARK   11  A    between atoms: C_22  and  N_24
REMARK   12  A    between atoms: C_25  and  C_26
REMARK                            x       y       z     vdW  Elec       q    Type
REMARK                         _______ _______ _______ _____ _____    ______ ____
ROOT
ATOM      1  C   UNL     1       2.553   6.184  19.866  0.00  0.00    +0.000 A 
ATOM      2  C   UNL     1       3.128   5.756  18.651  0.00  0.00    +0.000 A 
ATOM      3  C   UNL     1       3.182   6.635  17.557  0.00  0.00    +0.000 A 
ATOM      4  C   UNL     1       2.716   7.945  17.667  0.00  0.00    +0.000 A 
ATOM      5  C   UNL     1       2.143   8.379  18.863  0.00  0.00    +0.000 A 
ATOM      6  C   UNL     1       2.042   7.488  19.956  0.00  0.00    +0.000 A 
ATOM      7  C   UNL     1       1.240   7.998  21.123  0.00  0.00    +0.000 C 
ATOM      8  C   UNL     1       0.030   8.730  20.552  0.00  0.00    +0.000 C 
ATOM      9  N   UNL     1       0.384   9.951  19.808  0.00  0.00    +0.000 NA
ATOM     10  C   UNL     1       1.635   9.802  19.023  0.00  0.00    +0.000 C 
ENDROOT
BRANCH   1  12
ATOM     11  C   UNL     1       1.155   4.455  20.697  0.00  0.00    +0.000 C 
ATOM     12  O   UNL     1       2.337   5.239  20.839  0.00  0.00    +0.000 OA
ENDBRANCH   1  12
BRANCH   2  13
ATOM     13  O   UNL     1       3.573   4.456  18.593  0.00  0.00    +0.000 OA
BRANCH  13  14
ATOM     14  C   UNL     1       3.441   3.805  17.326  0.00  0.00    +0.000 C 
BRANCH  14  15
ATOM     15  C   UNL     1       3.480   2.301  17.564  0.00  0.00    +0.000 C 
BRANCH  15  16
ATOM     16  C   UNL     1       2.594   1.906  18.728  0.00  0.00    +0.000 C 
ATOM     17  F   UNL     1       1.291   2.022  18.359  0.00  0.00    +0.000 F 
ENDBRANCH  15  16
ENDBRANCH  14  15
ENDBRANCH  13  14
ENDBRANCH   2  13
BRANCH   9  18
ATOM     18  C   UNL     1       0.492  11.125  20.692  0.00  0.00    +0.000 C 
BRANCH  18  19
ATOM     19  C   UNL     1      -0.811  11.533  21.351  0.00  0.00    +0.000 A 
ATOM     20  C   UNL     1      -1.030  11.287  22.713  0.00  0.00    +0.000 A 
ATOM     21  C   UNL     1      -2.202  11.726  23.335  0.00  0.00    +0.000 A 
ATOM     22  C   UNL     1      -3.183  12.409  22.606  0.00  0.00    +0.000 A 
ATOM     23  C   UNL     1      -2.985  12.599  21.227  0.00  0.00    +0.000 A 
ATOM     24  C   UNL     1      -1.811  12.169  20.608  0.00  0.00    +0.000 A 
BRANCH  22  25
ATOM     25  C   UNL     1      -4.410  12.961  23.312  0.00  0.00    +0.000 C 
ATOM     26  C   UNL     1      -4.433  12.575  24.792  0.00  0.00    +0.000 C 
BRANCH  25  27
ATOM     27  N   UNL     1      -5.614  12.509  22.625  0.00  0.00    +0.000 N 
ATOM     28  C   UNL     1      -6.528  13.382  22.100  0.00  0.00    +0.000 C 
ATOM     29  C   UNL     1      -7.717  12.725  21.446  0.00  0.00    +0.000 C 
ATOM     30  O   UNL     1      -6.421  14.608  22.158  0.00  0.00    +0.000 OA
ATOM     31  H   UNL     1      -5.767  11.514  22.540  0.00  0.00    +0.000 HD
ENDBRANCH  25  27
ENDBRANCH  22  25
ENDBRANCH  18  19
ENDBRANCH   9  18
TORSDOF 9
ENDMDL
MODEL 3
REMARK VINA RESULT:      -6.9      1.509      1.577
REMARK  Name = 
REMARK  12 active torsions:
REMARK  status: ('A' for Active; 'I' for Inactive)
REMARK    1  A    between atoms: C_1  and  O_2
REMARK    2  A    between atoms: O_2  and  C_3
REMARK    3  A    between atoms: C_4  and  O_5
REMARK    4  A    between atoms: O_5  and  C_6
REMARK    5  A    between atoms: C_6  and  C_7
REMARK    6  A    between atoms: C_7  and  C_8
REMARK    7  A    between atoms: N_16  and  C_17
REMARK    8  A    between atoms: C_17  and  C_18
REMARK    9  A    between atoms: C_21  and  C_22
REMARK   10  A    between atoms: C_22  and  C_23
REMARK   11  A    between atoms: C_22  and  N_24
REMARK   12  A    between atoms: C_25  and  C_26
REMARK                            x       y       z     vdW  Elec       q    Type
REMARK                         _______ _______ _______ _____ _____    ______ ____
ROOT
ATOM      1  C   UNL     1       2.321   6.585  19.940  0.00  0.00    +0.000 A 
ATOM      2  C   UNL     1       2.857   6.128  18.717  0.00  0.00    +0.000 A 
ATOM      3  C   UNL     1       2.883   6.984  17.604  0.00  0.00    +0.000 A 
ATOM      4  C   UNL     1       2.429   8.299  17.702  0.00  0.00    +0.000 A 
ATOM      5  C   UNL     1       1.894   8.762  18.905  0.00  0.00    +0.000 A 
ATOM      6  C   UNL     1       1.820   7.893  20.018  0.00  0.00    +0.000 A 
ATOM      7  C   UNL     1       1.056   8.432  21.197  0.00  0.00    +0.000 C 
ATOM      8  C   UNL     1      -0.166   9.160  20.647  0.00  0.00    +0.000 C 
ATOM      9  N   UNL     1       0.173  10.363  19.868  0.00  0.00    +0.000 NA
ATOM     10  C   UNL     1       1.399  10.190  19.050  0.00  0.00    +0.000 C 
ENDROOT
BRANCH   1  12
ATOM     11  C   UNL     1       1.159   4.650  20.676  0.00  0.00    +0.000 C 
ATOM     12  O   UNL     1       2.129   5.661  20.939  0.00  0.00    +0.000 OA
ENDBRANCH   1  12
BRANCH   2  13
ATOM     13  O   UNL     1       3.293   4.825  18.673  0.00  0.00    +0.000 OA
BRANCH  13  14
ATOM     14  C   UNL     1       3.071   4.132  17.441  0.00  0.00    +0.000 C 
BRANCH  14  15
ATOM     15  C   UNL     1       3.810   2.802  17.510  0.00  0.00    +0.000 C 
BRANCH  15  16
ATOM     16  C   UNL     1       3.645   2.151  18.869  0.00  0.00    +0.000 C 
ATOM     17  F   UNL     1       2.507   1.408  18.875  0.00  0.00    +0.000 F 
ENDBRANCH  15  16
ENDBRANCH  14  15
ENDBRANCH  13  14
ENDBRANCH   2  13
BRANCH   9  18
ATOM     18  C   UNL     1       0.313  11.554  20.724  0.00  0.00    +0.000 C 
BRANCH  18  19
ATOM     19  C   UNL     1      -0.965  11.979  21.420  0.00  0.00    +0.000 A 
ATOM     20  C   UNL     1      -2.032  12.516  20.687  0.00  0.00    +0.000 A 
ATOM     21  C   UNL     1      -3.235  12.842  21.318  0.00  0.00    +0.000 A 
ATOM     22  C   UNL     1      -3.392  12.649  22.696  0.00  0.00    +0.000 A 
ATOM     23  C   UNL     1      -2.298  12.167  23.436  0.00  0.00    +0.000 A 
ATOM     24  C   UNL     1      -1.100  11.832  22.805  0.00  0.00    +0.000 A 
BRANCH  22  25
ATOM     25  C   UNL     1      -4.734  12.921  23.356  0.00  0.00    +0.000 C 
ATOM     26  C   UNL     1      -4.774  12.396  24.792  0.00  0.00    +0.000 C 
BRANCH  25  27
ATOM     27  N   UNL     1      -5.801  12.346  22.546  0.00  0.00    +0.000 N 
ATOM     28  C   UNL     1      -6.900  13.067  22.165  0.00  0.00    +0.000 C 
ATOM     29  C   UNL     1      -7.904  12.292  21.349  0.00  0.00    +0.000 C 
ATOM     30  O   UNL     1      -7.085  14.247  22.463  0.00  0.00    +0.000 OA
ATOM     31  H   UNL     1      -5.715  11.378  22.265  0.00  0.00    +0.000 HD
ENDBRANCH  25  27
ENDBRANCH  22  25
ENDBRANCH  18  19
ENDBRANCH   9  18
TORSDOF 9
ENDMDL
MODEL 4
REMARK VINA RESULT:      -6.8      4.618     11.177
REMARK  Name = 
REMARK  12 active torsions:
REMARK  status: ('A' for Active; 'I' for Inactive)
REMARK    1  A    between atoms: C_1  and  O_2
REMARK    2  A    between atoms: O_2  and  C_3
REMARK    3  A    between atoms: C_4  and  O_5
REMARK    4  A    between atoms: O_5  and  C_6
REMARK    5  A    between atoms: C_6  and  C_7
REMARK    6  A    between atoms: C_7  and  C_8
REMARK    7  A    between atoms: N_16  and  C_17
REMARK    8  A    between atoms: C_17  and  C_18
REMARK    9  A    between atoms: C_21  and  C_22
REMARK   10  A    between atoms: C_22  and  C_23
REMARK   11  A    between atoms: C_22  and  N_24
REMARK   12  A    between atoms: C_25  and  C_26
REMARK                            x       y       z     vdW  Elec       q    Type
REMARK                         _______ _______ _______ _____ _____    ______ ____
ROOT
ATOM      1  C   UNL     1       0.906   9.767  19.576  0.00  0.00    +0.000 A 
ATOM      2  C   UNL     1      -0.017   9.853  20.638  0.00  0.00    +0.000 A 
ATOM      3  C   UNL     1      -0.101   8.810  21.575  0.00  0.00    +0.000 A 
ATOM      4  C   UNL     1       0.750   7.707  21.497  0.00  0.00    +0.000 A 
ATOM      5  C   UNL     1       1.665   7.610  20.448  0.00  0.00    +0.000 A 
ATOM      6  C   UNL     1       1.726   8.633  19.473  0.00  0.00    +0.000 A 
ATOM      7  C   UNL     1       2.608   8.336  18.291  0.00  0.00    +0.000 C 
ATOM      8  C   UNL     1       2.392   6.871  17.925  0.00  0.00    +0.000 C 
ATOM      9  N   UNL     1       2.863   5.935  18.959  0.00  0.00    +0.000 NA
ATOM     10  C   UNL     1       2.614   6.429  20.337  0.00  0.00    +0.000 C 
ENDROOT
BRANCH   1  12
ATOM     11  C   UNL     1       1.859  11.678  18.537  0.00  0.00    +0.000 C 
ATOM     12  O   UNL     1       0.818  10.705  18.575  0.00  0.00    +0.000 OA
ENDBRANCH   1  12
BRANCH   2  13
ATOM     13  O   UNL     1      -0.832  10.960  20.673  0.00  0.00    +0.000 OA
BRANCH  13  14
ATOM     14  C   UNL     1      -0.364  12.058  21.463  0.00  0.00    +0.000 C 
BRANCH  14  15
ATOM     15  C   UNL     1      -1.069  13.318  20.979  0.00  0.00    +0.000 C 
BRANCH  15  16
ATOM     16  C   UNL     1      -1.723  13.100  19.630  0.00  0.00    +0.000 C 
ATOM     17  F   UNL     1      -0.858  13.466  18.648  0.00  0.00    +0.000 F 
ENDBRANCH  15  16
ENDBRANCH  14  15
ENDBRANCH  13  14
ENDBRANCH   2  13
BRANCH   9  18
ATOM     18  C   UNL     1       4.291   5.610  18.800  0.00  0.00    +0.000 C 
BRANCH  18  19
ATOM     19  C   UNL     1       4.682   5.172  17.403  0.00  0.00    +0.000 A 
ATOM     20  C   UNL     1       5.376   6.041  16.550  0.00  0.00    +0.000 A 
ATOM     21  C   UNL     1       5.796   5.613  15.288  0.00  0.00    +0.000 A 
ATOM     22  C   UNL     1       5.522   4.312  14.848  0.00  0.00    +0.000 A 
ATOM     23  C   UNL     1       4.774   3.465  15.684  0.00  0.00    +0.000 A 
ATOM     24  C   UNL     1       4.361   3.888  16.948  0.00  0.00    +0.000 A 
BRANCH  22  25
ATOM     25  C   UNL     1       6.063   3.829  13.514  0.00  0.00    +0.000 C 
ATOM     26  C   UNL     1       7.239   4.685  13.037  0.00  0.00    +0.000 C 
BRANCH  25  27
ATOM     27  N   UNL     1       4.988   3.806  12.530  0.00  0.00    +0.000 N 
ATOM     28  C   UNL     1       4.896   2.835  11.569  0.00  0.00    +0.000 C 
ATOM     29  C   UNL     1       3.726   2.992  10.631  0.00  0.00    +0.000 C 
ATOM     30  O   UNL     1       5.697   1.908  11.450  0.00  0.00    +0.000 OA
ATOM     31  H   UNL     1       4.292   4.538  12.569  0.00  0.00    +0.000 HD
ENDBRANCH  25  27
ENDBRANCH  22  25
ENDBRANCH  18  19
ENDBRANCH   9  18
TORSDOF 9
ENDMDL
MODEL 5
REMARK VINA RESULT:      -6.8      2.463      3.794
REMARK  Name = 
REMARK  12 active torsions:
REMARK  status: ('A' for Active; 'I' for Inactive)
REMARK    1  A    between atoms: C_1  and  O_2
REMARK    2  A    between atoms: O_2  and  C_3
REMARK    3  A    between atoms: C_4  and  O_5
REMARK    4  A    between atoms: O_5  and  C_6
REMARK    5  A    between atoms: C_6  and  C_7
REMARK    6  A    between atoms: C_7  and  C_8
REMARK    7  A    between atoms: N_16  and  C_17
REMARK    8  A    between atoms: C_17  and  C_18
REMARK    9  A    between atoms: C_21  and  C_22
REMARK   10  A    between atoms: C_22  and  C_23
REMARK   11  A    between atoms: C_22  and  N_24
REMARK   12  A    between atoms: C_25  and  C_26
REMARK                            x       y       z     vdW  Elec       q    Type
REMARK                         _______ _______ _______ _____ _____    ______ ____
ROOT
ATOM      1  C   UNL     1       4.606   4.571  18.025  0.00  0.00    +0.000 A 
ATOM      2  C   UNL     1       5.136   5.048  16.808  0.00  0.00    +0.000 A 
ATOM      3  C   UNL     1       4.839   6.352  16.381  0.00  0.00    +0.000 A 
ATOM      4  C   UNL     1       4.062   7.203  17.167  0.00  0.00    +0.000 A 
ATOM      5  C   UNL     1       3.530   6.742  18.372  0.00  0.00    +0.000 A 
ATOM      6  C   UNL     1       3.785   5.415  18.789  0.00  0.00    +0.000 A 
ATOM      7  C   UNL     1       3.010   4.967  19.998  0.00  0.00    +0.000 C 
ATOM      8  C   UNL     1       1.596   5.521  19.857  0.00  0.00    +0.000 C 
ATOM      9  N   UNL     1       1.535   6.991  19.926  0.00  0.00    +0.000 NA
ATOM     10  C   UNL     1       2.688   7.644  19.258  0.00  0.00    +0.000 C 
ENDROOT
BRANCH   1  12
ATOM     11  C   UNL     1       3.676   2.390  17.903  0.00  0.00    +0.000 C 
ATOM     12  O   UNL     1       4.752   3.234  18.307  0.00  0.00    +0.000 OA
ENDBRANCH   1  12
BRANCH   2  13
ATOM     13  O   UNL     1       5.897   4.171  16.071  0.00  0.00    +0.000 OA
BRANCH  13  14
ATOM     14  C   UNL     1       6.393   4.668  14.824  0.00  0.00    +0.000 C 
BRANCH  14  15
ATOM     15  C   UNL     1       5.962   3.703  13.728  0.00  0.00    +0.000 C 
BRANCH  15  16
ATOM     16  C   UNL     1       6.587   4.068  12.397  0.00  0.00    +0.000 C 
ATOM     17  F   UNL     1       7.632   4.912  12.609  0.00  0.00    +0.000 F 
ENDBRANCH  15  16
ENDBRANCH  14  15
ENDBRANCH  13  14
ENDBRANCH   2  13
BRANCH   9  18
ATOM     18  C   UNL     1       1.428   7.474  21.314  0.00  0.00    +0.000 C 
BRANCH  18  19
ATOM     19  C   UNL     1       0.615   8.743  21.473  0.00  0.00    +0.000 A 
ATOM     20  C   UNL     1       0.179   9.158  22.739  0.00  0.00    +0.000 A 
ATOM     21  C   UNL     1      -0.510  10.363  22.893  0.00  0.00    +0.000 A 
ATOM     22  C   UNL     1      -0.788  11.173  21.785  0.00  0.00    +0.000 A 
ATOM     23  C   UNL     1      -0.401  10.723  20.511  0.00  0.00    +0.000 A 
ATOM     24  C   UNL     1       0.295   9.524  20.357  0.00  0.00    +0.000 A 
BRANCH  22  25
ATOM     25  C   UNL     1      -1.457  12.524  21.977  0.00  0.00    +0.000 C 
ATOM     26  C   UNL     1      -0.438  13.665  21.971  0.00  0.00    +0.000 C 
BRANCH  25  27
ATOM     27  N   UNL     1      -2.237  12.512  23.208  0.00  0.00    +0.000 N 
ATOM     28  C   UNL     1      -3.604  12.435  23.207  0.00  0.00    +0.000 C 
ATOM     29  C   UNL     1      -4.232  12.457  24.578  0.00  0.00    +0.000 C 
ATOM     30  O   UNL     1      -4.288  12.368  22.186  0.00  0.00    +0.000 OA
ATOM     31  H   UNL     1      -1.740  12.565  24.086  0.00  0.00    +0.000 HD
ENDBRANCH  25  27
ENDBRANCH  22  25
ENDBRANCH  18  19
ENDBRANCH   9  18
TORSDOF 9
ENDMDL
MODEL 6
REMARK VINA RESULT:      -6.8      4.856     11.263
REMARK  Name = 
REMARK  12 active torsions:
REMARK  status: ('A' for Active; 'I' for Inactive)
REMARK    1  A    between atoms: C_1  and  O_2
REMARK    2  A    between atoms: O_2  and  C_3
REMARK    3  A    between atoms: C_4  and  O_5
REMARK    4  A    between atoms: O_5  and  C_6
REMARK    5  A    between atoms: C_6  and  C_7
REMARK    6  A    between atoms: C_7  and  C_8
REMARK    7  A    between atoms: N_16  and  C_17
REMARK    8  A    between atoms: C_17  and  C_18
REMARK    9  A    between atoms: C_21  and  C_22
REMARK   10  A    between atoms: C_22  and  C_23
REMARK   11  A    between atoms: C_22  and  N_24
REMARK   12  A    between atoms: C_25  and  C_26
REMARK                            x       y       z     vdW  Elec       q    Type
REMARK                         _______ _______ _______ _____ _____    ______ ____
ROOT
ATOM      1  C   UNL     1       0.943  10.447  19.339  0.00  0.00    +0.000 A 
ATOM      2  C   UNL     1      -0.049  10.717  20.304  0.00  0.00    +0.000 A 
ATOM      3  C   UNL     1      -0.346   9.758  21.286  0.00  0.00    +0.000 A 
ATOM      4  C   UNL     1       0.360   8.556  21.350  0.00  0.00    +0.000 A 
ATOM      5  C   UNL     1       1.342   8.277  20.398  0.00  0.00    +0.000 A 
ATOM      6  C   UNL     1       1.616   9.216  19.378  0.00  0.00    +0.000 A 
ATOM      7  C   UNL     1       2.551   8.733  18.302  0.00  0.00    +0.000 C 
ATOM      8  C   UNL     1       2.181   7.285  18.001  0.00  0.00    +0.000 C 
ATOM      9  N   UNL     1       2.438   6.371  19.126  0.00  0.00    +0.000 NA
ATOM     10  C   UNL     1       2.137   6.984  20.444  0.00  0.00    +0.000 C 
ENDROOT
BRANCH   1  12
ATOM     11  C   UNL     1       2.081  12.307  18.399  0.00  0.00    +0.000 C 
ATOM     12  O   UNL     1       1.062  11.317  18.282  0.00  0.00    +0.000 OA
ENDBRANCH   1  12
BRANCH   2  13
ATOM     13  O   UNL     1      -0.715  11.915  20.199  0.00  0.00    +0.000 OA
BRANCH  13  14
ATOM     14  C   UNL     1      -2.052  11.846  19.692  0.00  0.00    +0.000 C 
BRANCH  14  15
ATOM     15  C   UNL     1      -2.950  12.649  20.625  0.00  0.00    +0.000 C 
BRANCH  15  16
ATOM     16  C   UNL     1      -4.392  12.619  20.160  0.00  0.00    +0.000 C 
ATOM     17  F   UNL     1      -5.158  13.325  21.033  0.00  0.00    +0.000 F 
ENDBRANCH  15  16
ENDBRANCH  14  15
ENDBRANCH  13  14
ENDBRANCH   2  13
BRANCH   9  18
ATOM     18  C   UNL     1       3.821   5.863  19.120  0.00  0.00    +0.000 C 
BRANCH  18  19
ATOM     19  C   UNL     1       4.308   5.388  17.766  0.00  0.00    +0.000 A 
ATOM     20  C   UNL     1       4.891   6.287  16.861  0.00  0.00    +0.000 A 
ATOM     21  C   UNL     1       5.401   5.836  15.641  0.00  0.00    +0.000 A 
ATOM     22  C   UNL     1       5.331   4.481  15.295  0.00  0.00    +0.000 A 
ATOM     23  C   UNL     1       4.692   3.594  16.180  0.00  0.00    +0.000 A 
ATOM     24  C   UNL     1       4.189   4.043  17.402  0.00  0.00    +0.000 A 
BRANCH  22  25
ATOM     25  C   UNL     1       5.971   3.988  14.009  0.00  0.00    +0.000 C 
ATOM     26  C   UNL     1       7.228   4.787  13.661  0.00  0.00    +0.000 C 
BRANCH  25  27
ATOM     27  N   UNL     1       4.994   4.034  12.928  0.00  0.00    +0.000 N 
ATOM     28  C   UNL     1       4.989   3.123  11.907  0.00  0.00    +0.000 C 
ATOM     29  C   UNL     1       3.915   3.347  10.873  0.00  0.00    +0.000 C 
ATOM     30  O   UNL     1       5.793   2.195  11.809  0.00  0.00    +0.000 OA
ATOM     31  H   UNL     1       4.302   4.771  12.944  0.00  0.00    +0.000 HD
ENDBRANCH  25  27
ENDBRANCH  22  25
ENDBRANCH  18  19
ENDBRANCH   9  18
TORSDOF 9
ENDMDL
MODEL 7
REMARK VINA RESULT:      -6.7      4.543     11.119
REMARK  Name = 
REMARK  12 active torsions:
REMARK  status: ('A' for Active; 'I' for Inactive)
REMARK    1  A    between atoms: C_1  and  O_2
REMARK    2  A    between atoms: O_2  and  C_3
REMARK    3  A    between atoms: C_4  and  O_5
REMARK    4  A    between atoms: O_5  and  C_6
REMARK    5  A    between atoms: C_6  and  C_7
REMARK    6  A    between atoms: C_7  and  C_8
REMARK    7  A    between atoms: N_16  and  C_17
REMARK    8  A    between atoms: C_17  and  C_18
REMARK    9  A    between atoms: C_21  and  C_22
REMARK   10  A    between atoms: C_22  and  C_23
REMARK   11  A    between atoms: C_22  and  N_24
REMARK   12  A    between atoms: C_25  and  C_26
REMARK                            x       y       z     vdW  Elec       q    Type
REMARK                         _______ _______ _______ _____ _____    ______ ____
ROOT
ATOM      1  C   UNL     1       1.328   9.639  19.116  0.00  0.00    +0.000 A 
ATOM      2  C   UNL     1       0.316  10.065  19.999  0.00  0.00    +0.000 A 
ATOM      3  C   UNL     1      -0.066   9.243  21.072  0.00  0.00    +0.000 A 
ATOM      4  C   UNL     1       0.576   8.027  21.305  0.00  0.00    +0.000 A 
ATOM      5  C   UNL     1       1.578   7.593  20.436  0.00  0.00    +0.000 A 
ATOM      6  C   UNL     1       1.937   8.392  19.326  0.00  0.00    +0.000 A 
ATOM      7  C   UNL     1       2.886   7.744  18.354  0.00  0.00    +0.000 C 
ATOM      8  C   UNL     1       2.455   6.288  18.207  0.00  0.00    +0.000 C 
ATOM      9  N   UNL     1       2.624   5.502  19.441  0.00  0.00    +0.000 NA
ATOM     10  C   UNL     1       2.305   6.279  20.665  0.00  0.00    +0.000 C 
ENDROOT
BRANCH   1  12
ATOM     11  C   UNL     1       2.397  11.497  18.096  0.00  0.00    +0.000 C 
ATOM     12  O   UNL     1       1.530  10.372  17.971  0.00  0.00    +0.000 OA
ENDBRANCH   1  12
BRANCH   2  13
ATOM     13  O   UNL     1      -0.285  11.272  19.728  0.00  0.00    +0.000 OA
BRANCH  13  14
ATOM     14  C   UNL     1      -1.513  11.529  20.416  0.00  0.00    +0.000 C 
BRANCH  14  15
ATOM     15  C   UNL     1      -1.320  12.776  21.270  0.00  0.00    +0.000 C 
BRANCH  15  16
ATOM     16  C   UNL     1      -1.016  12.414  22.710  0.00  0.00    +0.000 C 
ATOM     17  F   UNL     1      -2.078  12.749  23.489  0.00  0.00    +0.000 F 
ENDBRANCH  15  16
ENDBRANCH  14  15
ENDBRANCH  13  14
ENDBRANCH   2  13
BRANCH   9  18
ATOM     18  C   UNL     1       3.979   4.935  19.553  0.00  0.00    +0.000 C 
BRANCH  18  19
ATOM     19  C   UNL     1       4.638   4.622  18.225  0.00  0.00    +0.000 A 
ATOM     20  C   UNL     1       3.970   3.857  17.259  0.00  0.00    +0.000 A 
ATOM     21  C   UNL     1       4.550   3.627  16.009  0.00  0.00    +0.000 A 
ATOM     22  C   UNL     1       5.813   4.147  15.702  0.00  0.00    +0.000 A 
ATOM     23  C   UNL     1       6.504   4.863  16.696  0.00  0.00    +0.000 A 
ATOM     24  C   UNL     1       5.922   5.100  17.942  0.00  0.00    +0.000 A 
BRANCH  22  25
ATOM     25  C   UNL     1       6.393   3.969  14.309  0.00  0.00    +0.000 C 
ATOM     26  C   UNL     1       7.347   5.107  13.944  0.00  0.00    +0.000 C 
BRANCH  25  27
ATOM     27  N   UNL     1       5.310   3.849  13.341  0.00  0.00    +0.000 N 
ATOM     28  C   UNL     1       5.464   3.195  12.148  0.00  0.00    +0.000 C 
ATOM     29  C   UNL     1       4.236   3.195  11.272  0.00  0.00    +0.000 C 
ATOM     30  O   UNL     1       6.511   2.656  11.790  0.00  0.00    +0.000 OA
ATOM     31  H   UNL     1       4.420   4.269  13.570  0.00  0.00    +0.000 HD
ENDBRANCH  25  27
ENDBRANCH  22  25
ENDBRANCH  18  19
ENDBRANCH   9  18
TORSDOF 9
ENDMDL
MODEL 8
REMARK VINA RESULT:      -6.7      4.216     10.992
REMARK  Name = 
REMARK  12 active torsions:
REMARK  status: ('A' for Active; 'I' for Inactive)
REMARK    1  A    between atoms: C_1  and  O_2
REMARK    2  A    between atoms: O_2  and  C_3
REMARK    3  A    between atoms: C_4  and  O_5
REMARK    4  A    between atoms: O_5  and  C_6
REMARK    5  A    between atoms: C_6  and  C_7
REMARK    6  A    between atoms: C_7  and  C_8
REMARK    7  A    between atoms: N_16  and  C_17
REMARK    8  A    between atoms: C_17  and  C_18
REMARK    9  A    between atoms: C_21  and  C_22
REMARK   10  A    between atoms: C_22  and  C_23
REMARK   11  A    between atoms: C_22  and  N_24
REMARK   12  A    between atoms: C_25  and  C_26
REMARK                            x       y       z     vdW  Elec       q    Type
REMARK                         _______ _______ _______ _____ _____    ______ ____
ROOT
ATOM      1  C   UNL     1      -0.484  10.631  21.512  0.00  0.00    +0.000 A 
ATOM      2  C   UNL     1      -0.461  12.033  21.357  0.00  0.00    +0.000 A 
ATOM      3  C   UNL     1       0.222  12.603  20.271  0.00  0.00    +0.000 A 
ATOM      4  C   UNL     1       0.844  11.799  19.314  0.00  0.00    +0.000 A 
ATOM      5  C   UNL     1       0.830  10.411  19.459  0.00  0.00    +0.000 A 
ATOM      6  C   UNL     1       0.183   9.829  20.574  0.00  0.00    +0.000 A 
ATOM      7  C   UNL     1       0.394   8.348  20.731  0.00  0.00    +0.000 C 
ATOM      8  C   UNL     1       1.853   8.062  20.392  0.00  0.00    +0.000 C 
ATOM      9  N   UNL     1       2.185   8.316  18.981  0.00  0.00    +0.000 NA
ATOM     10  C   UNL     1       1.487   9.505  18.432  0.00  0.00    +0.000 C 
ENDROOT
BRANCH   1  12
ATOM     11  C   UNL     1      -0.033   9.558  23.581  0.00  0.00    +0.000 C 
ATOM     12  O   UNL     1      -0.987  10.126  22.687  0.00  0.00    +0.000 OA
ENDBRANCH   1  12
BRANCH   2  13
ATOM     13  O   UNL     1      -1.089  12.781  22.325  0.00  0.00    +0.000 OA
BRANCH  13  14
ATOM     14  C   UNL     1      -2.496  12.973  22.154  0.00  0.00    +0.000 C 
BRANCH  14  15
ATOM     15  C   UNL     1      -3.012  13.761  23.350  0.00  0.00    +0.000 C 
BRANCH  15  16
ATOM     16  C   UNL     1      -4.167  13.047  24.023  0.00  0.00    +0.000 C 
ATOM     17  F   UNL     1      -3.773  11.796  24.379  0.00  0.00    +0.000 F 
ENDBRANCH  15  16
ENDBRANCH  14  15
ENDBRANCH  13  14
ENDBRANCH   2  13
BRANCH   9  18
ATOM     18  C   UNL     1       1.912   7.145  18.129  0.00  0.00    +0.000 C 
BRANCH  18  19
ATOM     19  C   UNL     1       3.152   6.443  17.615  0.00  0.00    +0.000 A 
ATOM     20  C   UNL     1       4.211   7.177  17.060  0.00  0.00    +0.000 A 
ATOM     21  C   UNL     1       5.382   6.535  16.650  0.00  0.00    +0.000 A 
ATOM     22  C   UNL     1       5.516   5.147  16.775  0.00  0.00    +0.000 A 
ATOM     23  C   UNL     1       4.429   4.410  17.276  0.00  0.00    +0.000 A 
ATOM     24  C   UNL     1       3.262   5.050  17.694  0.00  0.00    +0.000 A 
BRANCH  22  25
ATOM     25  C   UNL     1       6.828   4.473  16.412  0.00  0.00    +0.000 C 
ATOM     26  C   UNL     1       7.809   4.475  17.585  0.00  0.00    +0.000 C 
BRANCH  25  27
ATOM     27  N   UNL     1       7.401   5.119  15.237  0.00  0.00    +0.000 N 
ATOM     28  C   UNL     1       7.133   4.693  13.964  0.00  0.00    +0.000 C 
ATOM     29  C   UNL     1       7.835   5.476  12.882  0.00  0.00    +0.000 C 
ATOM     30  O   UNL     1       6.396   3.744  13.698  0.00  0.00    +0.000 OA
ATOM     31  H   UNL     1       8.017   5.907  15.381  0.00  0.00    +0.000 HD
ENDBRANCH  25  27
ENDBRANCH  22  25
ENDBRANCH  18  19
ENDBRANCH   9  18
TORSDOF 9
ENDMDL
MODEL 9
REMARK VINA RESULT:      -6.7      0.917      1.303
REMARK  Name = 
REMARK  12 active torsions:
REMARK  status: ('A' for Active; 'I' for Inactive)
REMARK    1  A    between atoms: C_1  and  O_2
REMARK    2  A    between atoms: O_2  and  C_3
REMARK    3  A    between atoms: C_4  and  O_5
REMARK    4  A    between atoms: O_5  and  C_6
REMARK    5  A    between atoms: C_6  and  C_7
REMARK    6  A    between atoms: C_7  and  C_8
REMARK    7  A    between atoms: N_16  and  C_17
REMARK    8  A    between atoms: C_17  and  C_18
REMARK    9  A    between atoms: C_21  and  C_22
REMARK   10  A    between atoms: C_22  and  C_23
REMARK   11  A    between atoms: C_22  and  N_24
REMARK   12  A    between atoms: C_25  and  C_26
REMARK                            x       y       z     vdW  Elec       q    Type
REMARK                         _______ _______ _______ _____ _____    ______ ____
ROOT
ATOM      1  C   UNL     1       2.414   6.140  19.979  0.00  0.00    +0.000 A 
ATOM      2  C   UNL     1       2.950   5.899  18.697  0.00  0.00    +0.000 A 
ATOM      3  C   UNL     1       2.902   6.906  17.719  0.00  0.00    +0.000 A 
ATOM      4  C   UNL     1       2.370   8.162  18.012  0.00  0.00    +0.000 A 
ATOM      5  C   UNL     1       1.834   8.412  19.276  0.00  0.00    +0.000 A 
ATOM      6  C   UNL     1       1.837   7.389  20.253  0.00  0.00    +0.000 A 
ATOM      7  C   UNL     1       1.066   7.704  21.507  0.00  0.00    +0.000 C 
ATOM      8  C   UNL     1      -0.209   8.425  21.083  0.00  0.00    +0.000 C 
ATOM      9  N   UNL     1       0.040   9.746  20.482  0.00  0.00    +0.000 NA
ATOM     10  C   UNL     1       1.256   9.771  19.632  0.00  0.00    +0.000 C 
ENDROOT
BRANCH   1  12
ATOM     11  C   UNL     1       1.182   4.214  20.617  0.00  0.00    +0.000 C 
ATOM     12  O   UNL     1       2.300   5.072  20.835  0.00  0.00    +0.000 OA
ENDBRANCH   1  12
BRANCH   2  13
ATOM     13  O   UNL     1       3.464   4.646  18.458  0.00  0.00    +0.000 OA
BRANCH  13  14
ATOM     14  C   UNL     1       4.779   4.401  18.965  0.00  0.00    +0.000 C 
BRANCH  14  15
ATOM     15  C   UNL     1       5.772   4.655  17.839  0.00  0.00    +0.000 C 
BRANCH  15  16
ATOM     16  C   UNL     1       7.016   5.354  18.349  0.00  0.00    +0.000 C 
ATOM     17  F   UNL     1       6.867   5.622  19.673  0.00  0.00    +0.000 F 
ENDBRANCH  15  16
ENDBRANCH  14  15
ENDBRANCH  13  14
ENDBRANCH   2  13
BRANCH   9  18
ATOM     18  C   UNL     1       0.126  10.808  21.500  0.00  0.00    +0.000 C 
BRANCH  18  19
ATOM     19  C   UNL     1      -1.186  11.513  21.781  0.00  0.00    +0.000 A 
ATOM     20  C   UNL     1      -1.736  11.511  23.071  0.00  0.00    +0.000 A 
ATOM     21  C   UNL     1      -2.909  12.219  23.344  0.00  0.00    +0.000 A 
ATOM     22  C   UNL     1      -3.563  12.934  22.332  0.00  0.00    +0.000 A 
ATOM     23  C   UNL     1      -3.040  12.883  21.028  0.00  0.00    +0.000 A 
ATOM     24  C   UNL     1      -1.863  12.183  20.757  0.00  0.00    +0.000 A 
BRANCH  22  25
ATOM     25  C   UNL     1      -4.785  13.775  22.661  0.00  0.00    +0.000 C 
ATOM     26  C   UNL     1      -4.477  14.828  23.727  0.00  0.00    +0.000 C 
BRANCH  25  27
ATOM     27  N   UNL     1      -5.880  12.905  23.072  0.00  0.00    +0.000 N 
ATOM     28  C   UNL     1      -6.853  12.494  22.202  0.00  0.00    +0.000 C 
ATOM     29  C   UNL     1      -7.912  11.614  22.819  0.00  0.00    +0.000 C 
ATOM     30  O   UNL     1      -6.893  12.813  21.013  0.00  0.00    +0.000 OA
ATOM     31  H   UNL     1      -5.911  12.602  24.036  0.00  0.00    +0.000 HD
ENDBRANCH  25  27
ENDBRANCH  22  25
ENDBRANCH  18  19
ENDBRANCH   9  18
TORSDOF 9
ENDMDL
