MODEL 1
REMARK VINA RESULT:      -6.6      0.000      0.000
REMARK  Name = 
REMARK  9 active torsions:
REMARK  status: ('A' for Active; 'I' for Inactive)
REMARK    1  A    between atoms: C_1  and  C_2
REMARK    2  A    between atoms: C_2  and  O_3
REMARK    3  A    between atoms: O_3  and  C_4
REMARK    4  A    between atoms: C_4  and  C_6
REMARK    5  A    between atoms: C_7  and  C_8
REMARK    6  A    between atoms: C_12  and  C_13
REMARK    7  A    between atoms: N_15  and  C_16
REMARK    8  A    between atoms: C_16  and  C_17
REMARK    9  A    between atoms: C_18  and  N_19
REMARK                            x       y       z     vdW  Elec       q    Type
REMARK                         _______ _______ _______ _____ _____    ______ ____
ROOT
ATOM      1  C   UNL     1       4.531   5.679  17.061  0.00  0.00    +0.000 A 
ATOM      2  C   UNL     1       3.551   6.317  17.840  0.00  0.00    +0.000 A 
ATOM      3  C   UNL     1       3.277   7.794  17.854  0.00  0.00    +0.000 C 
ATOM      4  N   UNL     1       2.731   5.653  18.692  0.00  0.00    +0.000 NA
ATOM      5  C   UNL     1       2.903   4.322  18.718  0.00  0.00    +0.000 A 
ATOM      6  C   UNL     1       3.825   3.568  18.008  0.00  0.00    +0.000 A 
ATOM      7  C   UNL     1       3.561   2.224  18.430  0.00  0.00    +0.000 A 
ATOM      8  C   UNL     1       4.200   0.946  18.032  0.00  0.00    +0.000 C 
ATOM      9  N   UNL     1       2.554   2.160  19.316  0.00  0.00    +0.000 NA
ATOM     10  N   UNL     1       2.186   3.444  19.481  0.00  0.00    +0.000 N 
ATOM     11  C   UNL     1       4.702   4.261  17.141  0.00  0.00    +0.000 A 
ENDROOT
BRANCH  11  12
ATOM     12  N   UNL     1       5.770   3.631  16.476  0.00  0.00    +0.000 N 
ATOM     13  H   UNL     1       6.504   3.241  17.049  0.00  0.00    +0.000 HD
ATOM     14  H   UNL     1       5.462   2.989  15.737  0.00  0.00    +0.000 HD
ENDBRANCH  11  12
BRANCH   1  15
ATOM     15  C   UNL     1       5.398   6.400  16.089  0.00  0.00    +0.000 C 
ATOM     16  O   UNL     1       4.984   6.899  15.054  0.00  0.00    +0.000 OA
BRANCH  15  17
ATOM     17  O   UNL     1       6.695   6.289  16.456  0.00  0.00    +0.000 OA
BRANCH  17  19
ATOM     18  C   UNL     1       7.772   6.381  18.550  0.00  0.00    +0.000 C 
ATOM     19  C   UNL     1       7.145   7.213  17.452  0.00  0.00    +0.000 C 
ENDBRANCH  17  19
ENDBRANCH  15  17
ENDBRANCH   1  15
BRANCH  10  20
ATOM     20  C   UNL     1       1.142   3.782  20.426  0.00  0.00    +0.000 C 
ATOM     21  C   UNL     1       1.182   2.923  21.678  0.00  0.00    +0.000 C 
ENDBRANCH  10  20
TORSDOF 5
ENDMDL
MODEL 2
REMARK VINA RESULT:      -6.4      2.210      3.384
REMARK  Name = 
REMARK  9 active torsions:
REMARK  status: ('A' for Active; 'I' for Inactive)
REMARK    1  A    between atoms: C_1  and  C_2
REMARK    2  A    between atoms: C_2  and  O_3
REMARK    3  A    between atoms: O_3  and  C_4
REMARK    4  A    between atoms: C_4  and  C_6
REMARK    5  A    between atoms: C_7  and  C_8
REMARK    6  A    between atoms: C_12  and  C_13
REMARK    7  A    between atoms: N_15  and  C_16
REMARK    8  A    between atoms: C_16  and  C_17
REMARK    9  A    between atoms: C_18  and  N_19
REMARK                            x       y       z     vdW  Elec       q    Type
REMARK                         _______ _______ _______ _____ _____    ______ ____
ROOT
ATOM      1  C   UNL     1       5.470   4.977  18.072  0.00  0.00    +0.000 A 
ATOM      2  C   UNL     1       5.095   6.305  17.806  0.00  0.00    +0.000 A 
ATOM      3  C   UNL     1       5.795   7.231  16.851  0.00  0.00    +0.000 C 
ATOM      4  N   UNL     1       4.040   6.912  18.402  0.00  0.00    +0.000 NA
ATOM      5  C   UNL     1       3.351   6.137  19.255  0.00  0.00    +0.000 A 
ATOM      6  C   UNL     1       3.609   4.821  19.609  0.00  0.00    +0.000 A 
ATOM      7  C   UNL     1       2.571   4.512  20.546  0.00  0.00    +0.000 A 
ATOM      8  C   UNL     1       2.281   3.259  21.286  0.00  0.00    +0.000 C 
ATOM      9  N   UNL     1       1.739   5.549  20.741  0.00  0.00    +0.000 NA
ATOM     10  N   UNL     1       2.245   6.520  19.959  0.00  0.00    +0.000 N 
ATOM     11  C   UNL     1       4.728   4.195  19.010  0.00  0.00    +0.000 A 
ENDROOT
BRANCH  11  12
ATOM     12  N   UNL     1       5.177   2.916  19.390  0.00  0.00    +0.000 N 
ATOM     13  H   UNL     1       6.125   2.841  19.726  0.00  0.00    +0.000 HD
ATOM     14  H   UNL     1       4.506   2.413  19.982  0.00  0.00    +0.000 HD
ENDBRANCH  11  12
BRANCH   1  15
ATOM     15  C   UNL     1       6.598   4.294  17.381  0.00  0.00    +0.000 C 
ATOM     16  O   UNL     1       7.749   4.304  17.791  0.00  0.00    +0.000 OA
BRANCH  15  17
ATOM     17  O   UNL     1       6.182   3.801  16.192  0.00  0.00    +0.000 OA
BRANCH  17  19
ATOM     18  C   UNL     1       5.956   3.950  13.851  0.00  0.00    +0.000 C 
ATOM     19  C   UNL     1       6.814   4.350  15.031  0.00  0.00    +0.000 C 
ENDBRANCH  17  19
ENDBRANCH  15  17
ENDBRANCH   1  15
BRANCH  10  20
ATOM     20  C   UNL     1       1.633   7.833  19.949  0.00  0.00    +0.000 C 
ATOM     21  C   UNL     1       1.102   8.243  21.312  0.00  0.00    +0.000 C 
ENDBRANCH  10  20
TORSDOF 5
ENDMDL
MODEL 3
REMARK VINA RESULT:      -6.3      2.098      3.638
REMARK  Name = 
REMARK  9 active torsions:
REMARK  status: ('A' for Active; 'I' for Inactive)
REMARK    1  A    between atoms: C_1  and  C_2
REMARK    2  A    between atoms: C_2  and  O_3
REMARK    3  A    between atoms: O_3  and  C_4
REMARK    4  A    between atoms: C_4  and  C_6
REMARK    5  A    between atoms: C_7  and  C_8
REMARK    6  A    between atoms: C_12  and  C_13
REMARK    7  A    between atoms: N_15  and  C_16
REMARK    8  A    between atoms: C_16  and  C_17
REMARK    9  A    between atoms: C_18  and  N_19
REMARK                            x       y       z     vdW  Elec       q    Type
REMARK                         _______ _______ _______ _____ _____    ______ ____
ROOT
ATOM      1  C   UNL     1       5.796   4.954  17.114  0.00  0.00    +0.000 A 
ATOM      2  C   UNL     1       5.801   6.339  17.350  0.00  0.00    +0.000 A 
ATOM      3  C   UNL     1       6.960   7.261  17.094  0.00  0.00    +0.000 C 
ATOM      4  N   UNL     1       4.737   7.010  17.857  0.00  0.00    +0.000 NA
ATOM      5  C   UNL     1       3.653   6.253  18.092  0.00  0.00    +0.000 A 
ATOM      6  C   UNL     1       3.512   4.886  17.906  0.00  0.00    +0.000 A 
ATOM      7  C   UNL     1       2.167   4.624  18.323  0.00  0.00    +0.000 A 
ATOM      8  C   UNL     1       1.398   3.356  18.359  0.00  0.00    +0.000 C 
ATOM      9  N   UNL     1       1.533   5.740  18.720  0.00  0.00    +0.000 NA
ATOM     10  N   UNL     1       2.461   6.705  18.582  0.00  0.00    +0.000 N 
ATOM     11  C   UNL     1       4.631   4.179  17.406  0.00  0.00    +0.000 A 
ENDROOT
BRANCH  11  12
ATOM     12  N   UNL     1       4.662   2.776  17.309  0.00  0.00    +0.000 N 
ATOM     13  H   UNL     1       5.369   2.370  16.713  0.00  0.00    +0.000 HD
ATOM     14  H   UNL     1       4.595   2.306  18.219  0.00  0.00    +0.000 HD
ENDBRANCH  11  12
BRANCH   1  15
ATOM     15  C   UNL     1       6.947   4.225  16.512  0.00  0.00    +0.000 C 
ATOM     16  O   UNL     1       8.079   4.253  16.970  0.00  0.00    +0.000 OA
BRANCH  15  17
ATOM     17  O   UNL     1       6.577   3.667  15.337  0.00  0.00    +0.000 OA
BRANCH  17  19
ATOM     18  C   UNL     1       6.152   3.696  13.019  0.00  0.00    +0.000 C 
ATOM     19  C   UNL     1       6.560   4.543  14.206  0.00  0.00    +0.000 C 
ENDBRANCH  17  19
ENDBRANCH  15  17
ENDBRANCH   1  15
BRANCH  10  20
ATOM     20  C   UNL     1       2.154   8.065  18.975  0.00  0.00    +0.000 C 
ATOM     21  C   UNL     1       1.656   8.912  17.817  0.00  0.00    +0.000 C 
ENDBRANCH  10  20
TORSDOF 5
ENDMDL
MODEL 4
REMARK VINA RESULT:      -6.3      1.495      2.992
REMARK  Name = 
REMARK  9 active torsions:
REMARK  status: ('A' for Active; 'I' for Inactive)
REMARK    1  A    between atoms: C_1  and  C_2
REMARK    2  A    between atoms: C_2  and  O_3
REMARK    3  A    between atoms: O_3  and  C_4
REMARK    4  A    between atoms: C_4  and  C_6
REMARK    5  A    between atoms: C_7  and  C_8
REMARK    6  A    between atoms: C_12  and  C_13
REMARK    7  A    between atoms: N_15  and  C_16
REMARK    8  A    between atoms: C_16  and  C_17
REMARK    9  A    between atoms: C_18  and  N_19
REMARK                            x       y       z     vdW  Elec       q    Type
REMARK                         _______ _______ _______ _____ _____    ______ ____
ROOT
ATOM      1  C   UNL     1       4.402   5.919  17.143  0.00  0.00    +0.000 A 
ATOM      2  C   UNL     1       4.412   4.516  17.221  0.00  0.00    +0.000 A 
ATOM      3  C   UNL     1       5.198   3.600  16.325  0.00  0.00    +0.000 C 
ATOM      4  N   UNL     1       3.688   3.818  18.131  0.00  0.00    +0.000 NA
ATOM      5  C   UNL     1       2.974   4.572  18.982  0.00  0.00    +0.000 A 
ATOM      6  C   UNL     1       2.874   5.954  19.017  0.00  0.00    +0.000 A 
ATOM      7  C   UNL     1       1.983   6.202  20.112  0.00  0.00    +0.000 A 
ATOM      8  C   UNL     1       1.478   7.479  20.674  0.00  0.00    +0.000 C 
ATOM      9  N   UNL     1       1.581   5.066  20.705  0.00  0.00    +0.000 NA
ATOM     10  N   UNL     1       2.185   4.098  19.991  0.00  0.00    +0.000 N 
ATOM     11  C   UNL     1       3.604   6.684  18.050  0.00  0.00    +0.000 A 
ENDROOT
BRANCH  11  12
ATOM     12  N   UNL     1       3.476   8.076  17.890  0.00  0.00    +0.000 N 
ATOM     13  H   UNL     1       3.789   8.659  18.652  0.00  0.00    +0.000 HD
ATOM     14  H   UNL     1       3.804   8.409  16.977  0.00  0.00    +0.000 HD
ENDBRANCH  11  12
BRANCH   1  15
ATOM     15  C   UNL     1       5.234   6.688  16.177  0.00  0.00    +0.000 C 
ATOM     16  O   UNL     1       5.057   6.670  14.968  0.00  0.00    +0.000 OA
BRANCH  15  17
ATOM     17  O   UNL     1       6.271   7.271  16.821  0.00  0.00    +0.000 OA
BRANCH  17  19
ATOM     18  C   UNL     1       7.843   6.766  18.502  0.00  0.00    +0.000 C 
ATOM     19  C   UNL     1       7.391   6.424  17.099  0.00  0.00    +0.000 C 
ENDBRANCH  17  19
ENDBRANCH  15  17
ENDBRANCH   1  15
BRANCH  10  20
ATOM     20  C   UNL     1       1.939   2.706  20.308  0.00  0.00    +0.000 C 
ATOM     21  C   UNL     1       1.505   2.499  21.749  0.00  0.00    +0.000 C 
ENDBRANCH  10  20
TORSDOF 5
ENDMDL
MODEL 5
REMARK VINA RESULT:      -6.1      2.894      5.832
REMARK  Name = 
REMARK  9 active torsions:
REMARK  status: ('A' for Active; 'I' for Inactive)
REMARK    1  A    between atoms: C_1  and  C_2
REMARK    2  A    between atoms: C_2  and  O_3
REMARK    3  A    between atoms: O_3  and  C_4
REMARK    4  A    between atoms: C_4  and  C_6
REMARK    5  A    between atoms: C_7  and  C_8
REMARK    6  A    between atoms: C_12  and  C_13
REMARK    7  A    between atoms: N_15  and  C_16
REMARK    8  A    between atoms: C_16  and  C_17
REMARK    9  A    between atoms: C_18  and  N_19
REMARK                            x       y       z     vdW  Elec       q    Type
REMARK                         _______ _______ _______ _____ _____    ______ ____
ROOT
ATOM      1  C   UNL     1       4.547   3.522  18.813  0.00  0.00    +0.000 A 
ATOM      2  C   UNL     1       3.945   2.968  17.670  0.00  0.00    +0.000 A 
ATOM      3  C   UNL     1       2.912   1.877  17.674  0.00  0.00    +0.000 C 
ATOM      4  N   UNL     1       4.245   3.362  16.408  0.00  0.00    +0.000 NA
ATOM      5  C   UNL     1       5.148   4.352  16.325  0.00  0.00    +0.000 A 
ATOM      6  C   UNL     1       5.816   4.984  17.363  0.00  0.00    +0.000 A 
ATOM      7  C   UNL     1       6.650   5.940  16.697  0.00  0.00    +0.000 A 
ATOM      8  C   UNL     1       7.604   6.936  17.244  0.00  0.00    +0.000 C 
ATOM      9  N   UNL     1       6.497   5.903  15.362  0.00  0.00    +0.000 NA
ATOM     10  N   UNL     1       5.594   4.924  15.168  0.00  0.00    +0.000 N 
ATOM     11  C   UNL     1       5.527   4.555  18.679  0.00  0.00    +0.000 A 
ENDROOT
BRANCH  11  12
ATOM     12  N   UNL     1       6.238   5.016  19.803  0.00  0.00    +0.000 N 
ATOM     13  H   UNL     1       6.564   5.971  19.783  0.00  0.00    +0.000 HD
ATOM     14  H   UNL     1       5.789   4.770  20.692  0.00  0.00    +0.000 HD
ENDBRANCH  11  12
BRANCH   1  15
ATOM     15  C   UNL     1       4.183   3.126  20.201  0.00  0.00    +0.000 C 
ATOM     16  O   UNL     1       4.655   2.155  20.773  0.00  0.00    +0.000 OA
BRANCH  15  17
ATOM     17  O   UNL     1       3.172   3.902  20.654  0.00  0.00    +0.000 OA
BRANCH  17  19
ATOM     18  C   UNL     1       0.861   3.732  20.223  0.00  0.00    +0.000 C 
ATOM     19  C   UNL     1       1.994   3.210  21.080  0.00  0.00    +0.000 C 
ENDBRANCH  17  19
ENDBRANCH  15  17
ENDBRANCH   1  15
BRANCH  10  20
ATOM     20  C   UNL     1       5.211   4.551  13.822  0.00  0.00    +0.000 C 
ATOM     21  C   UNL     1       6.261   3.700  13.128  0.00  0.00    +0.000 C 
ENDBRANCH  10  20
TORSDOF 5
ENDMDL
MODEL 6
REMARK VINA RESULT:      -6.0      3.123      6.038
REMARK  Name = 
REMARK  9 active torsions:
REMARK  status: ('A' for Active; 'I' for Inactive)
REMARK    1  A    between atoms: C_1  and  C_2
REMARK    2  A    between atoms: C_2  and  O_3
REMARK    3  A    between atoms: O_3  and  C_4
REMARK    4  A    between atoms: C_4  and  C_6
REMARK    5  A    between atoms: C_7  and  C_8
REMARK    6  A    between atoms: C_12  and  C_13
REMARK    7  A    between atoms: N_15  and  C_16
REMARK    8  A    between atoms: C_16  and  C_17
REMARK    9  A    between atoms: C_18  and  N_19
REMARK                            x       y       z     vdW  Elec       q    Type
REMARK                         _______ _______ _______ _____ _____    ______ ____
ROOT
ATOM      1  C   UNL     1       3.091   4.127  20.185  0.00  0.00    +0.000 A 
ATOM      2  C   UNL     1       4.128   3.386  19.594  0.00  0.00    +0.000 A 
ATOM      3  C   UNL     1       4.552   2.003  20.005  0.00  0.00    +0.000 C 
ATOM      4  N   UNL     1       4.884   3.851  18.569  0.00  0.00    +0.000 NA
ATOM      5  C   UNL     1       4.549   5.076  18.133  0.00  0.00    +0.000 A 
ATOM      6  C   UNL     1       3.556   5.912  18.621  0.00  0.00    +0.000 A 
ATOM      7  C   UNL     1       3.654   7.076  17.791  0.00  0.00    +0.000 A 
ATOM      8  C   UNL     1       2.865   8.332  17.794  0.00  0.00    +0.000 C 
ATOM      9  N   UNL     1       4.620   6.957  16.864  0.00  0.00    +0.000 NA
ATOM     10  N   UNL     1       5.151   5.745  17.105  0.00  0.00    +0.000 N 
ATOM     11  C   UNL     1       2.786   5.441  19.710  0.00  0.00    +0.000 A 
ENDROOT
BRANCH  11  12
ATOM     12  N   UNL     1       1.849   6.246  20.384  0.00  0.00    +0.000 N 
ATOM     13  H   UNL     1       1.227   5.786  21.031  0.00  0.00    +0.000 HD
ATOM     14  H   UNL     1       2.259   7.103  20.770  0.00  0.00    +0.000 HD
ENDBRANCH  11  12
BRANCH   1  15
ATOM     15  C   UNL     1       2.229   3.597  21.277  0.00  0.00    +0.000 C 
ATOM     16  O   UNL     1       2.644   3.318  22.392  0.00  0.00    +0.000 OA
BRANCH  15  17
ATOM     17  O   UNL     1       0.986   3.347  20.805  0.00  0.00    +0.000 OA
BRANCH  17  19
ATOM     18  C   UNL     1       0.566   2.643  18.595  0.00  0.00    +0.000 C 
ATOM     19  C   UNL     1       0.847   2.168  20.005  0.00  0.00    +0.000 C 
ENDBRANCH  17  19
ENDBRANCH  15  17
ENDBRANCH   1  15
BRANCH  10  20
ATOM     20  C   UNL     1       6.280   5.282  16.324  0.00  0.00    +0.000 C 
ATOM     21  C   UNL     1       5.867   4.387  15.168  0.00  0.00    +0.000 C 
ENDBRANCH  10  20
TORSDOF 5
ENDMDL
MODEL 7
REMARK VINA RESULT:      -6.0      2.212      3.748
REMARK  Name = 
REMARK  9 active torsions:
REMARK  status: ('A' for Active; 'I' for Inactive)
REMARK    1  A    between atoms: C_1  and  C_2
REMARK    2  A    between atoms: C_2  and  O_3
REMARK    3  A    between atoms: O_3  and  C_4
REMARK    4  A    between atoms: C_4  and  C_6
REMARK    5  A    between atoms: C_7  and  C_8
REMARK    6  A    between atoms: C_12  and  C_13
REMARK    7  A    between atoms: N_15  and  C_16
REMARK    8  A    between atoms: C_16  and  C_17
REMARK    9  A    between atoms: C_18  and  N_19
REMARK                            x       y       z     vdW  Elec       q    Type
REMARK                         _______ _______ _______ _____ _____    ______ ____
ROOT
ATOM      1  C   UNL     1       6.281   5.405  17.738  0.00  0.00    +0.000 A 
ATOM      2  C   UNL     1       6.161   6.777  17.463  0.00  0.00    +0.000 A 
ATOM      3  C   UNL     1       7.292   7.689  17.079  0.00  0.00    +0.000 C 
ATOM      4  N   UNL     1       4.984   7.447  17.525  0.00  0.00    +0.000 NA
ATOM      5  C   UNL     1       3.921   6.691  17.843  0.00  0.00    +0.000 A 
ATOM      6  C   UNL     1       3.896   5.336  18.137  0.00  0.00    +0.000 A 
ATOM      7  C   UNL     1       2.514   5.072  18.405  0.00  0.00    +0.000 A 
ATOM      8  C   UNL     1       1.826   3.810  18.771  0.00  0.00    +0.000 C 
ATOM      9  N   UNL     1       1.753   6.172  18.274  0.00  0.00    +0.000 NA
ATOM     10  N   UNL     1       2.634   7.137  17.948  0.00  0.00    +0.000 N 
ATOM     11  C   UNL     1       5.128   4.641  18.103  0.00  0.00    +0.000 A 
ENDROOT
BRANCH  11  12
ATOM     12  N   UNL     1       5.257   3.303  18.518  0.00  0.00    +0.000 N 
ATOM     13  H   UNL     1       5.941   2.736  18.040  0.00  0.00    +0.000 HD
ATOM     14  H   UNL     1       5.302   3.200  19.538  0.00  0.00    +0.000 HD
ENDBRANCH  11  12
BRANCH   1  15
ATOM     15  C   UNL     1       7.564   4.658  17.623  0.00  0.00    +0.000 C 
ATOM     16  O   UNL     1       8.264   4.365  18.581  0.00  0.00    +0.000 OA
BRANCH  15  17
ATOM     17  O   UNL     1       7.887   4.492  16.320  0.00  0.00    +0.000 OA
BRANCH  17  19
ATOM     18  C   UNL     1       6.974   4.827  14.174  0.00  0.00    +0.000 C 
ATOM     19  C   UNL     1       6.829   4.050  15.464  0.00  0.00    +0.000 C 
ENDBRANCH  17  19
ENDBRANCH  15  17
ENDBRANCH   1  15
BRANCH  10  20
ATOM     20  C   UNL     1       2.181   8.502  17.777  0.00  0.00    +0.000 C 
ATOM     21  C   UNL     1       1.492   9.051  19.014  0.00  0.00    +0.000 C 
ENDBRANCH  10  20
TORSDOF 5
ENDMDL
MODEL 8
REMARK VINA RESULT:      -6.0      2.046      3.045
REMARK  Name = 
REMARK  9 active torsions:
REMARK  status: ('A' for Active; 'I' for Inactive)
REMARK    1  A    between atoms: C_1  and  C_2
REMARK    2  A    between atoms: C_2  and  O_3
REMARK    3  A    between atoms: O_3  and  C_4
REMARK    4  A    between atoms: C_4  and  C_6
REMARK    5  A    between atoms: C_7  and  C_8
REMARK    6  A    between atoms: C_12  and  C_13
REMARK    7  A    between atoms: N_15  and  C_16
REMARK    8  A    between atoms: C_16  and  C_17
REMARK    9  A    between atoms: C_18  and  N_19
REMARK                            x       y       z     vdW  Elec       q    Type
REMARK                         _______ _______ _______ _____ _____    ______ ____
ROOT
ATOM      1  C   UNL     1       4.869   4.971  17.903  0.00  0.00    +0.000 A 
ATOM      2  C   UNL     1       4.454   6.279  17.601  0.00  0.00    +0.000 A 
ATOM      3  C   UNL     1       5.006   7.132  16.494  0.00  0.00    +0.000 C 
ATOM      4  N   UNL     1       3.492   6.932  18.298  0.00  0.00    +0.000 NA
ATOM      5  C   UNL     1       2.936   6.223  19.293  0.00  0.00    +0.000 A 
ATOM      6  C   UNL     1       3.247   4.933  19.697  0.00  0.00    +0.000 A 
ATOM      7  C   UNL     1       2.354   4.696  20.792  0.00  0.00    +0.000 A 
ATOM      8  C   UNL     1       2.179   3.500  21.651  0.00  0.00    +0.000 C 
ATOM      9  N   UNL     1       1.554   5.749  21.031  0.00  0.00    +0.000 NA
ATOM     10  N   UNL     1       1.939   6.660  20.118  0.00  0.00    +0.000 N 
ATOM     11  C   UNL     1       4.272   4.260  18.991  0.00  0.00    +0.000 A 
ENDROOT
BRANCH  11  12
ATOM     12  N   UNL     1       4.776   3.009  19.391  0.00  0.00    +0.000 N 
ATOM     13  H   UNL     1       5.757   2.835  19.232  0.00  0.00    +0.000 HD
ATOM     14  H   UNL     1       4.473   2.735  20.333  0.00  0.00    +0.000 HD
ENDBRANCH  11  12
BRANCH   1  15
ATOM     15  C   UNL     1       5.890   4.235  17.108  0.00  0.00    +0.000 C 
ATOM     16  O   UNL     1       5.657   3.706  16.031  0.00  0.00    +0.000 OA
BRANCH  15  17
ATOM     17  O   UNL     1       7.038   4.126  17.816  0.00  0.00    +0.000 OA
BRANCH  17  19
ATOM     18  C   UNL     1       7.824   5.675  19.408  0.00  0.00    +0.000 C 
ATOM     19  C   UNL     1       7.814   5.322  17.936  0.00  0.00    +0.000 C 
ENDBRANCH  17  19
ENDBRANCH  15  17
ENDBRANCH   1  15
BRANCH  10  20
ATOM     20  C   UNL     1       1.326   7.972  20.103  0.00  0.00    +0.000 C 
ATOM     21  C   UNL     1       1.189   8.572  21.492  0.00  0.00    +0.000 C 
ENDBRANCH  10  20
TORSDOF 5
ENDMDL
MODEL 9
REMARK VINA RESULT:      -5.8      2.698      5.821
REMARK  Name = 
REMARK  9 active torsions:
REMARK  status: ('A' for Active; 'I' for Inactive)
REMARK    1  A    between atoms: C_1  and  C_2
REMARK    2  A    between atoms: C_2  and  O_3
REMARK    3  A    between atoms: O_3  and  C_4
REMARK    4  A    between atoms: C_4  and  C_6
REMARK    5  A    between atoms: C_7  and  C_8
REMARK    6  A    between atoms: C_12  and  C_13
REMARK    7  A    between atoms: N_15  and  C_16
REMARK    8  A    between atoms: C_16  and  C_17
REMARK    9  A    between atoms: C_18  and  N_19
REMARK                            x       y       z     vdW  Elec       q    Type
REMARK                         _______ _______ _______ _____ _____    ______ ____
ROOT
ATOM      1  C   UNL     1       3.729   4.505  18.522  0.00  0.00    +0.000 A 
ATOM      2  C   UNL     1       3.510   3.644  17.434  0.00  0.00    +0.000 A 
ATOM      3  C   UNL     1       2.391   2.646  17.326  0.00  0.00    +0.000 C 
ATOM      4  N   UNL     1       4.309   3.612  16.339  0.00  0.00    +0.000 NA
ATOM      5  C   UNL     1       5.322   4.494  16.354  0.00  0.00    +0.000 A 
ATOM      6  C   UNL     1       5.652   5.395  17.355  0.00  0.00    +0.000 A 
ATOM      7  C   UNL     1       6.809   6.064  16.841  0.00  0.00    +0.000 A 
ATOM      8  C   UNL     1       7.638   7.147  17.427  0.00  0.00    +0.000 C 
ATOM      9  N   UNL     1       7.153   5.617  15.621  0.00  0.00    +0.000 NA
ATOM     10  N   UNL     1       6.244   4.659  15.360  0.00  0.00    +0.000 N 
ATOM     11  C   UNL     1       4.837   5.409  18.511  0.00  0.00    +0.000 A 
ENDROOT
BRANCH  11  12
ATOM     12  N   UNL     1       5.148   6.173  19.651  0.00  0.00    +0.000 N 
ATOM     13  H   UNL     1       4.477   6.172  20.405  0.00  0.00    +0.000 HD
ATOM     14  H   UNL     1       6.111   6.034  19.979  0.00  0.00    +0.000 HD
ENDBRANCH  11  12
BRANCH   1  15
ATOM     15  C   UNL     1       2.823   4.576  19.702  0.00  0.00    +0.000 C 
ATOM     16  O   UNL     1       1.960   5.430  19.842  0.00  0.00    +0.000 OA
BRANCH  15  17
ATOM     17  O   UNL     1       3.196   3.662  20.626  0.00  0.00    +0.000 OA
BRANCH  17  19
ATOM     18  C   UNL     1       1.158   2.543  21.009  0.00  0.00    +0.000 C 
ATOM     19  C   UNL     1       2.239   3.385  21.653  0.00  0.00    +0.000 C 
ENDBRANCH  17  19
ENDBRANCH  15  17
ENDBRANCH   1  15
BRANCH  10  20
ATOM     20  C   UNL     1       6.329   3.897  14.132  0.00  0.00    +0.000 C 
ATOM     21  C   UNL     1       7.129   4.608  13.054  0.00  0.00    +0.000 C 
ENDBRANCH  10  20
TORSDOF 5
ENDMDL
