MODEL 1
REMARK VINA RESULT:      -8.2      0.000      0.000
REMARK  Name = 
REMARK  8 active torsions:
REMARK  status: ('A' for Active; 'I' for Inactive)
REMARK    1  A    between atoms: C_1  and  C_2
REMARK    2  A    between atoms: C_2  and  C_3
REMARK    3  A    between atoms: C_2  and  C_4
REMARK    4  A    between atoms: C_2  and  C_5
REMARK    5  A    between atoms: N_7  and  C_8
REMARK    6  A    between atoms: C_12  and  C_13
REMARK    7  A    between atoms: C_13  and  C_15
REMARK    8  A    between atoms: C_15  and  C_17
REMARK                            x       y       z     vdW  Elec       q    Type
REMARK                         _______ _______ _______ _____ _____    ______ ____
ROOT
ATOM      1  C   UNL     1       2.786   6.921  18.371  0.00  0.00    +0.000 A 
ATOM      2  C   UNL     1       2.248   5.635  18.258  0.00  0.00    +0.000 A 
ATOM      3  C   UNL     1       2.961   4.609  17.649  0.00  0.00    +0.000 A 
ATOM      4  C   UNL     1       4.235   4.857  17.147  0.00  0.00    +0.000 A 
ATOM      5  C   UNL     1       4.790   6.142  17.227  0.00  0.00    +0.000 A 
ATOM      6  C   UNL     1       4.050   7.181  17.816  0.00  0.00    +0.000 A 
ENDROOT
BRANCH   1   9
ATOM      7  C   UNL     1       1.518   9.056  18.413  0.00  0.00    +0.000 C 
ATOM      8  O   UNL     1       1.505   9.233  17.197  0.00  0.00    +0.000 OA
ATOM      9  N   UNL     1       2.106   7.965  19.044  0.00  0.00    +0.000 N 
ATOM     10  H   UNL     1       1.904   7.816  20.023  0.00  0.00    +0.000 HD
BRANCH   7  12
ATOM     11  C   UNL     1       0.896   9.524  20.787  0.00  0.00    +0.000 C 
ATOM     12  C   UNL     1       0.807  10.060  19.342  0.00  0.00    +0.000 C 
ATOM     13  C   UNL     1      -0.672  10.190  18.961  0.00  0.00    +0.000 C 
ATOM     14  C   UNL     1       1.503  11.426  19.283  0.00  0.00    +0.000 C 
ENDBRANCH   7  12
ENDBRANCH   1   9
BRANCH   5  15
ATOM     15  C   UNL     1       6.196   6.316  16.770  0.00  0.00    +0.000 C 
ATOM     16  O   UNL     1       6.695   7.432  16.744  0.00  0.00    +0.000 OA
BRANCH  15  17
ATOM     17  C   UNL     1       7.022   5.132  16.290  0.00  0.00    +0.000 C 
ATOM     18  O   UNL     1       7.645   4.457  17.104  0.00  0.00    +0.000 OA
BRANCH  17  19
ATOM     19  C   UNL     1       7.016   4.810  14.838  0.00  0.00    +0.000 A 
ATOM     20  C   UNL     1       6.132   3.860  14.329  0.00  0.00    +0.000 A 
ATOM     21  C   UNL     1       6.142   3.612  12.958  0.00  0.00    +0.000 A 
ATOM     22  C   UNL     1       7.018   4.323  12.141  0.00  0.00    +0.000 A 
ATOM     23  C   UNL     1       7.866   5.243  12.734  0.00  0.00    +0.000 A 
ATOM     24  N   UNL     1       7.901   5.484  14.063  0.00  0.00    +0.000 NA
ENDBRANCH  17  19
ENDBRANCH  15  17
ENDBRANCH   5  15
TORSDOF 5
ENDMDL
MODEL 2
REMARK VINA RESULT:      -8.1      0.857      1.243
REMARK  Name = 
REMARK  8 active torsions:
REMARK  status: ('A' for Active; 'I' for Inactive)
REMARK    1  A    between atoms: C_1  and  C_2
REMARK    2  A    between atoms: C_2  and  C_3
REMARK    3  A    between atoms: C_2  and  C_4
REMARK    4  A    between atoms: C_2  and  C_5
REMARK    5  A    between atoms: N_7  and  C_8
REMARK    6  A    between atoms: C_12  and  C_13
REMARK    7  A    between atoms: C_13  and  C_15
REMARK    8  A    between atoms: C_15  and  C_17
REMARK                            x       y       z     vdW  Elec       q    Type
REMARK                         _______ _______ _______ _____ _____    ______ ____
ROOT
ATOM      1  C   UNL     1       2.767   7.274  17.902  0.00  0.00    +0.000 A 
ATOM      2  C   UNL     1       2.262   5.992  18.144  0.00  0.00    +0.000 A 
ATOM      3  C   UNL     1       3.042   4.861  17.935  0.00  0.00    +0.000 A 
ATOM      4  C   UNL     1       4.352   4.999  17.485  0.00  0.00    +0.000 A 
ATOM      5  C   UNL     1       4.877   6.271  17.213  0.00  0.00    +0.000 A 
ATOM      6  C   UNL     1       4.070   7.407  17.397  0.00  0.00    +0.000 A 
ENDROOT
BRANCH   1   9
ATOM      7  C   UNL     1       1.528   8.798  19.422  0.00  0.00    +0.000 C 
ATOM      8  O   UNL     1       1.712   8.148  20.450  0.00  0.00    +0.000 OA
ATOM      9  N   UNL     1       2.013   8.442  18.168  0.00  0.00    +0.000 N 
ATOM     10  H   UNL     1       1.967   9.129  17.428  0.00  0.00    +0.000 HD
BRANCH   7  12
ATOM     11  C   UNL     1       1.528  11.176  18.656  0.00  0.00    +0.000 C 
ATOM     12  C   UNL     1       0.752  10.129  19.484  0.00  0.00    +0.000 C 
ATOM     13  C   UNL     1       0.655  10.626  20.931  0.00  0.00    +0.000 C 
ATOM     14  C   UNL     1      -0.645   9.960  18.875  0.00  0.00    +0.000 C 
ENDBRANCH   7  12
ENDBRANCH   1   9
BRANCH   5  15
ATOM     15  C   UNL     1       6.315   6.358  16.839  0.00  0.00    +0.000 C 
ATOM     16  O   UNL     1       6.894   7.434  16.890  0.00  0.00    +0.000 OA
BRANCH  15  17
ATOM     17  C   UNL     1       7.079   5.137  16.350  0.00  0.00    +0.000 C 
ATOM     18  O   UNL     1       7.693   4.443  17.155  0.00  0.00    +0.000 OA
BRANCH  17  19
ATOM     19  C   UNL     1       7.023   4.803  14.901  0.00  0.00    +0.000 A 
ATOM     20  C   UNL     1       6.103   3.869  14.427  0.00  0.00    +0.000 A 
ATOM     21  C   UNL     1       6.067   3.610  13.058  0.00  0.00    +0.000 A 
ATOM     22  C   UNL     1       6.934   4.295  12.210  0.00  0.00    +0.000 A 
ATOM     23  C   UNL     1       7.820   5.200  12.770  0.00  0.00    +0.000 A 
ATOM     24  N   UNL     1       7.900   5.451  14.095  0.00  0.00    +0.000 NA
ENDBRANCH  17  19
ENDBRANCH  15  17
ENDBRANCH   5  15
TORSDOF 5
ENDMDL
MODEL 3
REMARK VINA RESULT:      -7.9      1.106      1.596
REMARK  Name = 
REMARK  8 active torsions:
REMARK  status: ('A' for Active; 'I' for Inactive)
REMARK    1  A    between atoms: C_1  and  C_2
REMARK    2  A    between atoms: C_2  and  C_3
REMARK    3  A    between atoms: C_2  and  C_4
REMARK    4  A    between atoms: C_2  and  C_5
REMARK    5  A    between atoms: N_7  and  C_8
REMARK    6  A    between atoms: C_12  and  C_13
REMARK    7  A    between atoms: C_13  and  C_15
REMARK    8  A    between atoms: C_15  and  C_17
REMARK                            x       y       z     vdW  Elec       q    Type
REMARK                         _______ _______ _______ _____ _____    ______ ____
ROOT
ATOM      1  C   UNL     1       2.865   6.534  17.929  0.00  0.00    +0.000 A 
ATOM      2  C   UNL     1       2.145   5.392  18.291  0.00  0.00    +0.000 A 
ATOM      3  C   UNL     1       2.754   4.143  18.340  0.00  0.00    +0.000 A 
ATOM      4  C   UNL     1       4.105   4.022  18.030  0.00  0.00    +0.000 A 
ATOM      5  C   UNL     1       4.846   5.146  17.641  0.00  0.00    +0.000 A 
ATOM      6  C   UNL     1       4.215   6.400  17.565  0.00  0.00    +0.000 A 
ENDROOT
BRANCH   1   9
ATOM      7  C   UNL     1       1.754   8.445  19.060  0.00  0.00    +0.000 C 
ATOM      8  O   UNL     1       1.746   7.952  20.187  0.00  0.00    +0.000 OA
ATOM      9  N   UNL     1       2.283   7.824  17.934  0.00  0.00    +0.000 N 
ATOM     10  H   UNL     1       2.408   8.381  17.099  0.00  0.00    +0.000 HD
BRANCH   7  12
ATOM     11  C   UNL     1      -0.102   9.743  18.007  0.00  0.00    +0.000 C 
ATOM     12  C   UNL     1       1.193   9.864  18.839  0.00  0.00    +0.000 C 
ATOM     13  C   UNL     1       2.195  10.722  18.060  0.00  0.00    +0.000 C 
ATOM     14  C   UNL     1       0.851  10.517  20.185  0.00  0.00    +0.000 C 
ENDBRANCH   7  12
ENDBRANCH   1   9
BRANCH   5  15
ATOM     15  C   UNL     1       6.309   4.969  17.429  0.00  0.00    +0.000 C 
ATOM     16  O   UNL     1       6.960   4.284  18.205  0.00  0.00    +0.000 OA
BRANCH  15  17
ATOM     17  C   UNL     1       7.029   5.661  16.282  0.00  0.00    +0.000 C 
ATOM     18  O   UNL     1       7.695   6.668  16.503  0.00  0.00    +0.000 OA
BRANCH  17  19
ATOM     19  C   UNL     1       6.928   5.064  14.922  0.00  0.00    +0.000 A 
ATOM     20  C   UNL     1       5.955   4.105  14.643  0.00  0.00    +0.000 A 
ATOM     21  C   UNL     1       5.879   3.596  13.348  0.00  0.00    +0.000 A 
ATOM     22  C   UNL     1       6.761   4.064  12.377  0.00  0.00    +0.000 A 
ATOM     23  C   UNL     1       7.700   5.012  12.747  0.00  0.00    +0.000 A 
ATOM     24  N   UNL     1       7.818   5.503  13.999  0.00  0.00    +0.000 NA
ENDBRANCH  17  19
ENDBRANCH  15  17
ENDBRANCH   5  15
TORSDOF 5
ENDMDL
MODEL 4
REMARK VINA RESULT:      -7.8      2.444      3.975
REMARK  Name = 
REMARK  8 active torsions:
REMARK  status: ('A' for Active; 'I' for Inactive)
REMARK    1  A    between atoms: C_1  and  C_2
REMARK    2  A    between atoms: C_2  and  C_3
REMARK    3  A    between atoms: C_2  and  C_4
REMARK    4  A    between atoms: C_2  and  C_5
REMARK    5  A    between atoms: N_7  and  C_8
REMARK    6  A    between atoms: C_12  and  C_13
REMARK    7  A    between atoms: C_13  and  C_15
REMARK    8  A    between atoms: C_15  and  C_17
REMARK                            x       y       z     vdW  Elec       q    Type
REMARK                         _______ _______ _______ _____ _____    ______ ____
ROOT
ATOM      1  C   UNL     1       3.365   5.490  18.222  0.00  0.00    +0.000 A 
ATOM      2  C   UNL     1       2.704   6.708  18.035  0.00  0.00    +0.000 A 
ATOM      3  C   UNL     1       3.364   7.811  17.507  0.00  0.00    +0.000 A 
ATOM      4  C   UNL     1       4.706   7.706  17.150  0.00  0.00    +0.000 A 
ATOM      5  C   UNL     1       5.399   6.504  17.347  0.00  0.00    +0.000 A 
ATOM      6  C   UNL     1       4.732   5.403  17.911  0.00  0.00    +0.000 A 
ENDROOT
BRANCH   1   9
ATOM      7  C   UNL     1       2.341   4.123  20.025  0.00  0.00    +0.000 C 
ATOM      8  O   UNL     1       2.550   4.920  20.938  0.00  0.00    +0.000 OA
ATOM      9  N   UNL     1       2.697   4.336  18.698  0.00  0.00    +0.000 N 
ATOM     10  H   UNL     1       2.321   3.711  17.999  0.00  0.00    +0.000 HD
BRANCH   7  12
ATOM     11  C   UNL     1       2.356   1.660  19.610  0.00  0.00    +0.000 C 
ATOM     12  C   UNL     1       1.595   2.805  20.313  0.00  0.00    +0.000 C 
ATOM     13  C   UNL     1       0.170   2.860  19.752  0.00  0.00    +0.000 C 
ATOM     14  C   UNL     1       1.573   2.524  21.821  0.00  0.00    +0.000 C 
ENDBRANCH   7  12
ENDBRANCH   1   9
BRANCH   5  15
ATOM     15  C   UNL     1       6.799   6.424  16.845  0.00  0.00    +0.000 C 
ATOM     16  O   UNL     1       7.496   7.429  16.821  0.00  0.00    +0.000 OA
BRANCH  15  17
ATOM     17  C   UNL     1       7.374   5.120  16.316  0.00  0.00    +0.000 C 
ATOM     18  O   UNL     1       7.962   4.361  17.081  0.00  0.00    +0.000 OA
BRANCH  17  19
ATOM     19  C   UNL     1       7.170   4.790  14.879  0.00  0.00    +0.000 A 
ATOM     20  C   UNL     1       6.187   3.878  14.498  0.00  0.00    +0.000 A 
ATOM     21  C   UNL     1       6.012   3.621  13.139  0.00  0.00    +0.000 A 
ATOM     22  C   UNL     1       6.808   4.287  12.210  0.00  0.00    +0.000 A 
ATOM     23  C   UNL     1       7.765   5.171  12.681  0.00  0.00    +0.000 A 
ATOM     24  N   UNL     1       7.979   5.418  13.991  0.00  0.00    +0.000 NA
ENDBRANCH  17  19
ENDBRANCH  15  17
ENDBRANCH   5  15
TORSDOF 5
ENDMDL
MODEL 5
REMARK VINA RESULT:      -7.6      1.493      2.127
REMARK  Name = 
REMARK  8 active torsions:
REMARK  status: ('A' for Active; 'I' for Inactive)
REMARK    1  A    between atoms: C_1  and  C_2
REMARK    2  A    between atoms: C_2  and  C_3
REMARK    3  A    between atoms: C_2  and  C_4
REMARK    4  A    between atoms: C_2  and  C_5
REMARK    5  A    between atoms: N_7  and  C_8
REMARK    6  A    between atoms: C_12  and  C_13
REMARK    7  A    between atoms: C_13  and  C_15
REMARK    8  A    between atoms: C_15  and  C_17
REMARK                            x       y       z     vdW  Elec       q    Type
REMARK                         _______ _______ _______ _____ _____    ______ ____
ROOT
ATOM      1  C   UNL     1       2.791   6.056  18.582  0.00  0.00    +0.000 A 
ATOM      2  C   UNL     1       2.057   4.901  18.294  0.00  0.00    +0.000 A 
ATOM      3  C   UNL     1       2.660   3.792  17.712  0.00  0.00    +0.000 A 
ATOM      4  C   UNL     1       4.019   3.823  17.413  0.00  0.00    +0.000 A 
ATOM      5  C   UNL     1       4.774   4.975  17.670  0.00  0.00    +0.000 A 
ATOM      6  C   UNL     1       4.150   6.103  18.230  0.00  0.00    +0.000 A 
ENDROOT
BRANCH   1   9
ATOM      7  C   UNL     1       1.559   7.118  20.459  0.00  0.00    +0.000 C 
ATOM      8  O   UNL     1       1.420   6.096  21.129  0.00  0.00    +0.000 OA
ATOM      9  N   UNL     1       2.214   7.172  19.233  0.00  0.00    +0.000 N 
ATOM     10  H   UNL     1       2.435   8.082  18.852  0.00  0.00    +0.000 HD
BRANCH   7  12
ATOM     11  C   UNL     1       1.106   9.498  19.850  0.00  0.00    +0.000 C 
ATOM     12  C   UNL     1       1.029   8.463  20.993  0.00  0.00    +0.000 C 
ATOM     13  C   UNL     1       1.895   8.957  22.157  0.00  0.00    +0.000 C 
ATOM     14  C   UNL     1      -0.435   8.323  21.429  0.00  0.00    +0.000 C 
ENDBRANCH   7  12
ENDBRANCH   1   9
BRANCH   5  15
ATOM     15  C   UNL     1       6.242   4.906  17.429  0.00  0.00    +0.000 C 
ATOM     16  O   UNL     1       6.952   4.244  18.173  0.00  0.00    +0.000 OA
BRANCH  15  17
ATOM     17  C   UNL     1       6.892   5.681  16.293  0.00  0.00    +0.000 C 
ATOM     18  O   UNL     1       7.439   6.755  16.526  0.00  0.00    +0.000 OA
BRANCH  17  19
ATOM     19  C   UNL     1       6.872   5.085  14.930  0.00  0.00    +0.000 A 
ATOM     20  C   UNL     1       5.897   4.152  14.581  0.00  0.00    +0.000 A 
ATOM     21  C   UNL     1       5.900   3.643  13.284  0.00  0.00    +0.000 A 
ATOM     22  C   UNL     1       6.860   4.087  12.378  0.00  0.00    +0.000 A 
ATOM     23  C   UNL     1       7.795   5.010  12.814  0.00  0.00    +0.000 A 
ATOM     24  N   UNL     1       7.837   5.500  14.072  0.00  0.00    +0.000 NA
ENDBRANCH  17  19
ENDBRANCH  15  17
ENDBRANCH   5  15
TORSDOF 5
ENDMDL
MODEL 6
REMARK VINA RESULT:      -7.6      2.416      4.022
REMARK  Name = 
REMARK  8 active torsions:
REMARK  status: ('A' for Active; 'I' for Inactive)
REMARK    1  A    between atoms: C_1  and  C_2
REMARK    2  A    between atoms: C_2  and  C_3
REMARK    3  A    between atoms: C_2  and  C_4
REMARK    4  A    between atoms: C_2  and  C_5
REMARK    5  A    between atoms: N_7  and  C_8
REMARK    6  A    between atoms: C_12  and  C_13
REMARK    7  A    between atoms: C_13  and  C_15
REMARK    8  A    between atoms: C_15  and  C_17
REMARK                            x       y       z     vdW  Elec       q    Type
REMARK                         _______ _______ _______ _____ _____    ______ ____
ROOT
ATOM      1  C   UNL     1       3.529   5.736  18.489  0.00  0.00    +0.000 A 
ATOM      2  C   UNL     1       2.841   6.904  18.145  0.00  0.00    +0.000 A 
ATOM      3  C   UNL     1       3.461   7.917  17.423  0.00  0.00    +0.000 A 
ATOM      4  C   UNL     1       4.788   7.771  17.028  0.00  0.00    +0.000 A 
ATOM      5  C   UNL     1       5.508   6.621  17.379  0.00  0.00    +0.000 A 
ATOM      6  C   UNL     1       4.883   5.615  18.136  0.00  0.00    +0.000 A 
ENDROOT
BRANCH   1   9
ATOM      7  C   UNL     1       2.071   3.727  18.561  0.00  0.00    +0.000 C 
ATOM      8  O   UNL     1       1.800   3.710  17.362  0.00  0.00    +0.000 OA
ATOM      9  N   UNL     1       2.900   4.664  19.167  0.00  0.00    +0.000 N 
ATOM     10  H   UNL     1       3.206   4.486  20.114  0.00  0.00    +0.000 HD
BRANCH   7  12
ATOM     11  C   UNL     1       1.064   3.297  20.807  0.00  0.00    +0.000 C 
ATOM     12  C   UNL     1       1.514   2.629  19.489  0.00  0.00    +0.000 C 
ATOM     13  C   UNL     1       2.600   1.597  19.812  0.00  0.00    +0.000 C 
ATOM     14  C   UNL     1       0.298   1.952  18.844  0.00  0.00    +0.000 C 
ENDBRANCH   7  12
ENDBRANCH   1   9
BRANCH   5  15
ATOM     15  C   UNL     1       6.887   6.478  16.835  0.00  0.00    +0.000 C 
ATOM     16  O   UNL     1       7.618   7.455  16.762  0.00  0.00    +0.000 OA
BRANCH  15  17
ATOM     17  C   UNL     1       7.397   5.140  16.323  0.00  0.00    +0.000 C 
ATOM     18  O   UNL     1       7.956   4.368  17.096  0.00  0.00    +0.000 OA
BRANCH  17  19
ATOM     19  C   UNL     1       7.166   4.796  14.894  0.00  0.00    +0.000 A 
ATOM     20  C   UNL     1       6.165   3.893  14.538  0.00  0.00    +0.000 A 
ATOM     21  C   UNL     1       5.966   3.624  13.185  0.00  0.00    +0.000 A 
ATOM     22  C   UNL     1       6.757   4.268  12.236  0.00  0.00    +0.000 A 
ATOM     23  C   UNL     1       7.732   5.144  12.682  0.00  0.00    +0.000 A 
ATOM     24  N   UNL     1       7.969   5.403  13.986  0.00  0.00    +0.000 NA
ENDBRANCH  17  19
ENDBRANCH  15  17
ENDBRANCH   5  15
TORSDOF 5
ENDMDL
MODEL 7
REMARK VINA RESULT:      -7.6      1.516      2.262
REMARK  Name = 
REMARK  8 active torsions:
REMARK  status: ('A' for Active; 'I' for Inactive)
REMARK    1  A    between atoms: C_1  and  C_2
REMARK    2  A    between atoms: C_2  and  C_3
REMARK    3  A    between atoms: C_2  and  C_4
REMARK    4  A    between atoms: C_2  and  C_5
REMARK    5  A    between atoms: N_7  and  C_8
REMARK    6  A    between atoms: C_12  and  C_13
REMARK    7  A    between atoms: C_13  and  C_15
REMARK    8  A    between atoms: C_15  and  C_17
REMARK                            x       y       z     vdW  Elec       q    Type
REMARK                         _______ _______ _______ _____ _____    ______ ____
ROOT
ATOM      1  C   UNL     1       2.389   5.744  19.943  0.00  0.00    +0.000 A 
ATOM      2  C   UNL     1       1.724   4.541  19.686  0.00  0.00    +0.000 A 
ATOM      3  C   UNL     1       2.337   3.521  18.966  0.00  0.00    +0.000 A 
ATOM      4  C   UNL     1       3.635   3.692  18.495  0.00  0.00    +0.000 A 
ATOM      5  C   UNL     1       4.317   4.897  18.720  0.00  0.00    +0.000 A 
ATOM      6  C   UNL     1       3.679   5.934  19.422  0.00  0.00    +0.000 A 
ENDROOT
BRANCH   1   9
ATOM      7  C   UNL     1       1.534   8.053  20.268  0.00  0.00    +0.000 C 
ATOM      8  O   UNL     1       1.746   8.441  19.120  0.00  0.00    +0.000 OA
ATOM      9  N   UNL     1       1.810   6.770  20.728  0.00  0.00    +0.000 N 
ATOM     10  H   UNL     1       1.434   6.496  21.625  0.00  0.00    +0.000 HD
BRANCH   7  12
ATOM     11  C   UNL     1       0.731  10.390  20.631  0.00  0.00    +0.000 C 
ATOM     12  C   UNL     1       0.878   9.002  21.290  0.00  0.00    +0.000 C 
ATOM     13  C   UNL     1       1.762   9.145  22.534  0.00  0.00    +0.000 C 
ATOM     14  C   UNL     1      -0.517   8.492  21.673  0.00  0.00    +0.000 C 
ENDBRANCH   7  12
ENDBRANCH   1   9
BRANCH   5  15
ATOM     15  C   UNL     1       5.739   4.975  18.286  0.00  0.00    +0.000 C 
ATOM     16  O   UNL     1       6.597   4.349  18.893  0.00  0.00    +0.000 OA
BRANCH  15  17
ATOM     17  C   UNL     1       6.161   5.858  17.123  0.00  0.00    +0.000 C 
ATOM     18  O   UNL     1       6.406   7.045  17.319  0.00  0.00    +0.000 OA
BRANCH  17  19
ATOM     19  C   UNL     1       6.299   5.237  15.778  0.00  0.00    +0.000 A 
ATOM     20  C   UNL     1       5.292   4.414  15.274  0.00  0.00    +0.000 A 
ATOM     21  C   UNL     1       5.450   3.878  13.998  0.00  0.00    +0.000 A 
ATOM     22  C   UNL     1       6.594   4.185  13.264  0.00  0.00    +0.000 A 
ATOM     23  C   UNL     1       7.545   5.005  13.848  0.00  0.00    +0.000 A 
ATOM     24  N   UNL     1       7.435   5.516  15.093  0.00  0.00    +0.000 NA
ENDBRANCH  17  19
ENDBRANCH  15  17
ENDBRANCH   5  15
TORSDOF 5
ENDMDL
MODEL 8
REMARK VINA RESULT:      -7.4      2.270      3.132
REMARK  Name = 
REMARK  8 active torsions:
REMARK  status: ('A' for Active; 'I' for Inactive)
REMARK    1  A    between atoms: C_1  and  C_2
REMARK    2  A    between atoms: C_2  and  C_3
REMARK    3  A    between atoms: C_2  and  C_4
REMARK    4  A    between atoms: C_2  and  C_5
REMARK    5  A    between atoms: N_7  and  C_8
REMARK    6  A    between atoms: C_12  and  C_13
REMARK    7  A    between atoms: C_13  and  C_15
REMARK    8  A    between atoms: C_15  and  C_17
REMARK                            x       y       z     vdW  Elec       q    Type
REMARK                         _______ _______ _______ _____ _____    ______ ____
ROOT
ATOM      1  C   UNL     1       1.695   5.441  20.573  0.00  0.00    +0.000 A 
ATOM      2  C   UNL     1       0.734   4.457  20.322  0.00  0.00    +0.000 A 
ATOM      3  C   UNL     1       1.088   3.228  19.777  0.00  0.00    +0.000 A 
ATOM      4  C   UNL     1       2.422   2.965  19.477  0.00  0.00    +0.000 A 
ATOM      5  C   UNL     1       3.403   3.942  19.697  0.00  0.00    +0.000 A 
ATOM      6  C   UNL     1       3.031   5.192  20.220  0.00  0.00    +0.000 A 
ENDROOT
BRANCH   1   9
ATOM      7  C   UNL     1       1.405   7.907  20.546  0.00  0.00    +0.000 C 
ATOM      8  O   UNL     1       1.712   8.070  19.366  0.00  0.00    +0.000 OA
ATOM      9  N   UNL     1       1.367   6.674  21.186  0.00  0.00    +0.000 N 
ATOM     10  H   UNL     1       0.928   6.624  22.096  0.00  0.00    +0.000 HD
BRANCH   7  12
ATOM     11  C   UNL     1      -0.441   8.851  21.940  0.00  0.00    +0.000 C 
ATOM     12  C   UNL     1       0.981   9.117  21.402  0.00  0.00    +0.000 C 
ATOM     13  C   UNL     1       0.949  10.392  20.552  0.00  0.00    +0.000 C 
ATOM     14  C   UNL     1       1.932   9.286  22.594  0.00  0.00    +0.000 C 
ENDBRANCH   7  12
ENDBRANCH   1   9
BRANCH   5  15
ATOM     15  C   UNL     1       4.822   3.560  19.459  0.00  0.00    +0.000 C 
ATOM     16  O   UNL     1       5.212   2.442  19.763  0.00  0.00    +0.000 OA
BRANCH  15  17
ATOM     17  C   UNL     1       5.819   4.552  18.880  0.00  0.00    +0.000 C 
ATOM     18  O   UNL     1       6.433   5.304  19.631  0.00  0.00    +0.000 OA
BRANCH  17  19
ATOM     19  C   UNL     1       6.044   4.550  17.409  0.00  0.00    +0.000 A 
ATOM     20  C   UNL     1       4.995   4.266  16.535  0.00  0.00    +0.000 A 
ATOM     21  C   UNL     1       5.245   4.305  15.165  0.00  0.00    +0.000 A 
ATOM     22  C   UNL     1       6.521   4.635  14.712  0.00  0.00    +0.000 A 
ATOM     23  C   UNL     1       7.503   4.895  15.653  0.00  0.00    +0.000 A 
ATOM     24  N   UNL     1       7.300   4.837  16.987  0.00  0.00    +0.000 NA
ENDBRANCH  17  19
ENDBRANCH  15  17
ENDBRANCH   5  15
TORSDOF 5
ENDMDL
MODEL 9
REMARK VINA RESULT:      -7.3      2.398      3.376
REMARK  Name = 
REMARK  8 active torsions:
REMARK  status: ('A' for Active; 'I' for Inactive)
REMARK    1  A    between atoms: C_1  and  C_2
REMARK    2  A    between atoms: C_2  and  C_3
REMARK    3  A    between atoms: C_2  and  C_4
REMARK    4  A    between atoms: C_2  and  C_5
REMARK    5  A    between atoms: N_7  and  C_8
REMARK    6  A    between atoms: C_12  and  C_13
REMARK    7  A    between atoms: C_13  and  C_15
REMARK    8  A    between atoms: C_15  and  C_17
REMARK                            x       y       z     vdW  Elec       q    Type
REMARK                         _______ _______ _______ _____ _____    ______ ____
ROOT
ATOM      1  C   UNL     1       1.534   5.217  20.540  0.00  0.00    +0.000 A 
ATOM      2  C   UNL     1       0.650   4.149  20.362  0.00  0.00    +0.000 A 
ATOM      3  C   UNL     1       1.096   2.915  19.904  0.00  0.00    +0.000 A 
ATOM      4  C   UNL     1       2.446   2.731  19.620  0.00  0.00    +0.000 A 
ATOM      5  C   UNL     1       3.352   3.791  19.768  0.00  0.00    +0.000 A 
ATOM      6  C   UNL     1       2.886   5.044  20.202  0.00  0.00    +0.000 A 
ENDROOT
BRANCH   1   9
ATOM      7  C   UNL     1       1.444   7.699  20.522  0.00  0.00    +0.000 C 
ATOM      8  O   UNL     1       2.126   7.855  19.510  0.00  0.00    +0.000 OA
ATOM      9  N   UNL     1       1.114   6.463  21.066  0.00  0.00    +0.000 N 
ATOM     10  H   UNL     1       0.404   6.434  21.784  0.00  0.00    +0.000 HD
BRANCH   7  12
ATOM     11  C   UNL     1       1.763   9.257  22.448  0.00  0.00    +0.000 C 
ATOM     12  C   UNL     1       0.854   8.926  21.245  0.00  0.00    +0.000 C 
ATOM     13  C   UNL     1      -0.553   8.615  21.769  0.00  0.00    +0.000 C 
ATOM     14  C   UNL     1       0.826  10.137  20.305  0.00  0.00    +0.000 C 
ENDBRANCH   7  12
ENDBRANCH   1   9
BRANCH   5  15
ATOM     15  C   UNL     1       4.796   3.499  19.554  0.00  0.00    +0.000 C 
ATOM     16  O   UNL     1       5.247   2.403  19.852  0.00  0.00    +0.000 OA
BRANCH  15  17
ATOM     17  C   UNL     1       5.741   4.558  19.008  0.00  0.00    +0.000 C 
ATOM     18  O   UNL     1       6.583   5.059  19.748  0.00  0.00    +0.000 OA
BRANCH  17  19
ATOM     19  C   UNL     1       5.635   4.926  17.571  0.00  0.00    +0.000 A 
ATOM     20  C   UNL     1       5.182   6.191  17.198  0.00  0.00    +0.000 A 
ATOM     21  C   UNL     1       5.127   6.501  15.840  0.00  0.00    +0.000 A 
ATOM     22  C   UNL     1       5.534   5.553  14.905  0.00  0.00    +0.000 A 
ATOM     23  C   UNL     1       5.963   4.320  15.366  0.00  0.00    +0.000 A 
ATOM     24  N   UNL     1       6.000   3.978  16.673  0.00  0.00    +0.000 NA
ENDBRANCH  17  19
ENDBRANCH  15  17
ENDBRANCH   5  15
TORSDOF 5
ENDMDL
