MODEL 1
REMARK VINA RESULT:      -7.3      0.000      0.000
REMARK  Name = 
REMARK  7 active torsions:
REMARK  status: ('A' for Active; 'I' for Inactive)
REMARK    1  A    between atoms: C_1  and  C_2
REMARK    2  A    between atoms: C_2  and  C_4
REMARK    3  A    between atoms: C_5  and  O_6
REMARK    4  A    between atoms: C_8  and  O_9
REMARK    5  A    between atoms: C_8  and  N_10
REMARK    6  A    between atoms: N_10  and  C_11
REMARK    7  A    between atoms: C_16  and  N_17
REMARK                            x       y       z     vdW  Elec       q    Type
REMARK                         _______ _______ _______ _____ _____    ______ ____
ROOT
ATOM      1  C   UNL     1       3.707   4.154  18.783  0.00  0.00    +0.000 C 
ATOM      2  C   UNL     1       3.120   5.076  19.562  0.00  0.00    +0.000 C 
ATOM      3  C   UNL     1       2.898   6.441  19.112  0.00  0.00    +0.000 C 
ATOM      4  C   UNL     1       2.214   7.382  19.811  0.00  0.00    +0.000 C 
ATOM      5  C   UNL     1       3.563   6.827  17.827  0.00  0.00    +0.000 C 
ATOM      6  O   UNL     1       3.709   7.984  17.443  0.00  0.00    +0.000 OA
ATOM      7  O   UNL     1       4.054   5.834  17.059  0.00  0.00    +0.000 OA
ATOM      8  C   UNL     1       4.119   4.547  17.433  0.00  0.00    +0.000 C 
ATOM      9  O   UNL     1       4.556   3.715  16.644  0.00  0.00    +0.000 OA
ENDROOT
BRANCH   1  11
ATOM     10  C   UNL     1       2.995   1.645  18.916  0.00  0.00    +0.000 C 
ATOM     11  C   UNL     1       3.908   2.769  19.325  0.00  0.00    +0.000 C 
ATOM     12  O   UNL     1       4.856   2.550  20.086  0.00  0.00    +0.000 OA
ENDBRANCH   1  11
BRANCH   2  13
ATOM     13  O   UNL     1       2.710   4.828  20.871  0.00  0.00    +0.000 OA
ATOM     14  H   UNL     1       2.438   5.683  21.292  0.00  0.00    +0.000 HD
ENDBRANCH   2  13
BRANCH   4  15
ATOM     15  O   UNL     1       1.668   7.129  21.056  0.00  0.00    +0.000 OA
ATOM     16  H   UNL     1       0.728   7.411  21.034  0.00  0.00    +0.000 HD
ENDBRANCH   4  15
BRANCH   4  17
ATOM     17  N   UNL     1       2.066   8.698  19.467  0.00  0.00    +0.000 N 
ATOM     18  H   UNL     1       2.803   9.290  19.849  0.00  0.00    +0.000 HD
BRANCH  17  19
ATOM     19  C   UNL     1       0.862   9.436  19.312  0.00  0.00    +0.000 A 
ATOM     20  C   UNL     1       0.404   9.543  17.983  0.00  0.00    +0.000 A 
ATOM     21  C   UNL     1      -0.815  10.137  17.673  0.00  0.00    +0.000 A 
ATOM     22  C   UNL     1      -1.598  10.661  18.689  0.00  0.00    +0.000 A 
ATOM     23  C   UNL     1      -1.148  10.610  20.009  0.00  0.00    +0.000 A 
ATOM     24  C   UNL     1       0.082  10.011  20.337  0.00  0.00    +0.000 A 
BRANCH  24  25
ATOM     25  N   UNL     1       0.558  10.065  21.664  0.00  0.00    +0.000 N 
ATOM     26  C   UNL     1      -0.072   9.566  22.778  0.00  0.00    +0.000 C 
ATOM     27  O   UNL     1       0.360   9.703  23.914  0.00  0.00    +0.000 OA
ATOM     28  H   UNL     1       1.447  10.532  21.826  0.00  0.00    +0.000 HD
ENDBRANCH  24  25
ENDBRANCH  17  19
ENDBRANCH   4  17
TORSDOF 6
ENDMDL
MODEL 2
REMARK VINA RESULT:      -7.2      2.366      6.958
REMARK  Name = 
REMARK  7 active torsions:
REMARK  status: ('A' for Active; 'I' for Inactive)
REMARK    1  A    between atoms: C_1  and  C_2
REMARK    2  A    between atoms: C_2  and  C_4
REMARK    3  A    between atoms: C_5  and  O_6
REMARK    4  A    between atoms: C_8  and  O_9
REMARK    5  A    between atoms: C_8  and  N_10
REMARK    6  A    between atoms: N_10  and  C_11
REMARK    7  A    between atoms: C_16  and  N_17
REMARK                            x       y       z     vdW  Elec       q    Type
REMARK                         _______ _______ _______ _____ _____    ______ ____
ROOT
ATOM      1  C   UNL     1       0.507  10.510  20.548  0.00  0.00    +0.000 C 
ATOM      2  C   UNL     1       0.909   9.233  20.645  0.00  0.00    +0.000 C 
ATOM      3  C   UNL     1       1.699   8.590  19.607  0.00  0.00    +0.000 C 
ATOM      4  C   UNL     1       2.225   7.342  19.700  0.00  0.00    +0.000 C 
ATOM      5  C   UNL     1       1.845   9.349  18.324  0.00  0.00    +0.000 C 
ATOM      6  O   UNL     1       2.235   8.858  17.269  0.00  0.00    +0.000 OA
ATOM      7  O   UNL     1       1.497  10.651  18.331  0.00  0.00    +0.000 OA
ATOM      8  C   UNL     1       0.896  11.271  19.358  0.00  0.00    +0.000 C 
ATOM      9  O   UNL     1       0.651  12.470  19.273  0.00  0.00    +0.000 OA
ENDROOT
BRANCH   1  11
ATOM     10  C   UNL     1      -1.586  11.842  21.360  0.00  0.00    +0.000 C 
ATOM     11  C   UNL     1      -0.314  11.098  21.659  0.00  0.00    +0.000 C 
ATOM     12  O   UNL     1       0.048  10.935  22.828  0.00  0.00    +0.000 OA
ENDBRANCH   1  11
BRANCH   2  13
ATOM     13  O   UNL     1       0.579   8.402  21.714  0.00  0.00    +0.000 OA
ATOM     14  H   UNL     1       0.156   7.577  21.364  0.00  0.00    +0.000 HD
ENDBRANCH   2  13
BRANCH   4  15
ATOM     15  O   UNL     1       2.037   6.540  20.810  0.00  0.00    +0.000 OA
ATOM     16  H   UNL     1       1.568   7.072  21.489  0.00  0.00    +0.000 HD
ENDBRANCH   4  15
BRANCH   4  17
ATOM     17  N   UNL     1       2.890   6.668  18.712  0.00  0.00    +0.000 N 
ATOM     18  H   UNL     1       2.888   7.168  17.824  0.00  0.00    +0.000 HD
BRANCH  17  19
ATOM     19  C   UNL     1       2.954   5.265  18.496  0.00  0.00    +0.000 A 
ATOM     20  C   UNL     1       1.835   4.720  17.835  0.00  0.00    +0.000 A 
ATOM     21  C   UNL     1       1.789   3.383  17.451  0.00  0.00    +0.000 A 
ATOM     22  C   UNL     1       2.861   2.552  17.739  0.00  0.00    +0.000 A 
ATOM     23  C   UNL     1       3.962   3.055  18.433  0.00  0.00    +0.000 A 
ATOM     24  C   UNL     1       4.022   4.405  18.826  0.00  0.00    +0.000 A 
BRANCH  24  25
ATOM     25  N   UNL     1       5.100   4.859  19.614  0.00  0.00    +0.000 N 
ATOM     26  C   UNL     1       6.350   5.208  19.165  0.00  0.00    +0.000 C 
ATOM     27  O   UNL     1       7.267   5.531  19.906  0.00  0.00    +0.000 OA
ATOM     28  H   UNL     1       4.953   4.924  20.619  0.00  0.00    +0.000 HD
ENDBRANCH  24  25
ENDBRANCH  17  19
ENDBRANCH   4  17
TORSDOF 6
ENDMDL
MODEL 3
REMARK VINA RESULT:      -7.1      2.507      7.441
REMARK  Name = 
REMARK  7 active torsions:
REMARK  status: ('A' for Active; 'I' for Inactive)
REMARK    1  A    between atoms: C_1  and  C_2
REMARK    2  A    between atoms: C_2  and  C_4
REMARK    3  A    between atoms: C_5  and  O_6
REMARK    4  A    between atoms: C_8  and  O_9
REMARK    5  A    between atoms: C_8  and  N_10
REMARK    6  A    between atoms: N_10  and  C_11
REMARK    7  A    between atoms: C_16  and  N_17
REMARK                            x       y       z     vdW  Elec       q    Type
REMARK                         _______ _______ _______ _____ _____    ______ ____
ROOT
ATOM      1  C   UNL     1       0.150  11.088  19.310  0.00  0.00    +0.000 C 
ATOM      2  C   UNL     1       1.002  10.190  18.794  0.00  0.00    +0.000 C 
ATOM      3  C   UNL     1       1.388   8.986  19.513  0.00  0.00    +0.000 C 
ATOM      4  C   UNL     1       2.156   7.992  18.999  0.00  0.00    +0.000 C 
ATOM      5  C   UNL     1       0.968   8.913  20.949  0.00  0.00    +0.000 C 
ATOM      6  O   UNL     1       1.426   8.120  21.766  0.00  0.00    +0.000 OA
ATOM      7  O   UNL     1       0.043   9.799  21.371  0.00  0.00    +0.000 OA
ATOM      8  C   UNL     1      -0.413  10.826  20.638  0.00  0.00    +0.000 C 
ATOM      9  O   UNL     1      -1.281  11.557  21.106  0.00  0.00    +0.000 OA
ENDROOT
BRANCH   1  11
ATOM     10  C   UNL     1       0.719  13.507  18.511  0.00  0.00    +0.000 C 
ATOM     11  C   UNL     1      -0.191  12.310  18.508  0.00  0.00    +0.000 C 
ATOM     12  O   UNL     1      -1.213  12.311  17.815  0.00  0.00    +0.000 OA
ENDBRANCH   1  11
BRANCH   2  13
ATOM     13  O   UNL     1       1.622  10.342  17.554  0.00  0.00    +0.000 OA
ATOM     14  H   UNL     1       1.182  11.080  17.062  0.00  0.00    +0.000 HD
ENDBRANCH   2  13
BRANCH   4  15
ATOM     15  O   UNL     1       2.672   8.044  17.717  0.00  0.00    +0.000 OA
ATOM     16  H   UNL     1       3.570   8.437  17.771  0.00  0.00    +0.000 HD
ENDBRANCH   4  15
BRANCH   4  17
ATOM     17  N   UNL     1       2.617   6.894  19.672  0.00  0.00    +0.000 N 
ATOM     18  H   UNL     1       3.603   6.971  19.922  0.00  0.00    +0.000 HD
BRANCH  17  19
ATOM     19  C   UNL     1       2.253   5.534  19.488  0.00  0.00    +0.000 A 
ATOM     20  C   UNL     1       1.473   4.988  20.528  0.00  0.00    +0.000 A 
ATOM     21  C   UNL     1       0.942   3.704  20.450  0.00  0.00    +0.000 A 
ATOM     22  C   UNL     1       1.199   2.925  19.333  0.00  0.00    +0.000 A 
ATOM     23  C   UNL     1       2.006   3.422  18.310  0.00  0.00    +0.000 A 
ATOM     24  C   UNL     1       2.548   4.719  18.375  0.00  0.00    +0.000 A 
BRANCH  24  25
ATOM     25  N   UNL     1       3.442   5.157  17.375  0.00  0.00    +0.000 N 
ATOM     26  C   UNL     1       4.794   4.919  17.328  0.00  0.00    +0.000 C 
ATOM     27  O   UNL     1       5.531   5.383  16.469  0.00  0.00    +0.000 OA
ATOM     28  H   UNL     1       3.062   5.719  16.618  0.00  0.00    +0.000 HD
ENDBRANCH  24  25
ENDBRANCH  17  19
ENDBRANCH   4  17
TORSDOF 6
ENDMDL
MODEL 4
REMARK VINA RESULT:      -7.0      2.327      6.980
REMARK  Name = 
REMARK  7 active torsions:
REMARK  status: ('A' for Active; 'I' for Inactive)
REMARK    1  A    between atoms: C_1  and  C_2
REMARK    2  A    between atoms: C_2  and  C_4
REMARK    3  A    between atoms: C_5  and  O_6
REMARK    4  A    between atoms: C_8  and  O_9
REMARK    5  A    between atoms: C_8  and  N_10
REMARK    6  A    between atoms: N_10  and  C_11
REMARK    7  A    between atoms: C_16  and  N_17
REMARK                            x       y       z     vdW  Elec       q    Type
REMARK                         _______ _______ _______ _____ _____    ______ ____
ROOT
ATOM      1  C   UNL     1       0.870   9.776  20.908  0.00  0.00    +0.000 C 
ATOM      2  C   UNL     1       1.339   8.528  20.750  0.00  0.00    +0.000 C 
ATOM      3  C   UNL     1       1.976   8.090  19.518  0.00  0.00    +0.000 C 
ATOM      4  C   UNL     1       2.565   6.881  19.342  0.00  0.00    +0.000 C 
ATOM      5  C   UNL     1       1.874   9.028  18.355  0.00  0.00    +0.000 C 
ATOM      6  O   UNL     1       2.107   8.717  17.191  0.00  0.00    +0.000 OA
ATOM      7  O   UNL     1       1.475  10.290  18.608  0.00  0.00    +0.000 OA
ATOM      8  C   UNL     1       1.024  10.720  19.797  0.00  0.00    +0.000 C 
ATOM      9  O   UNL     1       0.714  11.899  19.930  0.00  0.00    +0.000 OA
ENDROOT
BRANCH   1  11
ATOM     10  C   UNL     1      -1.079  10.908  22.225  0.00  0.00    +0.000 C 
ATOM     11  C   UNL     1       0.218  10.147  22.207  0.00  0.00    +0.000 C 
ATOM     12  O   UNL     1       0.740   9.790  23.268  0.00  0.00    +0.000 OA
ENDBRANCH   1  11
BRANCH   2  13
ATOM     13  O   UNL     1       1.227   7.536  21.723  0.00  0.00    +0.000 OA
ATOM     14  H   UNL     1       0.989   7.957  22.588  0.00  0.00    +0.000 HD
ENDBRANCH   2  13
BRANCH   4  15
ATOM     15  O   UNL     1       2.598   5.921  20.336  0.00  0.00    +0.000 OA
ATOM     16  H   UNL     1       1.889   6.133  20.982  0.00  0.00    +0.000 HD
ENDBRANCH   4  15
BRANCH   4  17
ATOM     17  N   UNL     1       3.087   6.397  18.173  0.00  0.00    +0.000 N 
ATOM     18  H   UNL     1       2.429   5.812  17.660  0.00  0.00    +0.000 HD
BRANCH  17  19
ATOM     19  C   UNL     1       4.424   5.997  17.908  0.00  0.00    +0.000 A 
ATOM     20  C   UNL     1       5.223   6.983  17.294  0.00  0.00    +0.000 A 
ATOM     21  C   UNL     1       6.583   6.790  17.067  0.00  0.00    +0.000 A 
ATOM     22  C   UNL     1       7.172   5.590  17.433  0.00  0.00    +0.000 A 
ATOM     23  C   UNL     1       6.396   4.578  18.000  0.00  0.00    +0.000 A 
ATOM     24  C   UNL     1       5.021   4.761  18.236  0.00  0.00    +0.000 A 
BRANCH  24  25
ATOM     25  N   UNL     1       4.242   3.687  18.715  0.00  0.00    +0.000 N 
ATOM     26  C   UNL     1       3.698   2.674  17.964  0.00  0.00    +0.000 C 
ATOM     27  O   UNL     1       2.974   1.805  18.428  0.00  0.00    +0.000 OA
ATOM     28  H   UNL     1       4.044   3.658  19.713  0.00  0.00    +0.000 HD
ENDBRANCH  24  25
ENDBRANCH  17  19
ENDBRANCH   4  17
TORSDOF 6
ENDMDL
MODEL 5
REMARK VINA RESULT:      -7.0      2.547      7.517
REMARK  Name = 
REMARK  7 active torsions:
REMARK  status: ('A' for Active; 'I' for Inactive)
REMARK    1  A    between atoms: C_1  and  C_2
REMARK    2  A    between atoms: C_2  and  C_4
REMARK    3  A    between atoms: C_5  and  O_6
REMARK    4  A    between atoms: C_8  and  O_9
REMARK    5  A    between atoms: C_8  and  N_10
REMARK    6  A    between atoms: N_10  and  C_11
REMARK    7  A    between atoms: C_16  and  N_17
REMARK                            x       y       z     vdW  Elec       q    Type
REMARK                         _______ _______ _______ _____ _____    ______ ____
ROOT
ATOM      1  C   UNL     1       0.220  11.079  19.347  0.00  0.00    +0.000 C 
ATOM      2  C   UNL     1       1.088  10.265  18.727  0.00  0.00    +0.000 C 
ATOM      3  C   UNL     1       1.467   8.974  19.276  0.00  0.00    +0.000 C 
ATOM      4  C   UNL     1       2.251   8.065  18.643  0.00  0.00    +0.000 C 
ATOM      5  C   UNL     1       1.021   8.698  20.679  0.00  0.00    +0.000 C 
ATOM      6  O   UNL     1       1.469   7.800  21.386  0.00  0.00    +0.000 OA
ATOM      7  O   UNL     1       0.083   9.513  21.203  0.00  0.00    +0.000 OA
ATOM      8  C   UNL     1      -0.366  10.631  20.614  0.00  0.00    +0.000 C 
ATOM      9  O   UNL     1      -1.247  11.286  21.163  0.00  0.00    +0.000 OA
ENDROOT
BRANCH   1  11
ATOM     10  C   UNL     1       0.648  13.642  19.093  0.00  0.00    +0.000 C 
ATOM     11  C   UNL     1      -0.113  12.400  18.718  0.00  0.00    +0.000 C 
ATOM     12  O   UNL     1      -0.999  12.454  17.859  0.00  0.00    +0.000 OA
ENDBRANCH   1  11
BRANCH   2  13
ATOM     13  O   UNL     1       1.730  10.593  17.533  0.00  0.00    +0.000 OA
ATOM     14  H   UNL     1       2.625  10.168  17.520  0.00  0.00    +0.000 HD
ENDBRANCH   2  13
BRANCH   4  15
ATOM     15  O   UNL     1       2.791   8.298  17.391  0.00  0.00    +0.000 OA
ATOM     16  H   UNL     1       2.112   8.059  16.723  0.00  0.00    +0.000 HD
ENDBRANCH   4  15
BRANCH   4  17
ATOM     17  N   UNL     1       2.707   6.885  19.164  0.00  0.00    +0.000 N 
ATOM     18  H   UNL     1       3.467   7.016  19.831  0.00  0.00    +0.000 HD
BRANCH  17  19
ATOM     19  C   UNL     1       2.821   5.625  18.517  0.00  0.00    +0.000 A 
ATOM     20  C   UNL     1       1.696   4.787  18.659  0.00  0.00    +0.000 A 
ATOM     21  C   UNL     1       1.603   3.566  17.998  0.00  0.00    +0.000 A 
ATOM     22  C   UNL     1       2.648   3.144  17.192  0.00  0.00    +0.000 A 
ATOM     23  C   UNL     1       3.793   3.932  17.070  0.00  0.00    +0.000 A 
ATOM     24  C   UNL     1       3.900   5.169  17.732  0.00  0.00    +0.000 A 
BRANCH  24  25
ATOM     25  N   UNL     1       5.109   5.895  17.673  0.00  0.00    +0.000 N 
ATOM     26  C   UNL     1       5.644   6.499  16.562  0.00  0.00    +0.000 C 
ATOM     27  O   UNL     1       6.732   7.059  16.557  0.00  0.00    +0.000 OA
ATOM     28  H   UNL     1       5.653   5.971  18.529  0.00  0.00    +0.000 HD
ENDBRANCH  24  25
ENDBRANCH  17  19
ENDBRANCH   4  17
TORSDOF 6
ENDMDL
MODEL 6
REMARK VINA RESULT:      -7.0      2.659      7.463
REMARK  Name = 
REMARK  7 active torsions:
REMARK  status: ('A' for Active; 'I' for Inactive)
REMARK    1  A    between atoms: C_1  and  C_2
REMARK    2  A    between atoms: C_2  and  C_4
REMARK    3  A    between atoms: C_5  and  O_6
REMARK    4  A    between atoms: C_8  and  O_9
REMARK    5  A    between atoms: C_8  and  N_10
REMARK    6  A    between atoms: N_10  and  C_11
REMARK    7  A    between atoms: C_16  and  N_17
REMARK                            x       y       z     vdW  Elec       q    Type
REMARK                         _______ _______ _______ _____ _____    ______ ____
ROOT
ATOM      1  C   UNL     1       0.200  11.156  19.255  0.00  0.00    +0.000 C 
ATOM      2  C   UNL     1       1.055  10.279  18.706  0.00  0.00    +0.000 C 
ATOM      3  C   UNL     1       1.376   9.010  19.339  0.00  0.00    +0.000 C 
ATOM      4  C   UNL     1       2.144   8.041  18.780  0.00  0.00    +0.000 C 
ATOM      5  C   UNL     1       0.886   8.833  20.743  0.00  0.00    +0.000 C 
ATOM      6  O   UNL     1       1.285   7.963  21.512  0.00  0.00    +0.000 OA
ATOM      7  O   UNL     1      -0.036   9.706  21.194  0.00  0.00    +0.000 OA
ATOM      8  C   UNL     1      -0.432  10.803  20.529  0.00  0.00    +0.000 C 
ATOM      9  O   UNL     1      -1.303  11.517  21.015  0.00  0.00    +0.000 OA
ENDROOT
BRANCH   1  11
ATOM     10  C   UNL     1       0.885  13.603  18.654  0.00  0.00    +0.000 C 
ATOM     11  C   UNL     1      -0.072  12.448  18.542  0.00  0.00    +0.000 C 
ATOM     12  O   UNL     1      -1.077  12.544  17.829  0.00  0.00    +0.000 OA
ENDBRANCH   1  11
BRANCH   2  13
ATOM     13  O   UNL     1       1.737  10.515  17.513  0.00  0.00    +0.000 OA
ATOM     14  H   UNL     1       1.604   9.742  16.907  0.00  0.00    +0.000 HD
ENDBRANCH   2  13
BRANCH   4  15
ATOM     15  O   UNL     1       2.722   8.182  17.532  0.00  0.00    +0.000 OA
ATOM     16  H   UNL     1       2.728   7.299  17.103  0.00  0.00    +0.000 HD
ENDBRANCH   4  15
BRANCH   4  17
ATOM     17  N   UNL     1       2.546   6.879  19.381  0.00  0.00    +0.000 N 
ATOM     18  H   UNL     1       3.154   7.041  20.183  0.00  0.00    +0.000 HD
BRANCH  17  19
ATOM     19  C   UNL     1       2.845   5.632  18.770  0.00  0.00    +0.000 A 
ATOM     20  C   UNL     1       1.742   4.994  18.166  0.00  0.00    +0.000 A 
ATOM     21  C   UNL     1       1.886   3.820  17.431  0.00  0.00    +0.000 A 
ATOM     22  C   UNL     1       3.140   3.245  17.301  0.00  0.00    +0.000 A 
ATOM     23  C   UNL     1       4.241   3.830  17.927  0.00  0.00    +0.000 A 
ATOM     24  C   UNL     1       4.111   5.017  18.672  0.00  0.00    +0.000 A 
BRANCH  24  25
ATOM     25  N   UNL     1       5.220   5.529  19.377  0.00  0.00    +0.000 N 
ATOM     26  C   UNL     1       6.522   5.107  19.269  0.00  0.00    +0.000 C 
ATOM     27  O   UNL     1       7.433   5.545  19.957  0.00  0.00    +0.000 OA
ATOM     28  H   UNL     1       5.047   6.276  20.046  0.00  0.00    +0.000 HD
ENDBRANCH  24  25
ENDBRANCH  17  19
ENDBRANCH   4  17
TORSDOF 6
ENDMDL
MODEL 7
REMARK VINA RESULT:      -7.0      2.358      7.297
REMARK  Name = 
REMARK  7 active torsions:
REMARK  status: ('A' for Active; 'I' for Inactive)
REMARK    1  A    between atoms: C_1  and  C_2
REMARK    2  A    between atoms: C_2  and  C_4
REMARK    3  A    between atoms: C_5  and  O_6
REMARK    4  A    between atoms: C_8  and  O_9
REMARK    5  A    between atoms: C_8  and  N_10
REMARK    6  A    between atoms: N_10  and  C_11
REMARK    7  A    between atoms: C_16  and  N_17
REMARK                            x       y       z     vdW  Elec       q    Type
REMARK                         _______ _______ _______ _____ _____    ______ ____
ROOT
ATOM      1  C   UNL     1       0.557  10.098  19.243  0.00  0.00    +0.000 C 
ATOM      2  C   UNL     1       1.489   9.380  18.598  0.00  0.00    +0.000 C 
ATOM      3  C   UNL     1       2.011   8.132  19.130  0.00  0.00    +0.000 C 
ATOM      4  C   UNL     1       2.869   7.311  18.473  0.00  0.00    +0.000 C 
ATOM      5  C   UNL     1       1.627   7.806  20.541  0.00  0.00    +0.000 C 
ATOM      6  O   UNL     1       2.180   6.954  21.231  0.00  0.00    +0.000 OA
ATOM      7  O   UNL     1       0.623   8.517  21.091  0.00  0.00    +0.000 OA
ATOM      8  C   UNL     1       0.049   9.587  20.519  0.00  0.00    +0.000 C 
ATOM      9  O   UNL     1      -0.881  10.145  21.092  0.00  0.00    +0.000 OA
ENDROOT
BRANCH   1  11
ATOM     10  C   UNL     1      -1.320  11.494  18.084  0.00  0.00    +0.000 C 
ATOM     11  C   UNL     1       0.077  11.381  18.631  0.00  0.00    +0.000 C 
ATOM     12  O   UNL     1       0.830  12.360  18.611  0.00  0.00    +0.000 OA
ENDBRANCH   1  11
BRANCH   2  13
ATOM     13  O   UNL     1       2.067   9.777  17.392  0.00  0.00    +0.000 OA
ATOM     14  H   UNL     1       1.550   9.388  16.643  0.00  0.00    +0.000 HD
ENDBRANCH   2  13
BRANCH   4  15
ATOM     15  O   UNL     1       3.354   7.603  17.212  0.00  0.00    +0.000 OA
ATOM     16  H   UNL     1       4.329   7.703  17.280  0.00  0.00    +0.000 HD
ENDBRANCH   4  15
BRANCH   4  17
ATOM     17  N   UNL     1       3.455   6.181  18.976  0.00  0.00    +0.000 N 
ATOM     18  H   UNL     1       4.446   6.308  19.178  0.00  0.00    +0.000 HD
BRANCH  17  19
ATOM     19  C   UNL     1       3.181   4.827  18.644  0.00  0.00    +0.000 A 
ATOM     20  C   UNL     1       1.817   4.536  18.439  0.00  0.00    +0.000 A 
ATOM     21  C   UNL     1       1.392   3.285  18.001  0.00  0.00    +0.000 A 
ATOM     22  C   UNL     1       2.326   2.286  17.778  0.00  0.00    +0.000 A 
ATOM     23  C   UNL     1       3.679   2.532  18.017  0.00  0.00    +0.000 A 
ATOM     24  C   UNL     1       4.122   3.793  18.458  0.00  0.00    +0.000 A 
BRANCH  24  25
ATOM     25  N   UNL     1       5.480   3.983  18.789  0.00  0.00    +0.000 N 
ATOM     26  C   UNL     1       6.444   4.547  17.991  0.00  0.00    +0.000 C 
ATOM     27  O   UNL     1       7.623   4.624  18.308  0.00  0.00    +0.000 OA
ATOM     28  H   UNL     1       5.791   3.658  19.702  0.00  0.00    +0.000 HD
ENDBRANCH  24  25
ENDBRANCH  17  19
ENDBRANCH   4  17
TORSDOF 6
ENDMDL
MODEL 8
REMARK VINA RESULT:      -7.0      2.355      6.902
REMARK  Name = 
REMARK  7 active torsions:
REMARK  status: ('A' for Active; 'I' for Inactive)
REMARK    1  A    between atoms: C_1  and  C_2
REMARK    2  A    between atoms: C_2  and  C_4
REMARK    3  A    between atoms: C_5  and  O_6
REMARK    4  A    between atoms: C_8  and  O_9
REMARK    5  A    between atoms: C_8  and  N_10
REMARK    6  A    between atoms: N_10  and  C_11
REMARK    7  A    between atoms: C_16  and  N_17
REMARK                            x       y       z     vdW  Elec       q    Type
REMARK                         _______ _______ _______ _____ _____    ______ ____
ROOT
ATOM      1  C   UNL     1       0.778   9.850  21.302  0.00  0.00    +0.000 C 
ATOM      2  C   UNL     1       1.318   8.684  20.917  0.00  0.00    +0.000 C 
ATOM      3  C   UNL     1       1.828   8.473  19.571  0.00  0.00    +0.000 C 
ATOM      4  C   UNL     1       2.483   7.358  19.160  0.00  0.00    +0.000 C 
ATOM      5  C   UNL     1       1.510   9.542  18.572  0.00  0.00    +0.000 C 
ATOM      6  O   UNL     1       1.620   9.410  17.356  0.00  0.00    +0.000 OA
ATOM      7  O   UNL     1       1.049  10.717  19.045  0.00  0.00    +0.000 OA
ATOM      8  C   UNL     1       0.718  10.942  20.326  0.00  0.00    +0.000 C 
ATOM      9  O   UNL     1       0.337  12.060  20.659  0.00  0.00    +0.000 OA
ENDROOT
BRANCH   1  11
ATOM     10  C   UNL     1      -1.102  10.549  22.973  0.00  0.00    +0.000 C 
ATOM     11  C   UNL     1       0.266   9.984  22.706  0.00  0.00    +0.000 C 
ATOM     12  O   UNL     1       0.967   9.592  23.644  0.00  0.00    +0.000 OA
ENDBRANCH   1  11
BRANCH   2  13
ATOM     13  O   UNL     1       1.405   7.566  21.746  0.00  0.00    +0.000 OA
ATOM     14  H   UNL     1       0.520   7.398  22.156  0.00  0.00    +0.000 HD
ENDBRANCH   2  13
BRANCH   4  15
ATOM     15  O   UNL     1       2.714   6.283  19.998  0.00  0.00    +0.000 OA
ATOM     16  H   UNL     1       2.881   5.495  19.436  0.00  0.00    +0.000 HD
ENDBRANCH   4  15
BRANCH   4  17
ATOM     17  N   UNL     1       2.891   7.083  17.883  0.00  0.00    +0.000 N 
ATOM     18  H   UNL     1       2.164   7.259  17.190  0.00  0.00    +0.000 HD
BRANCH  17  19
ATOM     19  C   UNL     1       3.764   6.052  17.442  0.00  0.00    +0.000 A 
ATOM     20  C   UNL     1       5.012   6.501  16.966  0.00  0.00    +0.000 A 
ATOM     21  C   UNL     1       6.020   5.613  16.600  0.00  0.00    +0.000 A 
ATOM     22  C   UNL     1       5.792   4.249  16.684  0.00  0.00    +0.000 A 
ATOM     23  C   UNL     1       4.550   3.777  17.108  0.00  0.00    +0.000 A 
ATOM     24  C   UNL     1       3.522   4.663  17.482  0.00  0.00    +0.000 A 
BRANCH  24  25
ATOM     25  N   UNL     1       2.246   4.160  17.808  0.00  0.00    +0.000 N 
ATOM     26  C   UNL     1       1.932   2.854  18.100  0.00  0.00    +0.000 C 
ATOM     27  O   UNL     1       0.792   2.466  18.310  0.00  0.00    +0.000 OA
ATOM     28  H   UNL     1       1.469   4.817  17.816  0.00  0.00    +0.000 HD
ENDBRANCH  24  25
ENDBRANCH  17  19
ENDBRANCH   4  17
TORSDOF 6
ENDMDL
MODEL 9
REMARK VINA RESULT:      -6.9      2.385      7.110
REMARK  Name = 
REMARK  7 active torsions:
REMARK  status: ('A' for Active; 'I' for Inactive)
REMARK    1  A    between atoms: C_1  and  C_2
REMARK    2  A    between atoms: C_2  and  C_4
REMARK    3  A    between atoms: C_5  and  O_6
REMARK    4  A    between atoms: C_8  and  O_9
REMARK    5  A    between atoms: C_8  and  N_10
REMARK    6  A    between atoms: N_10  and  C_11
REMARK    7  A    between atoms: C_16  and  N_17
REMARK                            x       y       z     vdW  Elec       q    Type
REMARK                         _______ _______ _______ _____ _____    ______ ____
ROOT
ATOM      1  C   UNL     1       0.305  10.447  21.124  0.00  0.00    +0.000 C 
ATOM      2  C   UNL     1       0.815   9.217  20.960  0.00  0.00    +0.000 C 
ATOM      3  C   UNL     1       1.510   8.822  19.745  0.00  0.00    +0.000 C 
ATOM      4  C   UNL     1       2.140   7.633  19.568  0.00  0.00    +0.000 C 
ATOM      5  C   UNL     1       1.426   9.781  18.598  0.00  0.00    +0.000 C 
ATOM      6  O   UNL     1       1.712   9.500  17.437  0.00  0.00    +0.000 OA
ATOM      7  O   UNL     1       0.981  11.026  18.860  0.00  0.00    +0.000 OA
ATOM      8  C   UNL     1       0.473  11.418  20.039  0.00  0.00    +0.000 C 
ATOM      9  O   UNL     1       0.125  12.585  20.183  0.00  0.00    +0.000 OA
ENDROOT
BRANCH   1  11
ATOM     10  C   UNL     1      -1.635  11.640  22.400  0.00  0.00    +0.000 C 
ATOM     11  C   UNL     1      -0.406  10.773  22.405  0.00  0.00    +0.000 C 
ATOM     12  O   UNL     1       0.007  10.292  23.464  0.00  0.00    +0.000 OA
ENDBRANCH   1  11
BRANCH   2  13
ATOM     13  O   UNL     1       0.695   8.201  21.908  0.00  0.00    +0.000 OA
ATOM     14  H   UNL     1       1.305   7.460  21.667  0.00  0.00    +0.000 HD
ENDBRANCH   2  13
BRANCH   4  15
ATOM     15  O   UNL     1       2.163   6.655  20.544  0.00  0.00    +0.000 OA
ATOM     16  H   UNL     1       2.337   7.093  21.405  0.00  0.00    +0.000 HD
ENDBRANCH   4  15
BRANCH   4  17
ATOM     17  N   UNL     1       2.720   7.189  18.411  0.00  0.00    +0.000 N 
ATOM     18  H   UNL     1       2.434   7.728  17.594  0.00  0.00    +0.000 HD
BRANCH  17  19
ATOM     19  C   UNL     1       3.036   5.853  18.043  0.00  0.00    +0.000 A 
ATOM     20  C   UNL     1       1.931   4.978  18.002  0.00  0.00    +0.000 A 
ATOM     21  C   UNL     1       2.052   3.665  17.555  0.00  0.00    +0.000 A 
ATOM     22  C   UNL     1       3.291   3.190  17.157  0.00  0.00    +0.000 A 
ATOM     23  C   UNL     1       4.410   4.021  17.231  0.00  0.00    +0.000 A 
ATOM     24  C   UNL     1       4.302   5.350  17.680  0.00  0.00    +0.000 A 
BRANCH  24  25
ATOM     25  N   UNL     1       5.465   6.133  17.841  0.00  0.00    +0.000 N 
ATOM     26  C   UNL     1       6.310   6.555  16.844  0.00  0.00    +0.000 C 
ATOM     27  O   UNL     1       7.341   7.177  17.053  0.00  0.00    +0.000 OA
ATOM     28  H   UNL     1       5.721   6.405  18.788  0.00  0.00    +0.000 HD
ENDBRANCH  24  25
ENDBRANCH  17  19
ENDBRANCH   4  17
TORSDOF 6
ENDMDL
