MODEL 1
REMARK VINA RESULT:      -5.5      0.000      0.000
REMARK  Name = 
REMARK  3 active torsions:
REMARK  status: ('A' for Active; 'I' for Inactive)
REMARK    1  A    between atoms: C_2  and  O_3
REMARK    2  A    between atoms: C_2  and  C_9
REMARK    3  A    between atoms: O_3  and  C_4
REMARK                            x       y       z     vdW  Elec       q    Type
REMARK                         _______ _______ _______ _____ _____    ______ ____
ROOT
ATOM      1  O   UNL     1       5.088   2.103  20.373  0.00  0.00    +0.000 OA
ATOM      2  C   UNL     1       4.386   2.777  19.629  0.00  0.00    +0.000 C 
ENDROOT
BRANCH   2   3
ATOM      3  C   UNL     1       2.943   2.837  19.675  0.00  0.00    +0.000 A 
ATOM      4  C   UNL     1       2.099   3.312  20.664  0.00  0.00    +0.000 A 
ATOM      5  C   UNL     1       0.777   3.166  20.180  0.00  0.00    +0.000 A 
ATOM      6  C   UNL     1       0.889   2.612  18.926  0.00  0.00    +0.000 A 
ATOM      7  O   UNL     1       2.194   2.407  18.611  0.00  0.00    +0.000 OA
ENDBRANCH   2   3
BRANCH   2   8
ATOM      8  O   UNL     1       4.882   3.608  18.663  0.00  0.00    +0.000 OA
BRANCH   8   9
ATOM      9  C   UNL     1       5.055   4.987  19.068  0.00  0.00    +0.000 C 
ATOM     10  C   UNL     1       6.542   5.377  19.166  0.00  0.00    +0.000 C 
ATOM     11  S   UNL     1       7.040   6.396  17.750  0.00  0.00    +0.000 S 
ATOM     12  S   UNL     1       5.327   6.175  16.668  0.00  0.00    +0.000 S 
ATOM     13  C   UNL     1       4.271   5.886  18.104  0.00  0.00    +0.000 C 
ENDBRANCH   8   9
ENDBRANCH   2   8
TORSDOF 3
ENDMDL
MODEL 2
REMARK VINA RESULT:      -5.4      3.419      5.240
REMARK  Name = 
REMARK  3 active torsions:
REMARK  status: ('A' for Active; 'I' for Inactive)
REMARK    1  A    between atoms: C_2  and  O_3
REMARK    2  A    between atoms: C_2  and  C_9
REMARK    3  A    between atoms: O_3  and  C_4
REMARK                            x       y       z     vdW  Elec       q    Type
REMARK                         _______ _______ _______ _____ _____    ______ ____
ROOT
ATOM      1  O   UNL     1       7.453   4.552  18.366  0.00  0.00    +0.000 OA
ATOM      2  C   UNL     1       6.534   4.763  17.582  0.00  0.00    +0.000 C 
ENDROOT
BRANCH   2   3
ATOM      3  C   UNL     1       6.606   4.586  16.150  0.00  0.00    +0.000 A 
ATOM      4  C   UNL     1       5.896   3.741  15.316  0.00  0.00    +0.000 A 
ATOM      5  C   UNL     1       6.336   4.000  13.996  0.00  0.00    +0.000 A 
ATOM      6  C   UNL     1       7.288   4.987  14.099  0.00  0.00    +0.000 A 
ATOM      7  O   UNL     1       7.461   5.348  15.397  0.00  0.00    +0.000 OA
ENDBRANCH   2   3
BRANCH   2   8
ATOM      8  O   UNL     1       5.284   5.162  17.967  0.00  0.00    +0.000 OA
BRANCH   8   9
ATOM      9  C   UNL     1       4.718   4.425  19.077  0.00  0.00    +0.000 C 
ATOM     10  C   UNL     1       3.578   5.201  19.762  0.00  0.00    +0.000 C 
ATOM     11  S   UNL     1       1.961   4.515  19.308  0.00  0.00    +0.000 S 
ATOM     12  S   UNL     1       2.627   3.239  17.865  0.00  0.00    +0.000 S 
ATOM     13  C   UNL     1       4.276   3.044  18.577  0.00  0.00    +0.000 C 
ENDBRANCH   8   9
ENDBRANCH   2   8
TORSDOF 3
ENDMDL
MODEL 3
REMARK VINA RESULT:      -5.4      1.552      2.363
REMARK  Name = 
REMARK  3 active torsions:
REMARK  status: ('A' for Active; 'I' for Inactive)
REMARK    1  A    between atoms: C_2  and  O_3
REMARK    2  A    between atoms: C_2  and  C_9
REMARK    3  A    between atoms: O_3  and  C_4
REMARK                            x       y       z     vdW  Elec       q    Type
REMARK                         _______ _______ _______ _____ _____    ______ ____
ROOT
ATOM      1  O   UNL     1       2.286   2.587  17.106  0.00  0.00    +0.000 OA
ATOM      2  C   UNL     1       2.898   3.008  18.081  0.00  0.00    +0.000 C 
ENDROOT
BRANCH   2   3
ATOM      3  C   UNL     1       2.431   2.945  19.446  0.00  0.00    +0.000 A 
ATOM      4  C   UNL     1       1.150   3.049  19.960  0.00  0.00    +0.000 A 
ATOM      5  C   UNL     1       1.254   2.880  21.361  0.00  0.00    +0.000 A 
ATOM      6  C   UNL     1       2.590   2.684  21.624  0.00  0.00    +0.000 A 
ATOM      7  O   UNL     1       3.312   2.723  20.473  0.00  0.00    +0.000 OA
ENDBRANCH   2   3
BRANCH   2   8
ATOM      8  O   UNL     1       4.145   3.567  18.012  0.00  0.00    +0.000 OA
BRANCH   8   9
ATOM      9  C   UNL     1       4.372   4.423  16.867  0.00  0.00    +0.000 C 
ATOM     10  C   UNL     1       4.444   5.910  17.264  0.00  0.00    +0.000 C 
ATOM     11  S   UNL     1       6.158   6.504  17.247  0.00  0.00    +0.000 S 
ATOM     12  S   UNL     1       7.048   4.691  16.976  0.00  0.00    +0.000 S 
ATOM     13  C   UNL     1       5.633   3.945  16.137  0.00  0.00    +0.000 C 
ENDBRANCH   8   9
ENDBRANCH   2   8
TORSDOF 3
ENDMDL
MODEL 4
REMARK VINA RESULT:      -5.3      0.999      1.228
REMARK  Name = 
REMARK  3 active torsions:
REMARK  status: ('A' for Active; 'I' for Inactive)
REMARK    1  A    between atoms: C_2  and  O_3
REMARK    2  A    between atoms: C_2  and  C_9
REMARK    3  A    between atoms: O_3  and  C_4
REMARK                            x       y       z     vdW  Elec       q    Type
REMARK                         _______ _______ _______ _____ _____    ______ ____
ROOT
ATOM      1  O   UNL     1       5.199   1.900  20.391  0.00  0.00    +0.000 OA
ATOM      2  C   UNL     1       4.346   2.525  19.771  0.00  0.00    +0.000 C 
ENDROOT
BRANCH   2   3
ATOM      3  C   UNL     1       2.977   2.707  20.195  0.00  0.00    +0.000 A 
ATOM      4  C   UNL     1       2.428   2.726  21.465  0.00  0.00    +0.000 A 
ATOM      5  C   UNL     1       1.044   2.976  21.311  0.00  0.00    +0.000 A 
ATOM      6  C   UNL     1       0.826   3.096  19.958  0.00  0.00    +0.000 A 
ATOM      7  O   UNL     1       1.988   2.934  19.273  0.00  0.00    +0.000 OA
ENDBRANCH   2   3
BRANCH   2   8
ATOM      8  O   UNL     1       4.589   3.178  18.594  0.00  0.00    +0.000 OA
BRANCH   8   9
ATOM      9  C   UNL     1       5.463   4.327  18.698  0.00  0.00    +0.000 C 
ATOM     10  C   UNL     1       6.138   4.660  17.354  0.00  0.00    +0.000 C 
ATOM     11  S   UNL     1       5.370   6.113  16.584  0.00  0.00    +0.000 S 
ATOM     12  S   UNL     1       3.805   6.283  17.878  0.00  0.00    +0.000 S 
ATOM     13  C   UNL     1       4.663   5.506  19.265  0.00  0.00    +0.000 C 
ENDBRANCH   8   9
ENDBRANCH   2   8
TORSDOF 3
ENDMDL
MODEL 5
REMARK VINA RESULT:      -5.3      3.263      5.031
REMARK  Name = 
REMARK  3 active torsions:
REMARK  status: ('A' for Active; 'I' for Inactive)
REMARK    1  A    between atoms: C_2  and  O_3
REMARK    2  A    between atoms: C_2  and  C_9
REMARK    3  A    between atoms: O_3  and  C_4
REMARK                            x       y       z     vdW  Elec       q    Type
REMARK                         _______ _______ _______ _____ _____    ______ ____
ROOT
ATOM      1  O   UNL     1       6.188   4.423  19.383  0.00  0.00    +0.000 OA
ATOM      2  C   UNL     1       5.430   4.319  18.426  0.00  0.00    +0.000 C 
ENDROOT
BRANCH   2   3
ATOM      3  C   UNL     1       5.822   4.422  17.039  0.00  0.00    +0.000 A 
ATOM      4  C   UNL     1       7.068   4.637  16.475  0.00  0.00    +0.000 A 
ATOM      5  C   UNL     1       6.893   4.613  15.071  0.00  0.00    +0.000 A 
ATOM      6  C   UNL     1       5.553   4.385  14.858  0.00  0.00    +0.000 A 
ATOM      7  O   UNL     1       4.896   4.270  16.041  0.00  0.00    +0.000 OA
ENDBRANCH   2   3
BRANCH   2   8
ATOM      8  O   UNL     1       4.094   4.046  18.541  0.00  0.00    +0.000 OA
BRANCH   8   9
ATOM      9  C   UNL     1       3.778   2.775  19.158  0.00  0.00    +0.000 C 
ATOM     10  C   UNL     1       3.275   2.947  20.604  0.00  0.00    +0.000 C 
ATOM     11  S   UNL     1       1.478   2.719  20.698  0.00  0.00    +0.000 S 
ATOM     12  S   UNL     1       1.130   2.647  18.691  0.00  0.00    +0.000 S 
ATOM     13  C   UNL     1       2.774   2.031  18.268  0.00  0.00    +0.000 C 
ENDBRANCH   8   9
ENDBRANCH   2   8
TORSDOF 3
ENDMDL
MODEL 6
REMARK VINA RESULT:      -5.3      1.683      2.530
REMARK  Name = 
REMARK  3 active torsions:
REMARK  status: ('A' for Active; 'I' for Inactive)
REMARK    1  A    between atoms: C_2  and  O_3
REMARK    2  A    between atoms: C_2  and  C_9
REMARK    3  A    between atoms: O_3  and  C_4
REMARK                            x       y       z     vdW  Elec       q    Type
REMARK                         _______ _______ _______ _____ _____    ______ ____
ROOT
ATOM      1  O   UNL     1       1.639   3.898  17.232  0.00  0.00    +0.000 OA
ATOM      2  C   UNL     1       2.253   4.232  18.239  0.00  0.00    +0.000 C 
ENDROOT
BRANCH   2   3
ATOM      3  C   UNL     1       2.073   3.657  19.552  0.00  0.00    +0.000 A 
ATOM      4  C   UNL     1       0.928   3.515  20.317  0.00  0.00    +0.000 A 
ATOM      5  C   UNL     1       1.310   2.852  21.508  0.00  0.00    +0.000 A 
ATOM      6  C   UNL     1       2.663   2.628  21.403  0.00  0.00    +0.000 A 
ATOM      7  O   UNL     1       3.135   3.113  20.225  0.00  0.00    +0.000 OA
ENDBRANCH   2   3
BRANCH   2   8
ATOM      8  O   UNL     1       3.238   5.181  18.248  0.00  0.00    +0.000 OA
BRANCH   8   9
ATOM      9  C   UNL     1       4.264   5.012  17.240  0.00  0.00    +0.000 C 
ATOM     10  C   UNL     1       4.714   6.359  16.645  0.00  0.00    +0.000 C 
ATOM     11  S   UNL     1       6.332   6.851  17.300  0.00  0.00    +0.000 S 
ATOM     12  S   UNL     1       6.477   5.399  18.723  0.00  0.00    +0.000 S 
ATOM     13  C   UNL     1       5.426   4.218  17.850  0.00  0.00    +0.000 C 
ENDBRANCH   8   9
ENDBRANCH   2   8
TORSDOF 3
ENDMDL
MODEL 7
REMARK VINA RESULT:      -5.3      1.268      1.447
REMARK  Name = 
REMARK  3 active torsions:
REMARK  status: ('A' for Active; 'I' for Inactive)
REMARK    1  A    between atoms: C_2  and  O_3
REMARK    2  A    between atoms: C_2  and  C_9
REMARK    3  A    between atoms: O_3  and  C_4
REMARK                            x       y       z     vdW  Elec       q    Type
REMARK                         _______ _______ _______ _____ _____    ______ ____
ROOT
ATOM      1  O   UNL     1       5.057   2.052  20.404  0.00  0.00    +0.000 OA
ATOM      2  C   UNL     1       4.329   2.628  19.603  0.00  0.00    +0.000 C 
ENDROOT
BRANCH   2   3
ATOM      3  C   UNL     1       2.950   2.984  19.841  0.00  0.00    +0.000 A 
ATOM      4  C   UNL     1       1.784   2.455  19.315  0.00  0.00    +0.000 A 
ATOM      5  C   UNL     1       0.708   3.151  19.915  0.00  0.00    +0.000 A 
ATOM      6  C   UNL     1       1.276   4.065  20.771  0.00  0.00    +0.000 A 
ATOM      7  O   UNL     1       2.631   3.975  20.733  0.00  0.00    +0.000 OA
ENDBRANCH   2   3
BRANCH   2   8
ATOM      8  O   UNL     1       4.742   3.053  18.370  0.00  0.00    +0.000 OA
BRANCH   8   9
ATOM      9  C   UNL     1       4.831   4.489  18.213  0.00  0.00    +0.000 C 
ATOM     10  C   UNL     1       5.870   5.109  19.167  0.00  0.00    +0.000 C 
ATOM     11  S   UNL     1       7.385   5.556  18.275  0.00  0.00    +0.000 S 
ATOM     12  S   UNL     1       6.903   4.670  16.504  0.00  0.00    +0.000 S 
ATOM     13  C   UNL     1       5.118   4.807  16.741  0.00  0.00    +0.000 C 
ENDBRANCH   8   9
ENDBRANCH   2   8
TORSDOF 3
ENDMDL
MODEL 8
REMARK VINA RESULT:      -5.3      1.184      1.889
REMARK  Name = 
REMARK  3 active torsions:
REMARK  status: ('A' for Active; 'I' for Inactive)
REMARK    1  A    between atoms: C_2  and  O_3
REMARK    2  A    between atoms: C_2  and  C_9
REMARK    3  A    between atoms: O_3  and  C_4
REMARK                            x       y       z     vdW  Elec       q    Type
REMARK                         _______ _______ _______ _____ _____    ______ ____
ROOT
ATOM      1  O   UNL     1       2.110   3.256  17.075  0.00  0.00    +0.000 OA
ATOM      2  C   UNL     1       2.819   3.440  18.058  0.00  0.00    +0.000 C 
ENDROOT
BRANCH   2   3
ATOM      3  C   UNL     1       2.405   3.248  19.428  0.00  0.00    +0.000 A 
ATOM      4  C   UNL     1       1.218   3.577  20.060  0.00  0.00    +0.000 A 
ATOM      5  C   UNL     1       1.327   3.132  21.398  0.00  0.00    +0.000 A 
ATOM      6  C   UNL     1       2.572   2.558  21.509  0.00  0.00    +0.000 A 
ATOM      7  O   UNL     1       3.233   2.624  20.325  0.00  0.00    +0.000 OA
ENDBRANCH   2   3
BRANCH   2   8
ATOM      8  O   UNL     1       4.131   3.820  17.989  0.00  0.00    +0.000 OA
BRANCH   8   9
ATOM      9  C   UNL     1       4.427   5.116  18.562  0.00  0.00    +0.000 C 
ATOM     10  C   UNL     1       5.907   5.240  18.971  0.00  0.00    +0.000 C 
ATOM     11  S   UNL     1       6.825   6.262  17.786  0.00  0.00    +0.000 S 
ATOM     12  S   UNL     1       5.347   6.415  16.391  0.00  0.00    +0.000 S 
ATOM     13  C   UNL     1       3.996   6.203  17.570  0.00  0.00    +0.000 C 
ENDBRANCH   8   9
ENDBRANCH   2   8
TORSDOF 3
ENDMDL
MODEL 9
REMARK VINA RESULT:      -5.3      3.124      4.849
REMARK  Name = 
REMARK  3 active torsions:
REMARK  status: ('A' for Active; 'I' for Inactive)
REMARK    1  A    between atoms: C_2  and  O_3
REMARK    2  A    between atoms: C_2  and  C_9
REMARK    3  A    between atoms: O_3  and  C_4
REMARK                            x       y       z     vdW  Elec       q    Type
REMARK                         _______ _______ _______ _____ _____    ______ ____
ROOT
ATOM      1  O   UNL     1       6.614   5.143  19.802  0.00  0.00    +0.000 OA
ATOM      2  C   UNL     1       5.677   5.160  19.012  0.00  0.00    +0.000 C 
ENDROOT
BRANCH   2   3
ATOM      3  C   UNL     1       5.801   5.129  17.573  0.00  0.00    +0.000 A 
ATOM      4  C   UNL     1       5.140   5.860  16.601  0.00  0.00    +0.000 A 
ATOM      5  C   UNL     1       5.670   5.459  15.353  0.00  0.00    +0.000 A 
ATOM      6  C   UNL     1       6.624   4.507  15.632  0.00  0.00    +0.000 A 
ATOM      7  O   UNL     1       6.710   4.298  16.971  0.00  0.00    +0.000 OA
ENDBRANCH   2   3
BRANCH   2   8
ATOM      8  O   UNL     1       4.363   5.170  19.393  0.00  0.00    +0.000 OA
BRANCH   8   9
ATOM      9  C   UNL     1       3.635   3.949  19.120  0.00  0.00    +0.000 C 
ATOM     10  C   UNL     1       3.820   2.906  20.238  0.00  0.00    +0.000 C 
ATOM     11  S   UNL     1       2.339   2.803  21.282  0.00  0.00    +0.000 S 
ATOM     12  S   UNL     1       1.366   4.411  20.493  0.00  0.00    +0.000 S 
ATOM     13  C   UNL     1       2.161   4.298  18.875  0.00  0.00    +0.000 C 
ENDBRANCH   8   9
ENDBRANCH   2   8
TORSDOF 3
ENDMDL
