MODEL 1
REMARK VINA RESULT:      -7.4      0.000      0.000
REMARK  Name = 
REMARK  7 active torsions:
REMARK  status: ('A' for Active; 'I' for Inactive)
REMARK    1  A    between atoms: C_1  and  O_2
REMARK    2  A    between atoms: O_2  and  C_3
REMARK    3  A    between atoms: C_6  and  C_7
REMARK    4  A    between atoms: C_7  and  N_8
REMARK    5  A    between atoms: C_9  and  C_10
REMARK    6  A    between atoms: C_10  and  N_11
REMARK    7  A    between atoms: N_14  and  C_15
REMARK                            x       y       z     vdW  Elec       q    Type
REMARK                         _______ _______ _______ _____ _____    ______ ____
ROOT
ATOM      1  N   UNL     1       6.272   6.241  17.558  0.00  0.00    +0.000 N 
ATOM      2  C   UNL     1       6.329   5.233  18.460  0.00  0.00    +0.000 A 
ATOM      3  N   UNL     1       7.306   5.329  19.323  0.00  0.00    +0.000 NA
ATOM      4  N   UNL     1       7.970   6.452  18.942  0.00  0.00    +0.000 N 
ATOM      5  C   UNL     1       7.410   6.978  17.788  0.00  0.00    +0.000 A 
ATOM      6  O   UNL     1       7.910   7.870  17.125  0.00  0.00    +0.000 OA
ATOM      7  H   UNL     1       8.860   6.726  19.334  0.00  0.00    +0.000 HD
ENDROOT
BRANCH   1   8
ATOM      8  C   UNL     1       5.454   6.339  16.363  0.00  0.00    +0.000 C 
BRANCH   8  12
ATOM      9  C   UNL     1       6.475   3.825  12.980  0.00  0.00    +0.000 A 
ATOM     10  C   UNL     1       5.215   3.742  13.565  0.00  0.00    +0.000 A 
ATOM     11  C   UNL     1       4.896   4.544  14.665  0.00  0.00    +0.000 A 
ATOM     12  C   UNL     1       5.838   5.426  15.218  0.00  0.00    +0.000 A 
ATOM     13  C   UNL     1       7.131   5.440  14.670  0.00  0.00    +0.000 A 
ATOM     14  C   UNL     1       7.445   4.646  13.558  0.00  0.00    +0.000 A 
BRANCH   9  16
ATOM     15  C   UNL     1       5.596   2.157  11.579  0.00  0.00    +0.000 C 
ATOM     16  O   UNL     1       6.675   3.039  11.878  0.00  0.00    +0.000 OA
ENDBRANCH   9  16
ENDBRANCH   8  12
ENDBRANCH   1   8
BRANCH   2  17
ATOM     17  C   UNL     1       5.355   4.065  18.513  0.00  0.00    +0.000 C 
BRANCH  17  18
ATOM     18  N   UNL     1       4.435   4.132  19.679  0.00  0.00    +0.000 NA
ATOM     19  C   UNL     1       3.901   2.770  19.947  0.00  0.00    +0.000 C 
ATOM     20  C   UNL     1       2.822   2.729  21.057  0.00  0.00    +0.000 C 
ATOM     21  N   UNL     1       1.685   3.642  20.854  0.00  0.00    +0.000 NA
ATOM     22  C   UNL     1       0.768   3.163  19.824  0.00  0.00    +0.000 C 
ATOM     23  C   UNL     1       2.204   4.989  20.543  0.00  0.00    +0.000 C 
ATOM     24  C   UNL     1       3.288   5.043  19.434  0.00  0.00    +0.000 C 
ENDBRANCH  17  18
ENDBRANCH   2  17
TORSDOF 5
ENDMDL
MODEL 2
REMARK VINA RESULT:      -7.3      3.401      7.070
REMARK  Name = 
REMARK  7 active torsions:
REMARK  status: ('A' for Active; 'I' for Inactive)
REMARK    1  A    between atoms: C_1  and  O_2
REMARK    2  A    between atoms: O_2  and  C_3
REMARK    3  A    between atoms: C_6  and  C_7
REMARK    4  A    between atoms: C_7  and  N_8
REMARK    5  A    between atoms: C_9  and  C_10
REMARK    6  A    between atoms: C_10  and  N_11
REMARK    7  A    between atoms: N_14  and  C_15
REMARK                            x       y       z     vdW  Elec       q    Type
REMARK                         _______ _______ _______ _____ _____    ______ ____
ROOT
ATOM      1  N   UNL     1       2.562   3.797  19.421  0.00  0.00    +0.000 N 
ATOM      2  C   UNL     1       3.563   3.113  18.819  0.00  0.00    +0.000 A 
ATOM      3  N   UNL     1       3.174   2.071  18.133  0.00  0.00    +0.000 NA
ATOM      4  N   UNL     1       1.830   2.032  18.330  0.00  0.00    +0.000 N 
ATOM      5  C   UNL     1       1.440   3.031  19.208  0.00  0.00    +0.000 A 
ATOM      6  O   UNL     1       0.330   3.118  19.704  0.00  0.00    +0.000 OA
ATOM      7  H   UNL     1       1.251   1.258  18.035  0.00  0.00    +0.000 HD
ENDROOT
BRANCH   1   8
ATOM      8  C   UNL     1       2.658   4.863  20.402  0.00  0.00    +0.000 C 
BRANCH   8  12
ATOM      9  C   UNL     1       1.569   8.786  18.908  0.00  0.00    +0.000 A 
ATOM     10  C   UNL     1       2.226   7.876  18.086  0.00  0.00    +0.000 A 
ATOM     11  C   UNL     1       2.589   6.618  18.577  0.00  0.00    +0.000 A 
ATOM     12  C   UNL     1       2.324   6.255  19.906  0.00  0.00    +0.000 A 
ATOM     13  C   UNL     1       1.735   7.211  20.749  0.00  0.00    +0.000 A 
ATOM     14  C   UNL     1       1.359   8.467  20.251  0.00  0.00    +0.000 A 
BRANCH   9  16
ATOM     15  C   UNL     1      -0.191  10.230  18.333  0.00  0.00    +0.000 C 
ATOM     16  O   UNL     1       1.210   9.969  18.323  0.00  0.00    +0.000 OA
ENDBRANCH   9  16
ENDBRANCH   8  12
ENDBRANCH   1   8
BRANCH   2  17
ATOM     17  C   UNL     1       5.035   3.490  18.895  0.00  0.00    +0.000 C 
BRANCH  17  18
ATOM     18  N   UNL     1       5.369   4.687  18.079  0.00  0.00    +0.000 NA
ATOM     19  C   UNL     1       4.747   4.542  16.736  0.00  0.00    +0.000 C 
ATOM     20  C   UNL     1       5.135   5.664  15.742  0.00  0.00    +0.000 C 
ATOM     21  N   UNL     1       6.582   5.865  15.565  0.00  0.00    +0.000 NA
ATOM     22  C   UNL     1       7.190   4.816  14.752  0.00  0.00    +0.000 C 
ATOM     23  C   UNL     1       7.217   5.967  16.894  0.00  0.00    +0.000 C 
ATOM     24  C   UNL     1       6.834   4.849  17.899  0.00  0.00    +0.000 C 
ENDBRANCH  17  18
ENDBRANCH   2  17
TORSDOF 5
ENDMDL
MODEL 3
REMARK VINA RESULT:      -7.2      0.757      1.110
REMARK  Name = 
REMARK  7 active torsions:
REMARK  status: ('A' for Active; 'I' for Inactive)
REMARK    1  A    between atoms: C_1  and  O_2
REMARK    2  A    between atoms: O_2  and  C_3
REMARK    3  A    between atoms: C_6  and  C_7
REMARK    4  A    between atoms: C_7  and  N_8
REMARK    5  A    between atoms: C_9  and  C_10
REMARK    6  A    between atoms: C_10  and  N_11
REMARK    7  A    between atoms: N_14  and  C_15
REMARK                            x       y       z     vdW  Elec       q    Type
REMARK                         _______ _______ _______ _____ _____    ______ ____
ROOT
ATOM      1  N   UNL     1       6.044   5.991  17.412  0.00  0.00    +0.000 N 
ATOM      2  C   UNL     1       5.980   4.957  18.284  0.00  0.00    +0.000 A 
ATOM      3  N   UNL     1       6.881   4.988  19.230  0.00  0.00    +0.000 NA
ATOM      4  N   UNL     1       7.622   6.090  18.942  0.00  0.00    +0.000 N 
ATOM      5  C   UNL     1       7.187   6.671  17.761  0.00  0.00    +0.000 A 
ATOM      6  O   UNL     1       7.779   7.557  17.170  0.00  0.00    +0.000 OA
ATOM      7  H   UNL     1       8.485   6.315  19.417  0.00  0.00    +0.000 HD
ENDROOT
BRANCH   1   8
ATOM      8  C   UNL     1       5.337   6.157  16.155  0.00  0.00    +0.000 C 
BRANCH   8  12
ATOM      9  C   UNL     1       6.620   3.785  12.758  0.00  0.00    +0.000 A 
ATOM     10  C   UNL     1       5.393   3.538  13.367  0.00  0.00    +0.000 A 
ATOM     11  C   UNL     1       4.992   4.295  14.471  0.00  0.00    +0.000 A 
ATOM     12  C   UNL     1       5.818   5.297  15.004  0.00  0.00    +0.000 A 
ATOM     13  C   UNL     1       7.087   5.481  14.431  0.00  0.00    +0.000 A 
ATOM     14  C   UNL     1       7.483   4.731  13.315  0.00  0.00    +0.000 A 
BRANCH   9  16
ATOM     15  C   UNL     1       6.036   1.911  11.467  0.00  0.00    +0.000 C 
ATOM     16  O   UNL     1       6.902   3.028  11.653  0.00  0.00    +0.000 OA
ENDBRANCH   9  16
ENDBRANCH   8  12
ENDBRANCH   1   8
BRANCH   2  17
ATOM     17  C   UNL     1       4.957   3.833  18.218  0.00  0.00    +0.000 C 
BRANCH  17  18
ATOM     18  N   UNL     1       3.584   4.276  18.576  0.00  0.00    +0.000 NA
ATOM     19  C   UNL     1       3.577   4.717  19.995  0.00  0.00    +0.000 C 
ATOM     20  C   UNL     1       2.169   5.077  20.531  0.00  0.00    +0.000 C 
ATOM     21  N   UNL     1       1.153   4.025  20.366  0.00  0.00    +0.000 NA
ATOM     22  C   UNL     1       1.330   2.931  21.317  0.00  0.00    +0.000 C 
ATOM     23  C   UNL     1       1.182   3.548  18.969  0.00  0.00    +0.000 C 
ATOM     24  C   UNL     1       2.587   3.187  18.420  0.00  0.00    +0.000 C 
ENDBRANCH  17  18
ENDBRANCH   2  17
TORSDOF 5
ENDMDL
MODEL 4
REMARK VINA RESULT:      -7.1      3.529      7.094
REMARK  Name = 
REMARK  7 active torsions:
REMARK  status: ('A' for Active; 'I' for Inactive)
REMARK    1  A    between atoms: C_1  and  O_2
REMARK    2  A    between atoms: O_2  and  C_3
REMARK    3  A    between atoms: C_6  and  C_7
REMARK    4  A    between atoms: C_7  and  N_8
REMARK    5  A    between atoms: C_9  and  C_10
REMARK    6  A    between atoms: C_10  and  N_11
REMARK    7  A    between atoms: N_14  and  C_15
REMARK                            x       y       z     vdW  Elec       q    Type
REMARK                         _______ _______ _______ _____ _____    ______ ____
ROOT
ATOM      1  N   UNL     1       2.635   4.246  19.551  0.00  0.00    +0.000 N 
ATOM      2  C   UNL     1       3.473   3.328  19.015  0.00  0.00    +0.000 A 
ATOM      3  N   UNL     1       2.891   2.226  18.621  0.00  0.00    +0.000 NA
ATOM      4  N   UNL     1       1.587   2.405  18.959  0.00  0.00    +0.000 N 
ATOM      5  C   UNL     1       1.421   3.606  19.630  0.00  0.00    +0.000 A 
ATOM      6  O   UNL     1       0.400   3.938  20.206  0.00  0.00    +0.000 OA
ATOM      7  H   UNL     1       0.897   1.668  18.904  0.00  0.00    +0.000 HD
ENDROOT
BRANCH   1   8
ATOM      8  C   UNL     1       2.969   5.470  20.256  0.00  0.00    +0.000 C 
BRANCH   8  12
ATOM      9  C   UNL     1       1.409   9.207  18.702  0.00  0.00    +0.000 A 
ATOM     10  C   UNL     1       1.163   8.834  20.020  0.00  0.00    +0.000 A 
ATOM     11  C   UNL     1       1.655   7.622  20.512  0.00  0.00    +0.000 A 
ATOM     12  C   UNL     1       2.381   6.746  19.689  0.00  0.00    +0.000 A 
ATOM     13  C   UNL     1       2.552   7.095  18.340  0.00  0.00    +0.000 A 
ATOM     14  C   UNL     1       2.071   8.319  17.852  0.00  0.00    +0.000 A 
BRANCH   9  16
ATOM     15  C   UNL     1       1.724  11.533  18.769  0.00  0.00    +0.000 C 
ATOM     16  O   UNL     1       0.932  10.433  18.329  0.00  0.00    +0.000 OA
ENDBRANCH   9  16
ENDBRANCH   8  12
ENDBRANCH   1   8
BRANCH   2  17
ATOM     17  C   UNL     1       4.974   3.517  18.853  0.00  0.00    +0.000 C 
BRANCH  17  18
ATOM     18  N   UNL     1       5.322   4.711  18.038  0.00  0.00    +0.000 NA
ATOM     19  C   UNL     1       4.705   4.570  16.693  0.00  0.00    +0.000 C 
ATOM     20  C   UNL     1       5.107   5.688  15.700  0.00  0.00    +0.000 C 
ATOM     21  N   UNL     1       6.557   5.876  15.529  0.00  0.00    +0.000 NA
ATOM     22  C   UNL     1       7.160   4.821  14.719  0.00  0.00    +0.000 C 
ATOM     23  C   UNL     1       7.187   5.973  16.861  0.00  0.00    +0.000 C 
ATOM     24  C   UNL     1       6.790   4.859  17.865  0.00  0.00    +0.000 C 
ENDBRANCH  17  18
ENDBRANCH   2  17
TORSDOF 5
ENDMDL
MODEL 5
REMARK VINA RESULT:      -7.0      0.305      1.047
REMARK  Name = 
REMARK  7 active torsions:
REMARK  status: ('A' for Active; 'I' for Inactive)
REMARK    1  A    between atoms: C_1  and  O_2
REMARK    2  A    between atoms: O_2  and  C_3
REMARK    3  A    between atoms: C_6  and  C_7
REMARK    4  A    between atoms: C_7  and  N_8
REMARK    5  A    between atoms: C_9  and  C_10
REMARK    6  A    between atoms: C_10  and  N_11
REMARK    7  A    between atoms: N_14  and  C_15
REMARK                            x       y       z     vdW  Elec       q    Type
REMARK                         _______ _______ _______ _____ _____    ______ ____
ROOT
ATOM      1  N   UNL     1       6.355   6.211  17.883  0.00  0.00    +0.000 N 
ATOM      2  C   UNL     1       6.380   5.124  18.691  0.00  0.00    +0.000 A 
ATOM      3  N   UNL     1       7.387   5.088  19.522  0.00  0.00    +0.000 NA
ATOM      4  N   UNL     1       8.105   6.201  19.216  0.00  0.00    +0.000 N 
ATOM      5  C   UNL     1       7.541   6.859  18.134  0.00  0.00    +0.000 A 
ATOM      6  O   UNL     1       8.072   7.776  17.533  0.00  0.00    +0.000 OA
ATOM      7  H   UNL     1       9.022   6.389  19.598  0.00  0.00    +0.000 HD
ENDROOT
BRANCH   1   8
ATOM      8  C   UNL     1       5.507   6.461  16.732  0.00  0.00    +0.000 C 
BRANCH   8  12
ATOM      9  C   UNL     1       6.359   3.908  13.331  0.00  0.00    +0.000 A 
ATOM     10  C   UNL     1       7.287   4.856  13.750  0.00  0.00    +0.000 A 
ATOM     11  C   UNL     1       7.000   5.687  14.838  0.00  0.00    +0.000 A 
ATOM     12  C   UNL     1       5.772   5.604  15.511  0.00  0.00    +0.000 A 
ATOM     13  C   UNL     1       4.812   4.700  15.027  0.00  0.00    +0.000 A 
ATOM     14  C   UNL     1       5.106   3.857  13.946  0.00  0.00    +0.000 A 
BRANCH   9  16
ATOM     15  C   UNL     1       5.684   2.408  11.654  0.00  0.00    +0.000 C 
ATOM     16  O   UNL     1       6.749   3.107  12.293  0.00  0.00    +0.000 OA
ENDBRANCH   9  16
ENDBRANCH   8  12
ENDBRANCH   1   8
BRANCH   2  17
ATOM     17  C   UNL     1       5.340   4.014  18.678  0.00  0.00    +0.000 C 
BRANCH  17  18
ATOM     18  N   UNL     1       4.386   4.100  19.815  0.00  0.00    +0.000 NA
ATOM     19  C   UNL     1       3.828   2.748  20.076  0.00  0.00    +0.000 C 
ATOM     20  C   UNL     1       2.715   2.728  21.154  0.00  0.00    +0.000 C 
ATOM     21  N   UNL     1       1.597   3.653  20.910  0.00  0.00    +0.000 NA
ATOM     22  C   UNL     1       0.705   3.178  19.856  0.00  0.00    +0.000 C 
ATOM     23  C   UNL     1       2.142   4.991  20.605  0.00  0.00    +0.000 C 
ATOM     24  C   UNL     1       3.259   5.024  19.529  0.00  0.00    +0.000 C 
ENDBRANCH  17  18
ENDBRANCH   2  17
TORSDOF 5
ENDMDL
MODEL 6
REMARK VINA RESULT:      -7.0      2.880      5.521
REMARK  Name = 
REMARK  7 active torsions:
REMARK  status: ('A' for Active; 'I' for Inactive)
REMARK    1  A    between atoms: C_1  and  O_2
REMARK    2  A    between atoms: O_2  and  C_3
REMARK    3  A    between atoms: C_6  and  C_7
REMARK    4  A    between atoms: C_7  and  N_8
REMARK    5  A    between atoms: C_9  and  C_10
REMARK    6  A    between atoms: C_10  and  N_11
REMARK    7  A    between atoms: N_14  and  C_15
REMARK                            x       y       z     vdW  Elec       q    Type
REMARK                         _______ _______ _______ _____ _____    ______ ____
ROOT
ATOM      1  N   UNL     1       5.223   6.207  17.232  0.00  0.00    +0.000 N 
ATOM      2  C   UNL     1       5.327   4.858  17.197  0.00  0.00    +0.000 A 
ATOM      3  N   UNL     1       6.505   4.394  17.521  0.00  0.00    +0.000 NA
ATOM      4  N   UNL     1       7.247   5.511  17.742  0.00  0.00    +0.000 N 
ATOM      5  C   UNL     1       6.503   6.649  17.469  0.00  0.00    +0.000 A 
ATOM      6  O   UNL     1       6.966   7.775  17.405  0.00  0.00    +0.000 OA
ATOM      7  H   UNL     1       8.247   5.490  17.883  0.00  0.00    +0.000 HD
ENDROOT
BRANCH   1   8
ATOM      8  C   UNL     1       4.140   7.043  16.747  0.00  0.00    +0.000 C 
BRANCH   8  12
ATOM      9  C   UNL     1       1.448   8.485  19.827  0.00  0.00    +0.000 A 
ATOM     10  C   UNL     1       2.117   7.276  19.986  0.00  0.00    +0.000 A 
ATOM     11  C   UNL     1       2.972   6.809  18.984  0.00  0.00    +0.000 A 
ATOM     12  C   UNL     1       3.155   7.527  17.792  0.00  0.00    +0.000 A 
ATOM     13  C   UNL     1       2.411   8.704  17.609  0.00  0.00    +0.000 A 
ATOM     14  C   UNL     1       1.565   9.179  18.621  0.00  0.00    +0.000 A 
BRANCH   9  16
ATOM     15  C   UNL     1       1.373   8.980  22.122  0.00  0.00    +0.000 C 
ATOM     16  O   UNL     1       0.675   8.884  20.883  0.00  0.00    +0.000 OA
ENDBRANCH   9  16
ENDBRANCH   8  12
ENDBRANCH   1   8
BRANCH   2  17
ATOM     17  C   UNL     1       4.193   3.913  16.826  0.00  0.00    +0.000 C 
BRANCH  17  18
ATOM     18  N   UNL     1       3.790   3.024  17.948  0.00  0.00    +0.000 NA
ATOM     19  C   UNL     1       2.339   2.724  17.824  0.00  0.00    +0.000 C 
ATOM     20  C   UNL     1       1.765   1.913  19.012  0.00  0.00    +0.000 C 
ATOM     21  N   UNL     1       2.007   2.500  20.340  0.00  0.00    +0.000 NA
ATOM     22  C   UNL     1       1.149   3.653  20.599  0.00  0.00    +0.000 C 
ATOM     23  C   UNL     1       3.438   2.844  20.457  0.00  0.00    +0.000 C 
ATOM     24  C   UNL     1       4.025   3.654  19.272  0.00  0.00    +0.000 C 
ENDBRANCH  17  18
ENDBRANCH   2  17
TORSDOF 5
ENDMDL
MODEL 7
REMARK VINA RESULT:      -6.9      0.747      1.485
REMARK  Name = 
REMARK  7 active torsions:
REMARK  status: ('A' for Active; 'I' for Inactive)
REMARK    1  A    between atoms: C_1  and  O_2
REMARK    2  A    between atoms: O_2  and  C_3
REMARK    3  A    between atoms: C_6  and  C_7
REMARK    4  A    between atoms: C_7  and  N_8
REMARK    5  A    between atoms: C_9  and  C_10
REMARK    6  A    between atoms: C_10  and  N_11
REMARK    7  A    between atoms: N_14  and  C_15
REMARK                            x       y       z     vdW  Elec       q    Type
REMARK                         _______ _______ _______ _____ _____    ______ ____
ROOT
ATOM      1  N   UNL     1       6.294   6.292  17.653  0.00  0.00    +0.000 N 
ATOM      2  C   UNL     1       6.365   5.228  18.487  0.00  0.00    +0.000 A 
ATOM      3  N   UNL     1       7.366   5.261  19.327  0.00  0.00    +0.000 NA
ATOM      4  N   UNL     1       8.030   6.401  19.001  0.00  0.00    +0.000 N 
ATOM      5  C   UNL     1       7.444   7.004  17.899  0.00  0.00    +0.000 A 
ATOM      6  O   UNL     1       7.934   7.933  17.280  0.00  0.00    +0.000 OA
ATOM      7  H   UNL     1       8.932   6.643  19.385  0.00  0.00    +0.000 HD
ENDROOT
BRANCH   1   8
ATOM      8  C   UNL     1       5.445   6.473  16.490  0.00  0.00    +0.000 C 
BRANCH   8  12
ATOM      9  C   UNL     1       6.382   3.810  13.198  0.00  0.00    +0.000 A 
ATOM     10  C   UNL     1       7.283   4.798  13.584  0.00  0.00    +0.000 A 
ATOM     11  C   UNL     1       6.969   5.663  14.636  0.00  0.00    +0.000 A 
ATOM     12  C   UNL     1       5.739   5.575  15.306  0.00  0.00    +0.000 A 
ATOM     13  C   UNL     1       4.806   4.629  14.853  0.00  0.00    +0.000 A 
ATOM     14  C   UNL     1       5.128   3.752  13.808  0.00  0.00    +0.000 A 
BRANCH   9  16
ATOM     15  C   UNL     1       5.752   2.256  11.554  0.00  0.00    +0.000 C 
ATOM     16  O   UNL     1       6.799   2.980  12.194  0.00  0.00    +0.000 OA
ENDBRANCH   9  16
ENDBRANCH   8  12
ENDBRANCH   1   8
BRANCH   2  17
ATOM     17  C   UNL     1       5.382   4.066  18.492  0.00  0.00    +0.000 C 
BRANCH  17  18
ATOM     18  N   UNL     1       3.964   4.508  18.564  0.00  0.00    +0.000 NA
ATOM     19  C   UNL     1       3.654   4.897  19.965  0.00  0.00    +0.000 C 
ATOM     20  C   UNL     1       2.164   5.249  20.201  0.00  0.00    +0.000 C 
ATOM     21  N   UNL     1       1.207   4.212  19.783  0.00  0.00    +0.000 NA
ATOM     22  C   UNL     1       1.177   3.082  20.708  0.00  0.00    +0.000 C 
ATOM     23  C   UNL     1       1.534   3.786  18.408  0.00  0.00    +0.000 C 
ATOM     24  C   UNL     1       3.023   3.433  18.159  0.00  0.00    +0.000 C 
ENDBRANCH  17  18
ENDBRANCH   2  17
TORSDOF 5
ENDMDL
MODEL 8
REMARK VINA RESULT:      -6.8      3.344      6.909
REMARK  Name = 
REMARK  7 active torsions:
REMARK  status: ('A' for Active; 'I' for Inactive)
REMARK    1  A    between atoms: C_1  and  O_2
REMARK    2  A    between atoms: O_2  and  C_3
REMARK    3  A    between atoms: C_6  and  C_7
REMARK    4  A    between atoms: C_7  and  N_8
REMARK    5  A    between atoms: C_9  and  C_10
REMARK    6  A    between atoms: C_10  and  N_11
REMARK    7  A    between atoms: N_14  and  C_15
REMARK                            x       y       z     vdW  Elec       q    Type
REMARK                         _______ _______ _______ _____ _____    ______ ____
ROOT
ATOM      1  N   UNL     1       2.623   3.737  19.568  0.00  0.00    +0.000 N 
ATOM      2  C   UNL     1       3.764   3.137  19.156  0.00  0.00    +0.000 A 
ATOM      3  N   UNL     1       3.586   2.013  18.513  0.00  0.00    +0.000 NA
ATOM      4  N   UNL     1       2.240   1.831  18.539  0.00  0.00    +0.000 N 
ATOM      5  C   UNL     1       1.629   2.834  19.277  0.00  0.00    +0.000 A 
ATOM      6  O   UNL     1       0.459   2.823  19.618  0.00  0.00    +0.000 OA
ATOM      7  H   UNL     1       1.792   0.977  18.236  0.00  0.00    +0.000 HD
ENDROOT
BRANCH   1   8
ATOM      8  C   UNL     1       2.471   4.870  20.463  0.00  0.00    +0.000 C 
BRANCH   8  12
ATOM      9  C   UNL     1       1.874   8.765  18.652  0.00  0.00    +0.000 A 
ATOM     10  C   UNL     1       1.456   8.523  19.957  0.00  0.00    +0.000 A 
ATOM     11  C   UNL     1       1.637   7.261  20.530  0.00  0.00    +0.000 A 
ATOM     12  C   UNL     1       2.216   6.209  19.804  0.00  0.00    +0.000 A 
ATOM     13  C   UNL     1       2.559   6.443  18.462  0.00  0.00    +0.000 A 
ATOM     14  C   UNL     1       2.390   7.713  17.892  0.00  0.00    +0.000 A 
BRANCH   9  16
ATOM     15  C   UNL     1       1.094  10.927  19.135  0.00  0.00    +0.000 C 
ATOM     16  O   UNL     1       1.702  10.043  18.196  0.00  0.00    +0.000 OA
ENDBRANCH   9  16
ENDBRANCH   8  12
ENDBRANCH   1   8
BRANCH   2  17
ATOM     17  C   UNL     1       5.163   3.687  19.389  0.00  0.00    +0.000 C 
BRANCH  17  18
ATOM     18  N   UNL     1       5.876   4.013  18.125  0.00  0.00    +0.000 NA
ATOM     19  C   UNL     1       6.387   5.406  18.208  0.00  0.00    +0.000 C 
ATOM     20  C   UNL     1       7.033   5.913  16.895  0.00  0.00    +0.000 C 
ATOM     21  N   UNL     1       6.183   5.801  15.699  0.00  0.00    +0.000 NA
ATOM     22  C   UNL     1       5.129   6.811  15.673  0.00  0.00    +0.000 C 
ATOM     23  C   UNL     1       5.633   4.432  15.631  0.00  0.00    +0.000 C 
ATOM     24  C   UNL     1       4.985   3.912  16.941  0.00  0.00    +0.000 C 
ENDBRANCH  17  18
ENDBRANCH   2  17
TORSDOF 5
ENDMDL
MODEL 9
REMARK VINA RESULT:      -6.8      2.931      5.479
REMARK  Name = 
REMARK  7 active torsions:
REMARK  status: ('A' for Active; 'I' for Inactive)
REMARK    1  A    between atoms: C_1  and  O_2
REMARK    2  A    between atoms: O_2  and  C_3
REMARK    3  A    between atoms: C_6  and  C_7
REMARK    4  A    between atoms: C_7  and  N_8
REMARK    5  A    between atoms: C_9  and  C_10
REMARK    6  A    between atoms: C_10  and  N_11
REMARK    7  A    between atoms: N_14  and  C_15
REMARK                            x       y       z     vdW  Elec       q    Type
REMARK                         _______ _______ _______ _____ _____    ______ ____
ROOT
ATOM      1  N   UNL     1       5.342   5.955  17.449  0.00  0.00    +0.000 N 
ATOM      2  C   UNL     1       5.523   4.614  17.422  0.00  0.00    +0.000 A 
ATOM      3  N   UNL     1       6.705   4.217  17.814  0.00  0.00    +0.000 NA
ATOM      4  N   UNL     1       7.369   5.374  18.075  0.00  0.00    +0.000 N 
ATOM      5  C   UNL     1       6.579   6.468  17.758  0.00  0.00    +0.000 A 
ATOM      6  O   UNL     1       6.980   7.618  17.719  0.00  0.00    +0.000 OA
ATOM      7  H   UNL     1       8.359   5.409  18.274  0.00  0.00    +0.000 HD
ENDROOT
BRANCH   1   8
ATOM      8  C   UNL     1       4.242   6.729  16.901  0.00  0.00    +0.000 C 
BRANCH   8  12
ATOM      9  C   UNL     1       1.429   8.478  19.700  0.00  0.00    +0.000 A 
ATOM     10  C   UNL     1       1.767   9.149  18.529  0.00  0.00    +0.000 A 
ATOM     11  C   UNL     1       2.686   8.587  17.638  0.00  0.00    +0.000 A 
ATOM     12  C   UNL     1       3.304   7.357  17.911  0.00  0.00    +0.000 A 
ATOM     13  C   UNL     1       3.016   6.730  19.134  0.00  0.00    +0.000 A 
ATOM     14  C   UNL     1       2.083   7.287  20.020  0.00  0.00    +0.000 A 
BRANCH   9  16
ATOM     15  C   UNL     1       0.659  10.487  20.642  0.00  0.00    +0.000 C 
ATOM     16  O   UNL     1       0.483   9.081  20.483  0.00  0.00    +0.000 OA
ENDBRANCH   9  16
ENDBRANCH   8  12
ENDBRANCH   1   8
BRANCH   2  17
ATOM     17  C   UNL     1       4.468   3.607  16.989  0.00  0.00    +0.000 C 
BRANCH  17  18
ATOM     18  N   UNL     1       3.912   2.826  18.125  0.00  0.00    +0.000 NA
ATOM     19  C   UNL     1       2.469   2.574  17.873  0.00  0.00    +0.000 C 
ATOM     20  C   UNL     1       1.739   1.883  19.051  0.00  0.00    +0.000 C 
ATOM     21  N   UNL     1       1.872   2.564  20.350  0.00  0.00    +0.000 NA
ATOM     22  C   UNL     1       1.048   3.767  20.431  0.00  0.00    +0.000 C 
ATOM     23  C   UNL     1       3.299   2.859  20.590  0.00  0.00    +0.000 C 
ATOM     24  C   UNL     1       4.041   3.549  19.416  0.00  0.00    +0.000 C 
ENDBRANCH  17  18
ENDBRANCH   2  17
TORSDOF 5
ENDMDL
