MODEL 1
REMARK VINA RESULT:      -7.3      0.000      0.000
REMARK  Name = 
REMARK  13 active torsions:
REMARK  status: ('A' for Active; 'I' for Inactive)
REMARK    1  A    between atoms: C_1  and  O_2
REMARK    2  A    between atoms: O_2  and  C_3
REMARK    3  A    between atoms: C_6  and  C_7
REMARK    4  A    between atoms: C_7  and  C_8
REMARK    5  A    between atoms: C_8  and  N_9
REMARK    6  A    between atoms: N_9  and  C_10
REMARK    7  A    between atoms: N_9  and  S_16
REMARK    8  A    between atoms: C_10  and  C_11
REMARK    9  A    between atoms: C_11  and  C_12
REMARK   10  A    between atoms: N_14  and  O_15
REMARK   11  A    between atoms: S_16  and  C_19
REMARK   12  A    between atoms: C_22  and  O_23
REMARK   13  A    between atoms: O_23  and  C_24
REMARK                            x       y       z     vdW  Elec       q    Type
REMARK                         _______ _______ _______ _____ _____    ______ ____
ROOT
ATOM      1  N   UNL     1       3.487   5.278  18.909  0.00  0.00    +0.000 NA
ENDROOT
BRANCH   1   2
ATOM      2  S   UNL     1       3.859   3.868  17.939  0.00  0.00    +0.000 S 
ATOM      3  O   UNL     1       4.449   2.866  18.801  0.00  0.00    +0.000 OA
ATOM      4  O   UNL     1       2.674   3.576  17.159  0.00  0.00    +0.000 OA
BRANCH   2   5
ATOM      5  C   UNL     1       5.137   4.398  16.828  0.00  0.00    +0.000 A 
ATOM      6  C   UNL     1       5.239   3.806  15.567  0.00  0.00    +0.000 A 
ATOM      7  C   UNL     1       6.264   4.211  14.709  0.00  0.00    +0.000 A 
ATOM      8  C   UNL     1       7.164   5.207  15.094  0.00  0.00    +0.000 A 
ATOM      9  C   UNL     1       7.054   5.793  16.357  0.00  0.00    +0.000 A 
ATOM     10  C   UNL     1       6.035   5.393  17.225  0.00  0.00    +0.000 A 
BRANCH   8  11
ATOM     11  O   UNL     1       8.134   5.500  14.175  0.00  0.00    +0.000 OA
ATOM     12  C   UNL     1       7.804   5.219  12.820  0.00  0.00    +0.000 C 
ENDBRANCH   8  11
ENDBRANCH   2   5
ENDBRANCH   1   2
BRANCH   1  13
ATOM     13  C   UNL     1       2.422   6.124  18.240  0.00  0.00    +0.000 C 
BRANCH  13  14
ATOM     14  C   UNL     1       2.823   7.573  17.929  0.00  0.00    +0.000 C 
BRANCH  14  18
ATOM     15  C   UNL     1       0.122  10.270  19.991  0.00  0.00    +0.000 A 
ATOM     16  C   UNL     1       0.715   9.203  20.662  0.00  0.00    +0.000 A 
ATOM     17  C   UNL     1       1.609   8.358  20.003  0.00  0.00    +0.000 A 
ATOM     18  C   UNL     1       1.898   8.542  18.643  0.00  0.00    +0.000 A 
ATOM     19  C   UNL     1       1.290   9.610  17.970  0.00  0.00    +0.000 A 
ATOM     20  C   UNL     1       0.408  10.471  18.641  0.00  0.00    +0.000 A 
BRANCH  15  22
ATOM     21  C   UNL     1      -1.647  11.840  20.027  0.00  0.00    +0.000 C 
ATOM     22  O   UNL     1      -0.742  11.013  20.747  0.00  0.00    +0.000 OA
ENDBRANCH  15  22
ENDBRANCH  14  18
ENDBRANCH  13  14
ENDBRANCH   1  13
BRANCH   1  23
ATOM     23  C   UNL     1       3.081   4.895  20.327  0.00  0.00    +0.000 C 
BRANCH  23  24
ATOM     24  C   UNL     1       1.573   4.770  20.530  0.00  0.00    +0.000 C 
BRANCH  24  25
ATOM     25  C   UNL     1       1.103   3.343  20.365  0.00  0.00    +0.000 C 
ATOM     26  O   UNL     1       1.089   2.508  21.267  0.00  0.00    +0.000 OA
ATOM     27  N   UNL     1       0.709   3.044  19.081  0.00  0.00    +0.000 N 
ATOM     28  H   UNL     1       0.875   3.642  18.277  0.00  0.00    +0.000 HD
BRANCH  27  29
ATOM     29  O   UNL     1       0.326   1.711  18.821  0.00  0.00    +0.000 OA
ATOM     30  H   UNL     1      -0.638   1.793  18.664  0.00  0.00    +0.000 HD
ENDBRANCH  27  29
ENDBRANCH  24  25
ENDBRANCH  23  24
ENDBRANCH   1  23
TORSDOF 11
ENDMDL
MODEL 2
REMARK VINA RESULT:      -7.2      2.665      7.056
REMARK  Name = 
REMARK  13 active torsions:
REMARK  status: ('A' for Active; 'I' for Inactive)
REMARK    1  A    between atoms: C_1  and  O_2
REMARK    2  A    between atoms: O_2  and  C_3
REMARK    3  A    between atoms: C_6  and  C_7
REMARK    4  A    between atoms: C_7  and  C_8
REMARK    5  A    between atoms: C_8  and  N_9
REMARK    6  A    between atoms: N_9  and  C_10
REMARK    7  A    between atoms: N_9  and  S_16
REMARK    8  A    between atoms: C_10  and  C_11
REMARK    9  A    between atoms: C_11  and  C_12
REMARK   10  A    between atoms: N_14  and  O_15
REMARK   11  A    between atoms: S_16  and  C_19
REMARK   12  A    between atoms: C_22  and  O_23
REMARK   13  A    between atoms: O_23  and  C_24
REMARK                            x       y       z     vdW  Elec       q    Type
REMARK                         _______ _______ _______ _____ _____    ______ ____
ROOT
ATOM      1  N   UNL     1       6.369   4.088  15.905  0.00  0.00    +0.000 NA
ENDROOT
BRANCH   1   2
ATOM      2  S   UNL     1       6.917   5.264  17.081  0.00  0.00    +0.000 S 
ATOM      3  O   UNL     1       7.666   4.568  18.106  0.00  0.00    +0.000 OA
ATOM      4  O   UNL     1       7.513   6.352  16.332  0.00  0.00    +0.000 OA
BRANCH   2   5
ATOM      5  C   UNL     1       5.438   5.868  17.853  0.00  0.00    +0.000 A 
ATOM      6  C   UNL     1       4.622   6.767  17.163  0.00  0.00    +0.000 A 
ATOM      7  C   UNL     1       3.474   7.256  17.791  0.00  0.00    +0.000 A 
ATOM      8  C   UNL     1       3.132   6.841  19.079  0.00  0.00    +0.000 A 
ATOM      9  C   UNL     1       3.955   5.942  19.760  0.00  0.00    +0.000 A 
ATOM     10  C   UNL     1       5.108   5.448  19.145  0.00  0.00    +0.000 A 
BRANCH   8  11
ATOM     11  O   UNL     1       1.997   7.408  19.591  0.00  0.00    +0.000 OA
ATOM     12  C   UNL     1       1.631   8.665  19.032  0.00  0.00    +0.000 C 
ENDBRANCH   8  11
ENDBRANCH   2   5
ENDBRANCH   1   2
BRANCH   1  13
ATOM     13  C   UNL     1       5.465   3.060  16.554  0.00  0.00    +0.000 C 
BRANCH  13  14
ATOM     14  C   UNL     1       3.971   3.184  16.222  0.00  0.00    +0.000 C 
BRANCH  14  18
ATOM     15  C   UNL     1       1.599   3.020  19.851  0.00  0.00    +0.000 A 
ATOM     16  C   UNL     1       1.172   3.761  18.752  0.00  0.00    +0.000 A 
ATOM     17  C   UNL     1       1.922   3.784  17.575  0.00  0.00    +0.000 A 
ATOM     18  C   UNL     1       3.139   3.094  17.488  0.00  0.00    +0.000 A 
ATOM     19  C   UNL     1       3.570   2.359  18.601  0.00  0.00    +0.000 A 
ATOM     20  C   UNL     1       2.804   2.321  19.775  0.00  0.00    +0.000 A 
BRANCH  15  22
ATOM     21  C   UNL     1       1.250   2.442  22.118  0.00  0.00    +0.000 C 
ATOM     22  O   UNL     1       0.781   3.091  20.944  0.00  0.00    +0.000 OA
ENDBRANCH  15  22
ENDBRANCH  14  18
ENDBRANCH  13  14
ENDBRANCH   1  13
BRANCH   1  23
ATOM     23  C   UNL     1       5.687   4.754  14.716  0.00  0.00    +0.000 C 
BRANCH  23  24
ATOM     24  C   UNL     1       6.001   4.100  13.372  0.00  0.00    +0.000 C 
BRANCH  24  25
ATOM     25  C   UNL     1       7.217   4.718  12.721  0.00  0.00    +0.000 C 
ATOM     26  O   UNL     1       7.562   4.510  11.560  0.00  0.00    +0.000 OA
ATOM     27  N   UNL     1       7.936   5.529  13.568  0.00  0.00    +0.000 N 
ATOM     28  H   UNL     1       7.790   5.581  14.571  0.00  0.00    +0.000 HD
BRANCH  27  29
ATOM     29  O   UNL     1       9.129   6.087  13.062  0.00  0.00    +0.000 OA
ATOM     30  H   UNL     1       8.814   6.911  12.634  0.00  0.00    +0.000 HD
ENDBRANCH  27  29
ENDBRANCH  24  25
ENDBRANCH  23  24
ENDBRANCH   1  23
TORSDOF 11
ENDMDL
MODEL 3
REMARK VINA RESULT:      -7.1      1.436      1.699
REMARK  Name = 
REMARK  13 active torsions:
REMARK  status: ('A' for Active; 'I' for Inactive)
REMARK    1  A    between atoms: C_1  and  O_2
REMARK    2  A    between atoms: O_2  and  C_3
REMARK    3  A    between atoms: C_6  and  C_7
REMARK    4  A    between atoms: C_7  and  C_8
REMARK    5  A    between atoms: C_8  and  N_9
REMARK    6  A    between atoms: N_9  and  C_10
REMARK    7  A    between atoms: N_9  and  S_16
REMARK    8  A    between atoms: C_10  and  C_11
REMARK    9  A    between atoms: C_11  and  C_12
REMARK   10  A    between atoms: N_14  and  O_15
REMARK   11  A    between atoms: S_16  and  C_19
REMARK   12  A    between atoms: C_22  and  O_23
REMARK   13  A    between atoms: O_23  and  C_24
REMARK                            x       y       z     vdW  Elec       q    Type
REMARK                         _______ _______ _______ _____ _____    ______ ____
ROOT
ATOM      1  N   UNL     1       3.415   5.055  18.954  0.00  0.00    +0.000 NA
ENDROOT
BRANCH   1   2
ATOM      2  S   UNL     1       5.083   4.523  18.998  0.00  0.00    +0.000 S 
ATOM      3  O   UNL     1       5.850   5.495  19.749  0.00  0.00    +0.000 OA
ATOM      4  O   UNL     1       5.064   3.128  19.387  0.00  0.00    +0.000 OA
BRANCH   2   5
ATOM      5  C   UNL     1       5.643   4.623  17.318  0.00  0.00    +0.000 A 
ATOM      6  C   UNL     1       5.421   3.547  16.456  0.00  0.00    +0.000 A 
ATOM      7  C   UNL     1       5.890   3.624  15.142  0.00  0.00    +0.000 A 
ATOM      8  C   UNL     1       6.552   4.766  14.687  0.00  0.00    +0.000 A 
ATOM      9  C   UNL     1       6.769   5.837  15.556  0.00  0.00    +0.000 A 
ATOM     10  C   UNL     1       6.309   5.770  16.874  0.00  0.00    +0.000 A 
BRANCH   8  11
ATOM     11  O   UNL     1       6.980   4.712  13.388  0.00  0.00    +0.000 OA
ATOM     12  C   UNL     1       6.416   3.671  12.598  0.00  0.00    +0.000 C 
ENDBRANCH   8  11
ENDBRANCH   2   5
ENDBRANCH   1   2
BRANCH   1  13
ATOM     13  C   UNL     1       3.303   6.509  19.366  0.00  0.00    +0.000 C 
BRANCH  13  14
ATOM     14  C   UNL     1       2.866   7.481  18.260  0.00  0.00    +0.000 C 
BRANCH  14  18
ATOM     15  C   UNL     1      -0.081  10.250  19.834  0.00  0.00    +0.000 A 
ATOM     16  C   UNL     1       0.525   9.306  20.660  0.00  0.00    +0.000 A 
ATOM     17  C   UNL     1       1.496   8.439  20.157  0.00  0.00    +0.000 A 
ATOM     18  C   UNL     1       1.854   8.475  18.802  0.00  0.00    +0.000 A 
ATOM     19  C   UNL     1       1.234   9.419  17.972  0.00  0.00    +0.000 A 
ATOM     20  C   UNL     1       0.273  10.303  18.486  0.00  0.00    +0.000 A 
BRANCH  15  22
ATOM     21  C   UNL     1      -0.786  11.331  21.816  0.00  0.00    +0.000 C 
ATOM     22  O   UNL     1      -1.022  11.028  20.447  0.00  0.00    +0.000 OA
ENDBRANCH  15  22
ENDBRANCH  14  18
ENDBRANCH  13  14
ENDBRANCH   1  13
BRANCH   1  23
ATOM     23  C   UNL     1       2.782   4.815  17.589  0.00  0.00    +0.000 C 
BRANCH  23  24
ATOM     24  C   UNL     1       1.501   3.986  17.635  0.00  0.00    +0.000 C 
BRANCH  24  25
ATOM     25  C   UNL     1       1.684   2.715  18.433  0.00  0.00    +0.000 C 
ATOM     26  O   UNL     1       0.990   2.394  19.394  0.00  0.00    +0.000 OA
ATOM     27  N   UNL     1       2.739   1.947  17.997  0.00  0.00    +0.000 N 
ATOM     28  H   UNL     1       3.440   2.260  17.334  0.00  0.00    +0.000 HD
BRANCH  27  29
ATOM     29  O   UNL     1       3.028   0.779  18.734  0.00  0.00    +0.000 OA
ATOM     30  H   UNL     1       3.756   1.072  19.322  0.00  0.00    +0.000 HD
ENDBRANCH  27  29
ENDBRANCH  24  25
ENDBRANCH  23  24
ENDBRANCH   1  23
TORSDOF 11
ENDMDL
MODEL 4
REMARK VINA RESULT:      -7.0      2.822      6.997
REMARK  Name = 
REMARK  13 active torsions:
REMARK  status: ('A' for Active; 'I' for Inactive)
REMARK    1  A    between atoms: C_1  and  O_2
REMARK    2  A    between atoms: O_2  and  C_3
REMARK    3  A    between atoms: C_6  and  C_7
REMARK    4  A    between atoms: C_7  and  C_8
REMARK    5  A    between atoms: C_8  and  N_9
REMARK    6  A    between atoms: N_9  and  C_10
REMARK    7  A    between atoms: N_9  and  S_16
REMARK    8  A    between atoms: C_10  and  C_11
REMARK    9  A    between atoms: C_11  and  C_12
REMARK   10  A    between atoms: N_14  and  O_15
REMARK   11  A    between atoms: S_16  and  C_19
REMARK   12  A    between atoms: C_22  and  O_23
REMARK   13  A    between atoms: O_23  and  C_24
REMARK                            x       y       z     vdW  Elec       q    Type
REMARK                         _______ _______ _______ _____ _____    ______ ____
ROOT
ATOM      1  N   UNL     1       6.593   4.293  15.750  0.00  0.00    +0.000 NA
ENDROOT
BRANCH   1   2
ATOM      2  S   UNL     1       7.073   5.367  17.047  0.00  0.00    +0.000 S 
ATOM      3  O   UNL     1       7.821   4.599  18.020  0.00  0.00    +0.000 OA
ATOM      4  O   UNL     1       7.650   6.540  16.422  0.00  0.00    +0.000 OA
BRANCH   2   5
ATOM      5  C   UNL     1       5.557   5.846  17.835  0.00  0.00    +0.000 A 
ATOM      6  C   UNL     1       4.721   6.771  17.206  0.00  0.00    +0.000 A 
ATOM      7  C   UNL     1       3.543   7.162  17.847  0.00  0.00    +0.000 A 
ATOM      8  C   UNL     1       3.192   6.623  19.087  0.00  0.00    +0.000 A 
ATOM      9  C   UNL     1       4.035   5.699  19.707  0.00  0.00    +0.000 A 
ATOM     10  C   UNL     1       5.219   5.303  19.078  0.00  0.00    +0.000 A 
BRANCH   8  11
ATOM     11  O   UNL     1       2.026   7.101  19.620  0.00  0.00    +0.000 OA
ATOM     12  C   UNL     1       1.815   8.502  19.482  0.00  0.00    +0.000 C 
ENDBRANCH   8  11
ENDBRANCH   2   5
ENDBRANCH   1   2
BRANCH   1  13
ATOM     13  C   UNL     1       5.610   3.253  16.249  0.00  0.00    +0.000 C 
BRANCH  13  14
ATOM     14  C   UNL     1       4.133   3.529  15.935  0.00  0.00    +0.000 C 
BRANCH  14  18
ATOM     15  C   UNL     1       1.657   2.601  19.375  0.00  0.00    +0.000 A 
ATOM     16  C   UNL     1       1.272   3.579  18.461  0.00  0.00    +0.000 A 
ATOM     17  C   UNL     1       2.055   3.851  17.338  0.00  0.00    +0.000 A 
ATOM     18  C   UNL     1       3.264   3.173  17.128  0.00  0.00    +0.000 A 
ATOM     19  C   UNL     1       3.653   2.198  18.056  0.00  0.00    +0.000 A 
ATOM     20  C   UNL     1       2.853   1.912  19.173  0.00  0.00    +0.000 A 
BRANCH  15  22
ATOM     21  C   UNL     1       1.340   2.768  21.713  0.00  0.00    +0.000 C 
ATOM     22  O   UNL     1       0.809   2.442  20.435  0.00  0.00    +0.000 OA
ENDBRANCH  15  22
ENDBRANCH  14  18
ENDBRANCH  13  14
ENDBRANCH   1  13
BRANCH   1  23
ATOM     23  C   UNL     1       6.029   5.062  14.561  0.00  0.00    +0.000 C 
BRANCH  23  24
ATOM     24  C   UNL     1       5.458   4.172  13.459  0.00  0.00    +0.000 C 
BRANCH  24  25
ATOM     25  C   UNL     1       6.535   3.692  12.513  0.00  0.00    +0.000 C 
ATOM     26  O   UNL     1       7.450   4.394  12.090  0.00  0.00    +0.000 OA
ATOM     27  N   UNL     1       6.383   2.377  12.137  0.00  0.00    +0.000 N 
ATOM     28  H   UNL     1       5.552   1.823  12.316  0.00  0.00    +0.000 HD
BRANCH  27  29
ATOM     29  O   UNL     1       7.304   1.869  11.197  0.00  0.00    +0.000 OA
ATOM     30  H   UNL     1       6.737   1.310  10.624  0.00  0.00    +0.000 HD
ENDBRANCH  27  29
ENDBRANCH  24  25
ENDBRANCH  23  24
ENDBRANCH   1  23
TORSDOF 11
ENDMDL
MODEL 5
REMARK VINA RESULT:      -7.0      1.245      1.848
REMARK  Name = 
REMARK  13 active torsions:
REMARK  status: ('A' for Active; 'I' for Inactive)
REMARK    1  A    between atoms: C_1  and  O_2
REMARK    2  A    between atoms: O_2  and  C_3
REMARK    3  A    between atoms: C_6  and  C_7
REMARK    4  A    between atoms: C_7  and  C_8
REMARK    5  A    between atoms: C_8  and  N_9
REMARK    6  A    between atoms: N_9  and  C_10
REMARK    7  A    between atoms: N_9  and  S_16
REMARK    8  A    between atoms: C_10  and  C_11
REMARK    9  A    between atoms: C_11  and  C_12
REMARK   10  A    between atoms: N_14  and  O_15
REMARK   11  A    between atoms: S_16  and  C_19
REMARK   12  A    between atoms: C_22  and  O_23
REMARK   13  A    between atoms: O_23  and  C_24
REMARK                            x       y       z     vdW  Elec       q    Type
REMARK                         _______ _______ _______ _____ _____    ______ ____
ROOT
ATOM      1  N   UNL     1       3.447   4.776  19.000  0.00  0.00    +0.000 NA
ENDROOT
BRANCH   1   2
ATOM      2  S   UNL     1       5.062   4.101  18.989  0.00  0.00    +0.000 S 
ATOM      3  O   UNL     1       5.914   4.944  19.801  0.00  0.00    +0.000 OA
ATOM      4  O   UNL     1       4.924   2.687  19.275  0.00  0.00    +0.000 OA
BRANCH   2   5
ATOM      5  C   UNL     1       5.623   4.275  17.314  0.00  0.00    +0.000 A 
ATOM      6  C   UNL     1       4.816   3.817  16.270  0.00  0.00    +0.000 A 
ATOM      7  C   UNL     1       5.278   3.934  14.957  0.00  0.00    +0.000 A 
ATOM      8  C   UNL     1       6.517   4.519  14.686  0.00  0.00    +0.000 A 
ATOM      9  C   UNL     1       7.316   4.974  15.737  0.00  0.00    +0.000 A 
ATOM     10  C   UNL     1       6.867   4.858  17.055  0.00  0.00    +0.000 A 
BRANCH   8  11
ATOM     11  O   UNL     1       6.865   4.557  13.363  0.00  0.00    +0.000 OA
ATOM     12  C   UNL     1       6.250   3.575  12.536  0.00  0.00    +0.000 C 
ENDBRANCH   8  11
ENDBRANCH   2   5
ENDBRANCH   1   2
BRANCH   1  13
ATOM     13  C   UNL     1       3.482   6.250  19.349  0.00  0.00    +0.000 C 
BRANCH  13  14
ATOM     14  C   UNL     1       3.028   7.207  18.238  0.00  0.00    +0.000 C 
BRANCH  14  18
ATOM     15  C   UNL     1       0.148  10.082  19.744  0.00  0.00    +0.000 A 
ATOM     16  C   UNL     1       0.529  10.088  18.404  0.00  0.00    +0.000 A 
ATOM     17  C   UNL     1       1.431   9.140  17.917  0.00  0.00    +0.000 A 
ATOM     18  C   UNL     1       2.001   8.188  18.774  0.00  0.00    +0.000 A 
ATOM     19  C   UNL     1       1.623   8.194  20.124  0.00  0.00    +0.000 A 
ATOM     20  C   UNL     1       0.700   9.134  20.606  0.00  0.00    +0.000 A 
BRANCH  15  22
ATOM     21  C   UNL     1      -0.506  12.343  19.505  0.00  0.00    +0.000 C 
ATOM     22  O   UNL     1      -0.731  11.069  20.094  0.00  0.00    +0.000 OA
ENDBRANCH  15  22
ENDBRANCH  14  18
ENDBRANCH  13  14
ENDBRANCH   1  13
BRANCH   1  23
ATOM     23  C   UNL     1       2.725   4.536  17.680  0.00  0.00    +0.000 C 
BRANCH  23  24
ATOM     24  C   UNL     1       1.409   3.775  17.820  0.00  0.00    +0.000 C 
BRANCH  24  25
ATOM     25  C   UNL     1       1.389   2.916  19.063  0.00  0.00    +0.000 C 
ATOM     26  O   UNL     1       1.752   1.743  19.102  0.00  0.00    +0.000 OA
ATOM     27  N   UNL     1       0.891   3.568  20.168  0.00  0.00    +0.000 N 
ATOM     28  H   UNL     1       0.416   4.465  20.137  0.00  0.00    +0.000 HD
BRANCH  27  29
ATOM     29  O   UNL     1       0.767   2.816  21.355  0.00  0.00    +0.000 OA
ATOM     30  H   UNL     1      -0.182   2.921  21.576  0.00  0.00    +0.000 HD
ENDBRANCH  27  29
ENDBRANCH  24  25
ENDBRANCH  23  24
ENDBRANCH   1  23
TORSDOF 11
ENDMDL
MODEL 6
REMARK VINA RESULT:      -7.0      1.372      1.769
REMARK  Name = 
REMARK  13 active torsions:
REMARK  status: ('A' for Active; 'I' for Inactive)
REMARK    1  A    between atoms: C_1  and  O_2
REMARK    2  A    between atoms: O_2  and  C_3
REMARK    3  A    between atoms: C_6  and  C_7
REMARK    4  A    between atoms: C_7  and  C_8
REMARK    5  A    between atoms: C_8  and  N_9
REMARK    6  A    between atoms: N_9  and  C_10
REMARK    7  A    between atoms: N_9  and  S_16
REMARK    8  A    between atoms: C_10  and  C_11
REMARK    9  A    between atoms: C_11  and  C_12
REMARK   10  A    between atoms: N_14  and  O_15
REMARK   11  A    between atoms: S_16  and  C_19
REMARK   12  A    between atoms: C_22  and  O_23
REMARK   13  A    between atoms: O_23  and  C_24
REMARK                            x       y       z     vdW  Elec       q    Type
REMARK                         _______ _______ _______ _____ _____    ______ ____
ROOT
ATOM      1  N   UNL     1       4.279   5.582  19.451  0.00  0.00    +0.000 NA
ENDROOT
BRANCH   1   2
ATOM      2  S   UNL     1       5.713   4.597  19.253  0.00  0.00    +0.000 S 
ATOM      3  O   UNL     1       6.839   5.312  19.816  0.00  0.00    +0.000 OA
ATOM      4  O   UNL     1       5.370   3.267  19.715  0.00  0.00    +0.000 OA
BRANCH   2   5
ATOM      5  C   UNL     1       5.984   4.522  17.501  0.00  0.00    +0.000 A 
ATOM      6  C   UNL     1       7.142   5.087  16.961  0.00  0.00    +0.000 A 
ATOM      7  C   UNL     1       7.333   5.047  15.578  0.00  0.00    +0.000 A 
ATOM      8  C   UNL     1       6.394   4.434  14.746  0.00  0.00    +0.000 A 
ATOM      9  C   UNL     1       5.240   3.872  15.295  0.00  0.00    +0.000 A 
ATOM     10  C   UNL     1       5.035   3.910  16.677  0.00  0.00    +0.000 A 
BRANCH   8  11
ATOM     11  O   UNL     1       6.685   4.478  13.410  0.00  0.00    +0.000 OA
ATOM     12  C   UNL     1       6.039   3.497  12.606  0.00  0.00    +0.000 C 
ENDBRANCH   8  11
ENDBRANCH   2   5
ENDBRANCH   1   2
BRANCH   1  13
ATOM     13  C   UNL     1       4.197   6.634  18.363  0.00  0.00    +0.000 C 
BRANCH  13  14
ATOM     14  C   UNL     1       2.800   6.869  17.770  0.00  0.00    +0.000 C 
BRANCH  14  18
ATOM     15  C   UNL     1       0.860  10.270  19.641  0.00  0.00    +0.000 A 
ATOM     16  C   UNL     1       1.100   9.100  20.360  0.00  0.00    +0.000 A 
ATOM     17  C   UNL     1       1.754   8.021  19.763  0.00  0.00    +0.000 A 
ATOM     18  C   UNL     1       2.148   8.077  18.418  0.00  0.00    +0.000 A 
ATOM     19  C   UNL     1       1.893   9.251  17.696  0.00  0.00    +0.000 A 
ATOM     20  C   UNL     1       1.254  10.342  18.305  0.00  0.00    +0.000 A 
BRANCH  15  22
ATOM     21  C   UNL     1       1.015  12.272  20.890  0.00  0.00    +0.000 C 
ATOM     22  O   UNL     1       0.202  11.245  20.337  0.00  0.00    +0.000 OA
ENDBRANCH  15  22
ENDBRANCH  14  18
ENDBRANCH  13  14
ENDBRANCH   1  13
BRANCH   1  23
ATOM     23  C   UNL     1       3.014   4.735  19.499  0.00  0.00    +0.000 C 
BRANCH  23  24
ATOM     24  C   UNL     1       2.445   4.547  20.904  0.00  0.00    +0.000 C 
BRANCH  24  25
ATOM     25  C   UNL     1       1.434   3.425  20.952  0.00  0.00    +0.000 C 
ATOM     26  O   UNL     1       1.279   2.672  21.911  0.00  0.00    +0.000 OA
ATOM     27  N   UNL     1       0.704   3.299  19.793  0.00  0.00    +0.000 N 
ATOM     28  H   UNL     1       0.924   3.775  18.924  0.00  0.00    +0.000 HD
BRANCH  27  29
ATOM     29  O   UNL     1      -0.212   2.228  19.725  0.00  0.00    +0.000 OA
ATOM     30  H   UNL     1      -1.068   2.688  19.599  0.00  0.00    +0.000 HD
ENDBRANCH  27  29
ENDBRANCH  24  25
ENDBRANCH  23  24
ENDBRANCH   1  23
TORSDOF 11
ENDMDL
MODEL 7
REMARK VINA RESULT:      -7.0      1.357      2.084
REMARK  Name = 
REMARK  13 active torsions:
REMARK  status: ('A' for Active; 'I' for Inactive)
REMARK    1  A    between atoms: C_1  and  O_2
REMARK    2  A    between atoms: O_2  and  C_3
REMARK    3  A    between atoms: C_6  and  C_7
REMARK    4  A    between atoms: C_7  and  C_8
REMARK    5  A    between atoms: C_8  and  N_9
REMARK    6  A    between atoms: N_9  and  C_10
REMARK    7  A    between atoms: N_9  and  S_16
REMARK    8  A    between atoms: C_10  and  C_11
REMARK    9  A    between atoms: C_11  and  C_12
REMARK   10  A    between atoms: N_14  and  O_15
REMARK   11  A    between atoms: S_16  and  C_19
REMARK   12  A    between atoms: C_22  and  O_23
REMARK   13  A    between atoms: O_23  and  C_24
REMARK                            x       y       z     vdW  Elec       q    Type
REMARK                         _______ _______ _______ _____ _____    ______ ____
ROOT
ATOM      1  N   UNL     1       3.053   4.446  18.584  0.00  0.00    +0.000 NA
ENDROOT
BRANCH   1   2
ATOM      2  S   UNL     1       4.752   4.182  18.916  0.00  0.00    +0.000 S 
ATOM      3  O   UNL     1       5.206   5.218  19.819  0.00  0.00    +0.000 OA
ATOM      4  O   UNL     1       4.895   2.781  19.258  0.00  0.00    +0.000 OA
BRANCH   2   5
ATOM      5  C   UNL     1       5.574   4.461  17.368  0.00  0.00    +0.000 A 
ATOM      6  C   UNL     1       6.531   5.474  17.272  0.00  0.00    +0.000 A 
ATOM      7  C   UNL     1       7.153   5.703  16.043  0.00  0.00    +0.000 A 
ATOM      8  C   UNL     1       6.841   4.920  14.929  0.00  0.00    +0.000 A 
ATOM      9  C   UNL     1       5.883   3.911  15.035  0.00  0.00    +0.000 A 
ATOM     10  C   UNL     1       5.251   3.674  16.259  0.00  0.00    +0.000 A 
BRANCH   8  11
ATOM     11  O   UNL     1       7.502   5.257  13.779  0.00  0.00    +0.000 OA
ATOM     12  C   UNL     1       7.171   4.484  12.630  0.00  0.00    +0.000 C 
ENDBRANCH   8  11
ENDBRANCH   2   5
ENDBRANCH   1   2
BRANCH   1  13
ATOM     13  C   UNL     1       2.859   5.680  17.726  0.00  0.00    +0.000 C 
BRANCH  13  14
ATOM     14  C   UNL     1       3.453   6.980  18.287  0.00  0.00    +0.000 C 
BRANCH  14  18
ATOM     15  C   UNL     1       0.342   9.720  19.568  0.00  0.00    +0.000 A 
ATOM     16  C   UNL     1       0.817   9.740  18.258  0.00  0.00    +0.000 A 
ATOM     17  C   UNL     1       1.794   8.835  17.842  0.00  0.00    +0.000 A 
ATOM     18  C   UNL     1       2.346   7.913  18.743  0.00  0.00    +0.000 A 
ATOM     19  C   UNL     1       1.873   7.904  20.062  0.00  0.00    +0.000 A 
ATOM     20  C   UNL     1       0.875   8.801  20.472  0.00  0.00    +0.000 A 
BRANCH  15  22
ATOM     21  C   UNL     1      -0.820  11.649  18.846  0.00  0.00    +0.000 C 
ATOM     22  O   UNL     1      -0.605  10.665  19.849  0.00  0.00    +0.000 OA
ENDBRANCH  15  22
ENDBRANCH  14  18
ENDBRANCH  13  14
ENDBRANCH   1  13
BRANCH   1  23
ATOM     23  C   UNL     1       2.405   3.222  17.948  0.00  0.00    +0.000 C 
BRANCH  23  24
ATOM     24  C   UNL     1       1.374   2.533  18.838  0.00  0.00    +0.000 C 
BRANCH  24  25
ATOM     25  C   UNL     1       1.339   3.135  20.224  0.00  0.00    +0.000 C 
ATOM     26  O   UNL     1       0.611   4.067  20.557  0.00  0.00    +0.000 OA
ATOM     27  N   UNL     1       2.234   2.555  21.093  0.00  0.00    +0.000 N 
ATOM     28  H   UNL     1       2.971   1.916  20.813  0.00  0.00    +0.000 HD
BRANCH  27  29
ATOM     29  O   UNL     1       2.320   3.108  22.389  0.00  0.00    +0.000 OA
ATOM     30  H   UNL     1       3.287   3.127  22.548  0.00  0.00    +0.000 HD
ENDBRANCH  27  29
ENDBRANCH  24  25
ENDBRANCH  23  24
ENDBRANCH   1  23
TORSDOF 11
ENDMDL
MODEL 8
REMARK VINA RESULT:      -6.9      1.573      2.115
REMARK  Name = 
REMARK  13 active torsions:
REMARK  status: ('A' for Active; 'I' for Inactive)
REMARK    1  A    between atoms: C_1  and  O_2
REMARK    2  A    between atoms: O_2  and  C_3
REMARK    3  A    between atoms: C_6  and  C_7
REMARK    4  A    between atoms: C_7  and  C_8
REMARK    5  A    between atoms: C_8  and  N_9
REMARK    6  A    between atoms: N_9  and  C_10
REMARK    7  A    between atoms: N_9  and  S_16
REMARK    8  A    between atoms: C_10  and  C_11
REMARK    9  A    between atoms: C_11  and  C_12
REMARK   10  A    between atoms: N_14  and  O_15
REMARK   11  A    between atoms: S_16  and  C_19
REMARK   12  A    between atoms: C_22  and  O_23
REMARK   13  A    between atoms: O_23  and  C_24
REMARK                            x       y       z     vdW  Elec       q    Type
REMARK                         _______ _______ _______ _____ _____    ______ ____
ROOT
ATOM      1  N   UNL     1       3.720   5.630  18.637  0.00  0.00    +0.000 NA
ENDROOT
BRANCH   1   2
ATOM      2  S   UNL     1       5.309   4.894  18.680  0.00  0.00    +0.000 S 
ATOM      3  O   UNL     1       6.225   5.827  19.301  0.00  0.00    +0.000 OA
ATOM      4  O   UNL     1       5.133   3.558  19.211  0.00  0.00    +0.000 OA
BRANCH   2   5
ATOM      5  C   UNL     1       5.799   4.756  16.981  0.00  0.00    +0.000 A 
ATOM      6  C   UNL     1       5.240   3.753  16.185  0.00  0.00    +0.000 A 
ATOM      7  C   UNL     1       5.652   3.635  14.856  0.00  0.00    +0.000 A 
ATOM      8  C   UNL     1       6.593   4.517  14.320  0.00  0.00    +0.000 A 
ATOM      9  C   UNL     1       7.146   5.516  15.123  0.00  0.00    +0.000 A 
ATOM     10  C   UNL     1       6.745   5.641  16.456  0.00  0.00    +0.000 A 
BRANCH   8  11
ATOM     11  O   UNL     1       6.929   4.285  13.014  0.00  0.00    +0.000 OA
ATOM     12  C   UNL     1       6.087   3.376  12.313  0.00  0.00    +0.000 C 
ENDBRANCH   8  11
ENDBRANCH   2   5
ENDBRANCH   1   2
BRANCH   1  13
ATOM     13  C   UNL     1       3.811   7.083  18.219  0.00  0.00    +0.000 C 
BRANCH  13  14
ATOM     14  C   UNL     1       2.488   7.739  17.799  0.00  0.00    +0.000 C 
BRANCH  14  18
ATOM     15  C   UNL     1       0.758   9.874  21.156  0.00  0.00    +0.000 A 
ATOM     16  C   UNL     1       0.838  10.467  19.897  0.00  0.00    +0.000 A 
ATOM     17  C   UNL     1       1.365   9.764  18.813  0.00  0.00    +0.000 A 
ATOM     18  C   UNL     1       1.860   8.462  18.976  0.00  0.00    +0.000 A 
ATOM     19  C   UNL     1       1.788   7.875  20.247  0.00  0.00    +0.000 A 
ATOM     20  C   UNL     1       1.238   8.576  21.330  0.00  0.00    +0.000 A 
BRANCH  15  22
ATOM     21  C   UNL     1      -0.554  10.017  23.119  0.00  0.00    +0.000 C 
ATOM     22  O   UNL     1       0.233  10.673  22.133  0.00  0.00    +0.000 OA
ENDBRANCH  15  22
ENDBRANCH  14  18
ENDBRANCH  13  14
ENDBRANCH   1  13
BRANCH   1  23
ATOM     23  C   UNL     1       2.763   4.854  17.740  0.00  0.00    +0.000 C 
BRANCH  23  24
ATOM     24  C   UNL     1       1.502   4.366  18.450  0.00  0.00    +0.000 C 
BRANCH  24  25
ATOM     25  C   UNL     1       1.454   2.858  18.531  0.00  0.00    +0.000 C 
ATOM     26  O   UNL     1       0.420   2.194  18.494  0.00  0.00    +0.000 OA
ATOM     27  N   UNL     1       2.693   2.280  18.681  0.00  0.00    +0.000 N 
ATOM     28  H   UNL     1       3.542   2.793  18.897  0.00  0.00    +0.000 HD
BRANCH  27  29
ATOM     29  O   UNL     1       2.732   0.879  18.840  0.00  0.00    +0.000 OA
ATOM     30  H   UNL     1       2.200   0.563  18.080  0.00  0.00    +0.000 HD
ENDBRANCH  27  29
ENDBRANCH  24  25
ENDBRANCH  23  24
ENDBRANCH   1  23
TORSDOF 11
ENDMDL
MODEL 9
REMARK VINA RESULT:      -6.9      1.598      2.280
REMARK  Name = 
REMARK  13 active torsions:
REMARK  status: ('A' for Active; 'I' for Inactive)
REMARK    1  A    between atoms: C_1  and  O_2
REMARK    2  A    between atoms: O_2  and  C_3
REMARK    3  A    between atoms: C_6  and  C_7
REMARK    4  A    between atoms: C_7  and  C_8
REMARK    5  A    between atoms: C_8  and  N_9
REMARK    6  A    between atoms: N_9  and  C_10
REMARK    7  A    between atoms: N_9  and  S_16
REMARK    8  A    between atoms: C_10  and  C_11
REMARK    9  A    between atoms: C_11  and  C_12
REMARK   10  A    between atoms: N_14  and  O_15
REMARK   11  A    between atoms: S_16  and  C_19
REMARK   12  A    between atoms: C_22  and  O_23
REMARK   13  A    between atoms: O_23  and  C_24
REMARK                            x       y       z     vdW  Elec       q    Type
REMARK                         _______ _______ _______ _____ _____    ______ ____
ROOT
ATOM      1  N   UNL     1       3.509   4.933  18.831  0.00  0.00    +0.000 NA
ENDROOT
BRANCH   1   2
ATOM      2  S   UNL     1       5.208   4.530  18.962  0.00  0.00    +0.000 S 
ATOM      3  O   UNL     1       5.859   5.554  19.751  0.00  0.00    +0.000 OA
ATOM      4  O   UNL     1       5.275   3.135  19.351  0.00  0.00    +0.000 OA
BRANCH   2   5
ATOM      5  C   UNL     1       5.846   4.676  17.313  0.00  0.00    +0.000 A 
ATOM      6  C   UNL     1       6.614   5.792  16.972  0.00  0.00    +0.000 A 
ATOM      7  C   UNL     1       7.089   5.911  15.664  0.00  0.00    +0.000 A 
ATOM      8  C   UNL     1       6.821   4.923  14.714  0.00  0.00    +0.000 A 
ATOM      9  C   UNL     1       6.052   3.812  15.065  0.00  0.00    +0.000 A 
ATOM     10  C   UNL     1       5.567   3.683  16.369  0.00  0.00    +0.000 A 
BRANCH   8  11
ATOM     11  O   UNL     1       7.324   5.166  13.465  0.00  0.00    +0.000 OA
ATOM     12  C   UNL     1       7.016   4.187  12.477  0.00  0.00    +0.000 C 
ENDBRANCH   8  11
ENDBRANCH   2   5
ENDBRANCH   1   2
BRANCH   1  13
ATOM     13  C   UNL     1       3.295   6.423  19.006  0.00  0.00    +0.000 C 
BRANCH  13  14
ATOM     14  C   UNL     1       2.300   6.827  20.103  0.00  0.00    +0.000 C 
BRANCH  14  18
ATOM     15  C   UNL     1       0.625  10.720  19.172  0.00  0.00    +0.000 A 
ATOM     16  C   UNL     1       1.325   9.996  18.210  0.00  0.00    +0.000 A 
ATOM     17  C   UNL     1       1.834   8.729  18.504  0.00  0.00    +0.000 A 
ATOM     18  C   UNL     1       1.684   8.178  19.785  0.00  0.00    +0.000 A 
ATOM     19  C   UNL     1       0.988   8.915  20.752  0.00  0.00    +0.000 A 
ATOM     20  C   UNL     1       0.460  10.179  20.447  0.00  0.00    +0.000 A 
BRANCH  15  22
ATOM     21  C   UNL     1      -1.118  11.994  18.206  0.00  0.00    +0.000 C 
ATOM     22  O   UNL     1       0.190  11.949  18.760  0.00  0.00    +0.000 OA
ENDBRANCH  15  22
ENDBRANCH  14  18
ENDBRANCH  13  14
ENDBRANCH   1  13
BRANCH   1  23
ATOM     23  C   UNL     1       2.911   4.437  17.520  0.00  0.00    +0.000 C 
BRANCH  23  24
ATOM     24  C   UNL     1       1.771   3.437  17.695  0.00  0.00    +0.000 C 
BRANCH  24  25
ATOM     25  C   UNL     1       2.223   2.197  18.431  0.00  0.00    +0.000 C 
ATOM     26  O   UNL     1       1.660   1.734  19.421  0.00  0.00    +0.000 OA
ATOM     27  N   UNL     1       3.361   1.634  17.902  0.00  0.00    +0.000 N 
ATOM     28  H   UNL     1       3.952   2.081  17.209  0.00  0.00    +0.000 HD
BRANCH  27  29
ATOM     29  O   UNL     1       3.894   0.514  18.575  0.00  0.00    +0.000 OA
ATOM     30  H   UNL     1       3.762  -0.208  17.925  0.00  0.00    +0.000 HD
ENDBRANCH  27  29
ENDBRANCH  24  25
ENDBRANCH  23  24
ENDBRANCH   1  23
TORSDOF 11
ENDMDL
