MODEL 1
REMARK VINA RESULT:      -7.0      0.000      0.000
REMARK  Name = 
REMARK  5 active torsions:
REMARK  status: ('A' for Active; 'I' for Inactive)
REMARK    1  A    between atoms: C_1  and  N_2
REMARK    2  A    between atoms: N_9  and  C_10
REMARK    3  A    between atoms: C_10  and  C_11
REMARK    4  A    between atoms: C_14  and  C_15
REMARK    5  A    between atoms: C_15  and  C_16
REMARK                            x       y       z     vdW  Elec       q    Type
REMARK                         _______ _______ _______ _____ _____    ______ ____
ROOT
ATOM      1  C   UNL     1       1.966   7.134  20.110  0.00  0.00    +0.000 A 
ATOM      2  C   UNL     1       1.502   7.672  21.295  0.00  0.00    +0.000 A 
ATOM      3  S   UNL     1       0.819   9.218  21.021  0.00  0.00    +0.000 S 
ATOM      4  C   UNL     1       1.250   9.106  19.358  0.00  0.00    +0.000 A 
ATOM      5  N   UNL     1       1.853   7.985  19.010  0.00  0.00    +0.000 NA
ENDROOT
BRANCH   1   6
ATOM      6  C   UNL     1       2.557   5.761  19.913  0.00  0.00    +0.000 C 
BRANCH   6  15
ATOM      7  C   UNL     1       7.029   4.580  15.087  0.00  0.00    +0.000 C 
ATOM      8  N   UNL     1       6.837   4.681  16.510  0.00  0.00    +0.000 N 
ATOM      9  C   UNL     1       7.781   4.533  17.489  0.00  0.00    +0.000 A 
ATOM     10  N   UNL     1       7.272   4.703  18.693  0.00  0.00    +0.000 NA
ATOM     11  C   UNL     1       5.944   4.977  18.481  0.00  0.00    +0.000 A 
ATOM     12  C   UNL     1       5.656   4.942  17.136  0.00  0.00    +0.000 A 
ATOM     13  C   UNL     1       4.318   5.166  16.564  0.00  0.00    +0.000 C 
ATOM     14  C   UNL     1       3.273   5.019  17.706  0.00  0.00    +0.000 C 
ATOM     15  N   UNL     1       3.658   5.780  18.927  0.00  0.00    +0.000 NA
ATOM     16  C   UNL     1       4.912   5.221  19.541  0.00  0.00    +0.000 C 
ENDBRANCH   6  15
ENDBRANCH   1   6
BRANCH   4  17
ATOM     17  C   UNL     1       0.972  10.259  18.433  0.00  0.00    +0.000 C 
BRANCH  17  18
ATOM     18  C   UNL     1      -0.495  10.606  18.304  0.00  0.00    +0.000 A 
ATOM     19  C   UNL     1      -1.030  11.717  18.975  0.00  0.00    +0.000 A 
ATOM     20  C   UNL     1      -2.381  12.045  18.837  0.00  0.00    +0.000 A 
ATOM     21  C   UNL     1      -3.210  11.269  18.028  0.00  0.00    +0.000 A 
ATOM     22  C   UNL     1      -2.687  10.169  17.349  0.00  0.00    +0.000 A 
ATOM     23  C   UNL     1      -1.338   9.841  17.485  0.00  0.00    +0.000 A 
ENDBRANCH  17  18
ENDBRANCH   4  17
TORSDOF 4
ENDMDL
MODEL 2
REMARK VINA RESULT:      -7.0      0.220      1.029
REMARK  Name = 
REMARK  5 active torsions:
REMARK  status: ('A' for Active; 'I' for Inactive)
REMARK    1  A    between atoms: C_1  and  N_2
REMARK    2  A    between atoms: N_9  and  C_10
REMARK    3  A    between atoms: C_10  and  C_11
REMARK    4  A    between atoms: C_14  and  C_15
REMARK    5  A    between atoms: C_15  and  C_16
REMARK                            x       y       z     vdW  Elec       q    Type
REMARK                         _______ _______ _______ _____ _____    ______ ____
ROOT
ATOM      1  C   UNL     1       1.932   6.984  20.152  0.00  0.00    +0.000 A 
ATOM      2  C   UNL     1       1.334   7.477  21.296  0.00  0.00    +0.000 A 
ATOM      3  S   UNL     1       0.694   9.039  21.009  0.00  0.00    +0.000 S 
ATOM      4  C   UNL     1       1.316   8.992  19.405  0.00  0.00    +0.000 A 
ATOM      5  N   UNL     1       1.951   7.881  19.083  0.00  0.00    +0.000 NA
ENDROOT
BRANCH   1   6
ATOM      6  C   UNL     1       2.536   5.616  19.968  0.00  0.00    +0.000 C 
BRANCH   6  15
ATOM      7  C   UNL     1       6.863   4.318  15.043  0.00  0.00    +0.000 C 
ATOM      8  N   UNL     1       6.728   4.530  16.459  0.00  0.00    +0.000 N 
ATOM      9  C   UNL     1       7.723   4.533  17.399  0.00  0.00    +0.000 A 
ATOM     10  N   UNL     1       7.256   4.774  18.609  0.00  0.00    +0.000 NA
ATOM     11  C   UNL     1       5.904   4.938  18.440  0.00  0.00    +0.000 A 
ATOM     12  C   UNL     1       5.560   4.766  17.119  0.00  0.00    +0.000 A 
ATOM     13  C   UNL     1       4.186   4.847  16.598  0.00  0.00    +0.000 C 
ATOM     14  C   UNL     1       3.205   4.732  17.799  0.00  0.00    +0.000 C 
ATOM     15  N   UNL     1       3.588   5.622  18.931  0.00  0.00    +0.000 NA
ATOM     16  C   UNL     1       4.905   5.204  19.526  0.00  0.00    +0.000 C 
ENDBRANCH   6  15
ENDBRANCH   1   6
BRANCH   4  17
ATOM     17  C   UNL     1       1.153  10.185  18.503  0.00  0.00    +0.000 C 
BRANCH  17  18
ATOM     18  C   UNL     1      -0.284  10.623  18.315  0.00  0.00    +0.000 A 
ATOM     19  C   UNL     1      -1.177   9.843  17.564  0.00  0.00    +0.000 A 
ATOM     20  C   UNL     1      -2.507  10.241  17.410  0.00  0.00    +0.000 A 
ATOM     21  C   UNL     1      -2.958  11.419  18.005  0.00  0.00    +0.000 A 
ATOM     22  C   UNL     1      -2.082  12.196  18.761  0.00  0.00    +0.000 A 
ATOM     23  C   UNL     1      -0.753  11.800  18.917  0.00  0.00    +0.000 A 
ENDBRANCH  17  18
ENDBRANCH   4  17
TORSDOF 4
ENDMDL
MODEL 3
REMARK VINA RESULT:      -7.0      3.285      9.226
REMARK  Name = 
REMARK  5 active torsions:
REMARK  status: ('A' for Active; 'I' for Inactive)
REMARK    1  A    between atoms: C_1  and  N_2
REMARK    2  A    between atoms: N_9  and  C_10
REMARK    3  A    between atoms: C_10  and  C_11
REMARK    4  A    between atoms: C_14  and  C_15
REMARK    5  A    between atoms: C_15  and  C_16
REMARK                            x       y       z     vdW  Elec       q    Type
REMARK                         _______ _______ _______ _____ _____    ______ ____
ROOT
ATOM      1  C   UNL     1       0.520   9.795  19.449  0.00  0.00    +0.000 A 
ATOM      2  C   UNL     1       0.346   9.581  20.803  0.00  0.00    +0.000 A 
ATOM      3  S   UNL     1       1.332   8.286  21.334  0.00  0.00    +0.000 S 
ATOM      4  C   UNL     1       1.873   8.045  19.718  0.00  0.00    +0.000 A 
ATOM      5  N   UNL     1       1.370   8.879  18.828  0.00  0.00    +0.000 NA
ENDROOT
BRANCH   1   6
ATOM      6  C   UNL     1      -0.102  10.891  18.621  0.00  0.00    +0.000 C 
BRANCH   6  15
ATOM      7  C   UNL     1      -6.712  11.644  17.981  0.00  0.00    +0.000 C 
ATOM      8  N   UNL     1      -5.551  12.057  18.724  0.00  0.00    +0.000 N 
ATOM      9  C   UNL     1      -5.504  12.931  19.775  0.00  0.00    +0.000 A 
ATOM     10  N   UNL     1      -4.277  13.078  20.238  0.00  0.00    +0.000 NA
ATOM     11  C   UNL     1      -3.503  12.259  19.455  0.00  0.00    +0.000 A 
ATOM     12  C   UNL     1      -4.274  11.640  18.498  0.00  0.00    +0.000 A 
ATOM     13  C   UNL     1      -3.753  10.717  17.477  0.00  0.00    +0.000 C 
ATOM     14  C   UNL     1      -2.210  10.899  17.402  0.00  0.00    +0.000 C 
ATOM     15  N   UNL     1      -1.573  10.899  18.749  0.00  0.00    +0.000 NA
ATOM     16  C   UNL     1      -2.017  12.088  19.556  0.00  0.00    +0.000 C 
ENDBRANCH   6  15
ENDBRANCH   1   6
BRANCH   4  17
ATOM     17  C   UNL     1       2.815   6.915  19.405  0.00  0.00    +0.000 C 
BRANCH  17  18
ATOM     18  C   UNL     1       2.150   5.557  19.338  0.00  0.00    +0.000 A 
ATOM     19  C   UNL     1       2.027   4.880  18.115  0.00  0.00    +0.000 A 
ATOM     20  C   UNL     1       1.430   3.618  18.061  0.00  0.00    +0.000 A 
ATOM     21  C   UNL     1       0.953   3.020  19.227  0.00  0.00    +0.000 A 
ATOM     22  C   UNL     1       1.079   3.679  20.449  0.00  0.00    +0.000 A 
ATOM     23  C   UNL     1       1.676   4.939  20.505  0.00  0.00    +0.000 A 
ENDBRANCH  17  18
ENDBRANCH   4  17
TORSDOF 4
ENDMDL
MODEL 4
REMARK VINA RESULT:      -6.9      3.285      9.193
REMARK  Name = 
REMARK  5 active torsions:
REMARK  status: ('A' for Active; 'I' for Inactive)
REMARK    1  A    between atoms: C_1  and  N_2
REMARK    2  A    between atoms: N_9  and  C_10
REMARK    3  A    between atoms: C_10  and  C_11
REMARK    4  A    between atoms: C_14  and  C_15
REMARK    5  A    between atoms: C_15  and  C_16
REMARK                            x       y       z     vdW  Elec       q    Type
REMARK                         _______ _______ _______ _____ _____    ______ ____
ROOT
ATOM      1  C   UNL     1       0.448   9.741  19.428  0.00  0.00    +0.000 A 
ATOM      2  C   UNL     1       0.245   9.601  20.788  0.00  0.00    +0.000 A 
ATOM      3  S   UNL     1       1.250   8.365  21.416  0.00  0.00    +0.000 S 
ATOM      4  C   UNL     1       1.836   8.044  19.830  0.00  0.00    +0.000 A 
ATOM      5  N   UNL     1       1.335   8.812  18.882  0.00  0.00    +0.000 NA
ENDROOT
BRANCH   1   6
ATOM      6  C   UNL     1      -0.181  10.770  18.523  0.00  0.00    +0.000 C 
BRANCH   6  15
ATOM      7  C   UNL     1      -6.788  11.626  17.995  0.00  0.00    +0.000 C 
ATOM      8  N   UNL     1      -5.607  12.028  18.712  0.00  0.00    +0.000 N 
ATOM      9  C   UNL     1      -5.526  12.913  19.752  0.00  0.00    +0.000 A 
ATOM     10  N   UNL     1      -4.289  13.044  20.191  0.00  0.00    +0.000 NA
ATOM     11  C   UNL     1      -3.543  12.204  19.403  0.00  0.00    +0.000 A 
ATOM     12  C   UNL     1      -4.341  11.588  18.468  0.00  0.00    +0.000 A 
ATOM     13  C   UNL     1      -3.854  10.644  17.448  0.00  0.00    +0.000 C 
ATOM     14  C   UNL     1      -2.311  10.799  17.343  0.00  0.00    +0.000 C 
ATOM     15  N   UNL     1      -1.649  10.804  18.678  0.00  0.00    +0.000 NA
ATOM     16  C   UNL     1      -2.058  12.009  19.479  0.00  0.00    +0.000 C 
ENDBRANCH   6  15
ENDBRANCH   1   6
BRANCH   4  17
ATOM     17  C   UNL     1       2.813   6.923  19.606  0.00  0.00    +0.000 C 
BRANCH  17  18
ATOM     18  C   UNL     1       2.166   5.566  19.434  0.00  0.00    +0.000 A 
ATOM     19  C   UNL     1       1.666   4.866  20.544  0.00  0.00    +0.000 A 
ATOM     20  C   UNL     1       1.051   3.623  20.379  0.00  0.00    +0.000 A 
ATOM     21  C   UNL     1       0.928   3.068  19.105  0.00  0.00    +0.000 A 
ATOM     22  C   UNL     1       1.412   3.758  17.995  0.00  0.00    +0.000 A 
ATOM     23  C   UNL     1       2.026   5.001  18.158  0.00  0.00    +0.000 A 
ENDBRANCH  17  18
ENDBRANCH   4  17
TORSDOF 4
ENDMDL
MODEL 5
REMARK VINA RESULT:      -6.9      2.587      3.934
REMARK  Name = 
REMARK  5 active torsions:
REMARK  status: ('A' for Active; 'I' for Inactive)
REMARK    1  A    between atoms: C_1  and  N_2
REMARK    2  A    between atoms: N_9  and  C_10
REMARK    3  A    between atoms: C_10  and  C_11
REMARK    4  A    between atoms: C_14  and  C_15
REMARK    5  A    between atoms: C_15  and  C_16
REMARK                            x       y       z     vdW  Elec       q    Type
REMARK                         _______ _______ _______ _____ _____    ______ ____
ROOT
ATOM      1  C   UNL     1       1.995   9.330  18.108  0.00  0.00    +0.000 A 
ATOM      2  C   UNL     1       2.380  10.657  18.128  0.00  0.00    +0.000 A 
ATOM      3  S   UNL     1       1.073  11.650  18.615  0.00  0.00    +0.000 S 
ATOM      4  C   UNL     1       0.058  10.262  18.697  0.00  0.00    +0.000 A 
ATOM      5  N   UNL     1       0.646   9.120  18.397  0.00  0.00    +0.000 NA
ENDROOT
BRANCH   1   6
ATOM      6  C   UNL     1       2.873   8.140  17.815  0.00  0.00    +0.000 C 
BRANCH   6  15
ATOM      7  C   UNL     1       1.404   2.702  21.412  0.00  0.00    +0.000 C 
ATOM      8  N   UNL     1       1.946   3.172  20.165  0.00  0.00    +0.000 N 
ATOM      9  C   UNL     1       2.405   2.418  19.120  0.00  0.00    +0.000 A 
ATOM     10  N   UNL     1       2.823   3.167  18.118  0.00  0.00    +0.000 NA
ATOM     11  C   UNL     1       2.619   4.459  18.533  0.00  0.00    +0.000 A 
ATOM     12  C   UNL     1       2.100   4.478  19.807  0.00  0.00    +0.000 A 
ATOM     13  C   UNL     1       1.788   5.702  20.562  0.00  0.00    +0.000 C 
ATOM     14  C   UNL     1       2.516   6.892  19.875  0.00  0.00    +0.000 C 
ATOM     15  N   UNL     1       2.321   6.901  18.399  0.00  0.00    +0.000 NA
ATOM     16  C   UNL     1       2.960   5.698  17.762  0.00  0.00    +0.000 C 
ENDBRANCH   6  15
ENDBRANCH   1   6
BRANCH   4  17
ATOM     17  C   UNL     1      -1.397  10.418  19.046  0.00  0.00    +0.000 C 
BRANCH  17  18
ATOM     18  C   UNL     1      -2.305  10.578  17.846  0.00  0.00    +0.000 A 
ATOM     19  C   UNL     1      -2.036   9.894  16.650  0.00  0.00    +0.000 A 
ATOM     20  C   UNL     1      -2.888  10.028  15.551  0.00  0.00    +0.000 A 
ATOM     21  C   UNL     1      -4.017  10.843  15.637  0.00  0.00    +0.000 A 
ATOM     22  C   UNL     1      -4.299  11.519  16.823  0.00  0.00    +0.000 A 
ATOM     23  C   UNL     1      -3.449  11.385  17.922  0.00  0.00    +0.000 A 
ENDBRANCH  17  18
ENDBRANCH   4  17
TORSDOF 4
ENDMDL
MODEL 6
REMARK VINA RESULT:      -6.9      2.581      3.839
REMARK  Name = 
REMARK  5 active torsions:
REMARK  status: ('A' for Active; 'I' for Inactive)
REMARK    1  A    between atoms: C_1  and  N_2
REMARK    2  A    between atoms: N_9  and  C_10
REMARK    3  A    between atoms: C_10  and  C_11
REMARK    4  A    between atoms: C_14  and  C_15
REMARK    5  A    between atoms: C_15  and  C_16
REMARK                            x       y       z     vdW  Elec       q    Type
REMARK                         _______ _______ _______ _____ _____    ______ ____
ROOT
ATOM      1  C   UNL     1       1.953   9.416  18.143  0.00  0.00    +0.000 A 
ATOM      2  C   UNL     1       2.326  10.746  18.186  0.00  0.00    +0.000 A 
ATOM      3  S   UNL     1       1.007  11.719  18.681  0.00  0.00    +0.000 S 
ATOM      4  C   UNL     1       0.004  10.322  18.735  0.00  0.00    +0.000 A 
ATOM      5  N   UNL     1       0.604   9.190  18.421  0.00  0.00    +0.000 NA
ENDROOT
BRANCH   1   6
ATOM      6  C   UNL     1       2.843   8.239  17.837  0.00  0.00    +0.000 C 
BRANCH   6  15
ATOM      7  C   UNL     1       1.389   2.744  21.352  0.00  0.00    +0.000 C 
ATOM      8  N   UNL     1       1.946   3.234  20.120  0.00  0.00    +0.000 N 
ATOM      9  C   UNL     1       2.436   2.497  19.077  0.00  0.00    +0.000 A 
ATOM     10  N   UNL     1       2.861   3.262  18.090  0.00  0.00    +0.000 NA
ATOM     11  C   UNL     1       2.630   4.547  18.514  0.00  0.00    +0.000 A 
ATOM     12  C   UNL     1       2.087   4.545  19.778  0.00  0.00    +0.000 A 
ATOM     13  C   UNL     1       1.743   5.757  20.539  0.00  0.00    +0.000 C 
ATOM     14  C   UNL     1       2.467   6.965  19.878  0.00  0.00    +0.000 C 
ATOM     15  N   UNL     1       2.299   6.985  18.398  0.00  0.00    +0.000 NA
ATOM     16  C   UNL     1       2.968   5.799  17.761  0.00  0.00    +0.000 C 
ENDBRANCH   6  15
ENDBRANCH   1   6
BRANCH   4  17
ATOM     17  C   UNL     1      -1.454  10.459  19.078  0.00  0.00    +0.000 C 
BRANCH  17  18
ATOM     18  C   UNL     1      -2.361  10.585  17.873  0.00  0.00    +0.000 A 
ATOM     19  C   UNL     1      -3.509  11.393  17.923  0.00  0.00    +0.000 A 
ATOM     20  C   UNL     1      -4.332  11.522  16.802  0.00  0.00    +0.000 A 
ATOM     21  C   UNL     1      -4.018  10.849  15.621  0.00  0.00    +0.000 A 
ATOM     22  C   UNL     1      -2.875  10.053  15.558  0.00  0.00    +0.000 A 
ATOM     23  C   UNL     1      -2.051   9.923  16.676  0.00  0.00    +0.000 A 
ENDBRANCH  17  18
ENDBRANCH   4  17
TORSDOF 4
ENDMDL
MODEL 7
REMARK VINA RESULT:      -6.8      2.132      3.185
REMARK  Name = 
REMARK  5 active torsions:
REMARK  status: ('A' for Active; 'I' for Inactive)
REMARK    1  A    between atoms: C_1  and  N_2
REMARK    2  A    between atoms: N_9  and  C_10
REMARK    3  A    between atoms: C_10  and  C_11
REMARK    4  A    between atoms: C_14  and  C_15
REMARK    5  A    between atoms: C_15  and  C_16
REMARK                            x       y       z     vdW  Elec       q    Type
REMARK                         _______ _______ _______ _____ _____    ______ ____
ROOT
ATOM      1  C   UNL     1       1.928   8.538  18.707  0.00  0.00    +0.000 A 
ATOM      2  C   UNL     1       1.589   8.400  20.039  0.00  0.00    +0.000 A 
ATOM      3  S   UNL     1       0.456   9.599  20.495  0.00  0.00    +0.000 S 
ATOM      4  C   UNL     1       0.544  10.272  18.913  0.00  0.00    +0.000 A 
ATOM      5  N   UNL     1       1.351   9.644  18.081  0.00  0.00    +0.000 NA
ENDROOT
BRANCH   1   6
ATOM      6  C   UNL     1       2.828   7.632  17.906  0.00  0.00    +0.000 C 
BRANCH   6  15
ATOM      7  C   UNL     1       4.710   1.555  19.954  0.00  0.00    +0.000 C 
ATOM      8  N   UNL     1       3.661   2.305  19.317  0.00  0.00    +0.000 N 
ATOM      9  C   UNL     1       2.459   1.834  18.863  0.00  0.00    +0.000 A 
ATOM     10  N   UNL     1       1.720   2.793  18.341  0.00  0.00    +0.000 NA
ATOM     11  C   UNL     1       2.476   3.931  18.469  0.00  0.00    +0.000 A 
ATOM     12  C   UNL     1       3.689   3.640  19.049  0.00  0.00    +0.000 A 
ATOM     13  C   UNL     1       4.748   4.629  19.307  0.00  0.00    +0.000 C 
ATOM     14  C   UNL     1       4.444   5.896  18.458  0.00  0.00    +0.000 C 
ATOM     15  N   UNL     1       3.025   6.331  18.578  0.00  0.00    +0.000 NA
ATOM     16  C   UNL     1       2.093   5.303  17.998  0.00  0.00    +0.000 C 
ENDBRANCH   6  15
ENDBRANCH   1   6
BRANCH   4  17
ATOM     17  C   UNL     1      -0.236  11.517  18.585  0.00  0.00    +0.000 C 
BRANCH  17  18
ATOM     18  C   UNL     1      -1.681  11.260  18.217  0.00  0.00    +0.000 A 
ATOM     19  C   UNL     1      -2.011  10.333  17.215  0.00  0.00    +0.000 A 
ATOM     20  C   UNL     1      -3.347  10.084  16.894  0.00  0.00    +0.000 A 
ATOM     21  C   UNL     1      -4.366  10.755  17.569  0.00  0.00    +0.000 A 
ATOM     22  C   UNL     1      -4.050  11.670  18.573  0.00  0.00    +0.000 A 
ATOM     23  C   UNL     1      -2.716  11.919  18.896  0.00  0.00    +0.000 A 
ENDBRANCH  17  18
ENDBRANCH   4  17
TORSDOF 4
ENDMDL
MODEL 8
REMARK VINA RESULT:      -6.7      2.798      8.941
REMARK  Name = 
REMARK  5 active torsions:
REMARK  status: ('A' for Active; 'I' for Inactive)
REMARK    1  A    between atoms: C_1  and  N_2
REMARK    2  A    between atoms: N_9  and  C_10
REMARK    3  A    between atoms: C_10  and  C_11
REMARK    4  A    between atoms: C_14  and  C_15
REMARK    5  A    between atoms: C_15  and  C_16
REMARK                            x       y       z     vdW  Elec       q    Type
REMARK                         _______ _______ _______ _____ _____    ______ ____
ROOT
ATOM      1  C   UNL     1       1.373   9.079  18.974  0.00  0.00    +0.000 A 
ATOM      2  C   UNL     1       1.308   8.479  20.217  0.00  0.00    +0.000 A 
ATOM      3  S   UNL     1       2.195   7.014  20.219  0.00  0.00    +0.000 S 
ATOM      4  C   UNL     1       2.547   7.234  18.549  0.00  0.00    +0.000 A 
ATOM      5  N   UNL     1       2.054   8.333  18.012  0.00  0.00    +0.000 NA
ENDROOT
BRANCH   1   6
ATOM      6  C   UNL     1       0.796  10.417  18.587  0.00  0.00    +0.000 C 
BRANCH   6  15
ATOM      7  C   UNL     1      -5.830  11.081  18.020  0.00  0.00    +0.000 C 
ATOM      8  N   UNL     1      -4.652  11.589  18.671  0.00  0.00    +0.000 N 
ATOM      9  C   UNL     1      -4.580  12.598  19.592  0.00  0.00    +0.000 A 
ATOM     10  N   UNL     1      -3.343  12.805  20.000  0.00  0.00    +0.000 NA
ATOM     11  C   UNL     1      -2.586  11.888  19.315  0.00  0.00    +0.000 A 
ATOM     12  C   UNL     1      -3.380  11.145  18.471  0.00  0.00    +0.000 A 
ATOM     13  C   UNL     1      -2.882  10.092  17.571  0.00  0.00    +0.000 C 
ATOM     14  C   UNL     1      -1.342  10.261  17.433  0.00  0.00    +0.000 C 
ATOM     15  N   UNL     1      -0.672  10.443  18.750  0.00  0.00    +0.000 NA
ATOM     16  C   UNL     1      -1.098  11.731  19.401  0.00  0.00    +0.000 C 
ENDBRANCH   6  15
ENDBRANCH   1   6
BRANCH   4  17
ATOM     17  C   UNL     1       3.327   6.185  17.804  0.00  0.00    +0.000 C 
BRANCH  17  18
ATOM     18  C   UNL     1       2.945   4.764  18.159  0.00  0.00    +0.000 A 
ATOM     19  C   UNL     1       3.881   3.894  18.739  0.00  0.00    +0.000 A 
ATOM     20  C   UNL     1       3.518   2.590  19.084  0.00  0.00    +0.000 A 
ATOM     21  C   UNL     1       2.217   2.143  18.854  0.00  0.00    +0.000 A 
ATOM     22  C   UNL     1       1.276   3.001  18.288  0.00  0.00    +0.000 A 
ATOM     23  C   UNL     1       1.637   4.305  17.944  0.00  0.00    +0.000 A 
ENDBRANCH  17  18
ENDBRANCH   4  17
TORSDOF 4
ENDMDL
MODEL 9
REMARK VINA RESULT:      -6.7      4.867      8.543
REMARK  Name = 
REMARK  5 active torsions:
REMARK  status: ('A' for Active; 'I' for Inactive)
REMARK    1  A    between atoms: C_1  and  N_2
REMARK    2  A    between atoms: N_9  and  C_10
REMARK    3  A    between atoms: C_10  and  C_11
REMARK    4  A    between atoms: C_14  and  C_15
REMARK    5  A    between atoms: C_15  and  C_16
REMARK                            x       y       z     vdW  Elec       q    Type
REMARK                         _______ _______ _______ _____ _____    ______ ____
ROOT
ATOM      1  C   UNL     1       5.297   5.820  16.479  0.00  0.00    +0.000 A 
ATOM      2  C   UNL     1       6.008   4.782  17.050  0.00  0.00    +0.000 A 
ATOM      3  S   UNL     1       7.103   4.115  15.916  0.00  0.00    +0.000 S 
ATOM      4  C   UNL     1       6.510   5.197  14.716  0.00  0.00    +0.000 A 
ATOM      5  N   UNL     1       5.565   6.022  15.124  0.00  0.00    +0.000 NA
ENDROOT
BRANCH   1   6
ATOM      6  C   UNL     1       4.299   6.716  17.167  0.00  0.00    +0.000 C 
BRANCH   6  15
ATOM      7  C   UNL     1       1.306   2.692  21.585  0.00  0.00    +0.000 C 
ATOM      8  N   UNL     1       1.580   2.903  20.189  0.00  0.00    +0.000 N 
ATOM      9  C   UNL     1       1.176   2.129  19.135  0.00  0.00    +0.000 A 
ATOM     10  N   UNL     1       1.590   2.614  17.981  0.00  0.00    +0.000 NA
ATOM     11  C   UNL     1       2.286   3.751  18.304  0.00  0.00    +0.000 A 
ATOM     12  C   UNL     1       2.310   3.929  19.668  0.00  0.00    +0.000 A 
ATOM     13  C   UNL     1       2.996   5.036  20.353  0.00  0.00    +0.000 C 
ATOM     14  C   UNL     1       3.995   5.680  19.350  0.00  0.00    +0.000 C 
ATOM     15  N   UNL     1       3.374   5.944  18.022  0.00  0.00    +0.000 NA
ATOM     16  C   UNL     1       2.989   4.660  17.340  0.00  0.00    +0.000 C 
ENDBRANCH   6  15
ENDBRANCH   1   6
BRANCH   4  17
ATOM     17  C   UNL     1       7.043   5.122  13.311  0.00  0.00    +0.000 C 
BRANCH  17  18
ATOM     18  C   UNL     1       6.560   3.918  12.532  0.00  0.00    +0.000 A 
ATOM     19  C   UNL     1       5.187   3.692  12.342  0.00  0.00    +0.000 A 
ATOM     20  C   UNL     1       4.746   2.591  11.605  0.00  0.00    +0.000 A 
ATOM     21  C   UNL     1       5.670   1.706  11.050  0.00  0.00    +0.000 A 
ATOM     22  C   UNL     1       7.036   1.926  11.224  0.00  0.00    +0.000 A 
ATOM     23  C   UNL     1       7.478   3.026  11.959  0.00  0.00    +0.000 A 
ENDBRANCH  17  18
ENDBRANCH   4  17
TORSDOF 4
ENDMDL
