MODEL 1
REMARK VINA RESULT:      -8.3      0.000      0.000
REMARK  Name = 
REMARK  7 active torsions:
REMARK  status: ('A' for Active; 'I' for Inactive)
REMARK    1  A    between atoms: C_1  and  N_2
REMARK    2  A    between atoms: N_2  and  C_3
REMARK    3  A    between atoms: N_2  and  S_19
REMARK    4  A    between atoms: C_3  and  C_4
REMARK    5  A    between atoms: N_9  and  C_10
REMARK    6  A    between atoms: C_10  and  C_11
REMARK    7  A    between atoms: S_19  and  C_22
REMARK                            x       y       z     vdW  Elec       q    Type
REMARK                         _______ _______ _______ _____ _____    ______ ____
ROOT
ATOM      1  C   UNL     1       2.595   5.777  19.381  0.00  0.00    +0.000 C 
ENDROOT
BRANCH   1   2
ATOM      2  C   UNL     1       2.492   7.197  18.835  0.00  0.00    +0.000 C 
ATOM      3  O   UNL     1       3.063   7.493  17.779  0.00  0.00    +0.000 OA
ATOM      4  N   UNL     1       1.709   8.111  19.522  0.00  0.00    +0.000 N 
ATOM      5  C   UNL     1       1.449   9.426  18.928  0.00  0.00    +0.000 C 
ATOM      6  C   UNL     1       0.027   9.938  19.264  0.00  0.00    +0.000 C 
ATOM      7  N   UNL     1      -0.346   9.866  20.700  0.00  0.00    +0.000 NA
ATOM      8  C   UNL     1      -0.085   8.490  21.182  0.00  0.00    +0.000 C 
ATOM      9  C   UNL     1       1.350   7.992  20.940  0.00  0.00    +0.000 C 
BRANCH   7  10
ATOM     10  C   UNL     1       0.376  10.901  21.464  0.00  0.00    +0.000 C 
BRANCH  10  11
ATOM     11  C   UNL     1      -0.503  11.919  22.158  0.00  0.00    +0.000 A 
ATOM     12  C   UNL     1      -0.218  13.289  22.042  0.00  0.00    +0.000 A 
ATOM     13  C   UNL     1      -1.042  14.240  22.645  0.00  0.00    +0.000 A 
ATOM     14  C   UNL     1      -2.161  13.833  23.370  0.00  0.00    +0.000 A 
ATOM     15  C   UNL     1      -2.450  12.475  23.498  0.00  0.00    +0.000 A 
ATOM     16  C   UNL     1      -1.626  11.522  22.897  0.00  0.00    +0.000 A 
ENDBRANCH  10  11
ENDBRANCH   7  10
ENDBRANCH   1   2
BRANCH   1  18
ATOM     17  C   UNL     1       1.360   4.061  18.120  0.00  0.00    +0.000 C 
ATOM     18  N   UNL     1       2.681   4.714  18.330  0.00  0.00    +0.000 NA
BRANCH  18  19
ATOM     19  S   UNL     1       3.952   3.618  18.683  0.00  0.00    +0.000 S 
ATOM     20  O   UNL     1       3.964   3.364  20.106  0.00  0.00    +0.000 OA
ATOM     21  O   UNL     1       3.815   2.514  17.753  0.00  0.00    +0.000 OA
BRANCH  19  22
ATOM     22  C   UNL     1       5.434   4.471  18.285  0.00  0.00    +0.000 A 
ATOM     23  C   UNL     1       6.166   5.150  19.286  0.00  0.00    +0.000 A 
ATOM     24  C   UNL     1       7.291   5.962  19.007  0.00  0.00    +0.000 A 
ATOM     25  C   UNL     1       7.771   6.176  17.706  0.00  0.00    +0.000 A 
ATOM     26  C   UNL     1       7.077   5.514  16.663  0.00  0.00    +0.000 A 
ATOM     27  N   UNL     1       7.374   5.596  15.359  0.00  0.00    +0.000 NA
ATOM     28  S   UNL     1       6.260   4.661  14.561  0.00  0.00    +0.000 S 
ATOM     29  N   UNL     1       5.372   4.084  15.835  0.00  0.00    +0.000 NA
ATOM     30  C   UNL     1       5.879   4.631  16.950  0.00  0.00    +0.000 A 
ENDBRANCH  19  22
ENDBRANCH  18  19
ENDBRANCH   1  18
TORSDOF 6
ENDMDL
MODEL 2
REMARK VINA RESULT:      -8.1      1.400      1.760
REMARK  Name = 
REMARK  7 active torsions:
REMARK  status: ('A' for Active; 'I' for Inactive)
REMARK    1  A    between atoms: C_1  and  N_2
REMARK    2  A    between atoms: N_2  and  C_3
REMARK    3  A    between atoms: N_2  and  S_19
REMARK    4  A    between atoms: C_3  and  C_4
REMARK    5  A    between atoms: N_9  and  C_10
REMARK    6  A    between atoms: C_10  and  C_11
REMARK    7  A    between atoms: S_19  and  C_22
REMARK                            x       y       z     vdW  Elec       q    Type
REMARK                         _______ _______ _______ _____ _____    ______ ____
ROOT
ATOM      1  C   UNL     1       2.827   5.715  19.733  0.00  0.00    +0.000 C 
ENDROOT
BRANCH   1   2
ATOM      2  C   UNL     1       2.623   7.040  19.008  0.00  0.00    +0.000 C 
ATOM      3  O   UNL     1       3.124   7.214  17.892  0.00  0.00    +0.000 OA
ATOM      4  N   UNL     1       1.829   8.004  19.610  0.00  0.00    +0.000 N 
ATOM      5  C   UNL     1       1.472   9.212  18.861  0.00  0.00    +0.000 C 
ATOM      6  C   UNL     1       0.043   9.701  19.205  0.00  0.00    +0.000 C 
ATOM      7  N   UNL     1      -0.253   9.810  20.657  0.00  0.00    +0.000 NA
ATOM      8  C   UNL     1       0.103   8.526  21.304  0.00  0.00    +0.000 C 
ATOM      9  C   UNL     1       1.549   8.064  21.049  0.00  0.00    +0.000 C 
BRANCH   7  10
ATOM     10  C   UNL     1       0.452  10.971  21.232  0.00  0.00    +0.000 C 
BRANCH  10  11
ATOM     11  C   UNL     1      -0.420  11.931  22.013  0.00  0.00    +0.000 A 
ATOM     12  C   UNL     1      -0.140  13.307  21.997  0.00  0.00    +0.000 A 
ATOM     13  C   UNL     1      -0.958  14.207  22.681  0.00  0.00    +0.000 A 
ATOM     14  C   UNL     1      -2.065  13.743  23.388  0.00  0.00    +0.000 A 
ATOM     15  C   UNL     1      -2.349  12.378  23.418  0.00  0.00    +0.000 A 
ATOM     16  C   UNL     1      -1.531  11.476  22.735  0.00  0.00    +0.000 A 
ENDBRANCH  10  11
ENDBRANCH   7  10
ENDBRANCH   1   2
BRANCH   1  18
ATOM     17  C   UNL     1       1.067   3.994  19.741  0.00  0.00    +0.000 C 
ATOM     18  N   UNL     1       2.257   4.526  19.023  0.00  0.00    +0.000 NA
BRANCH  18  19
ATOM     19  S   UNL     1       3.477   3.356  18.731  0.00  0.00    +0.000 S 
ATOM     20  O   UNL     1       4.187   3.106  19.966  0.00  0.00    +0.000 OA
ATOM     21  O   UNL     1       2.837   2.259  18.031  0.00  0.00    +0.000 OA
BRANCH  19  22
ATOM     22  C   UNL     1       4.602   4.116  17.618  0.00  0.00    +0.000 A 
ATOM     23  C   UNL     1       4.428   3.990  16.221  0.00  0.00    +0.000 A 
ATOM     24  C   UNL     1       5.369   4.465  15.276  0.00  0.00    +0.000 A 
ATOM     25  C   UNL     1       6.568   5.093  15.647  0.00  0.00    +0.000 A 
ATOM     26  C   UNL     1       6.791   5.251  17.037  0.00  0.00    +0.000 A 
ATOM     27  N   UNL     1       7.874   5.815  17.590  0.00  0.00    +0.000 NA
ATOM     28  S   UNL     1       7.660   5.736  19.233  0.00  0.00    +0.000 S 
ATOM     29  N   UNL     1       6.171   5.013  19.317  0.00  0.00    +0.000 NA
ATOM     30  C   UNL     1       5.785   4.757  18.058  0.00  0.00    +0.000 A 
ENDBRANCH  19  22
ENDBRANCH  18  19
ENDBRANCH   1  18
TORSDOF 6
ENDMDL
MODEL 3
REMARK VINA RESULT:      -7.8      1.939      2.507
REMARK  Name = 
REMARK  7 active torsions:
REMARK  status: ('A' for Active; 'I' for Inactive)
REMARK    1  A    between atoms: C_1  and  N_2
REMARK    2  A    between atoms: N_2  and  C_3
REMARK    3  A    between atoms: N_2  and  S_19
REMARK    4  A    between atoms: C_3  and  C_4
REMARK    5  A    between atoms: N_9  and  C_10
REMARK    6  A    between atoms: C_10  and  C_11
REMARK    7  A    between atoms: S_19  and  C_22
REMARK                            x       y       z     vdW  Elec       q    Type
REMARK                         _______ _______ _______ _____ _____    ______ ____
ROOT
ATOM      1  C   UNL     1       2.638   5.537  19.735  0.00  0.00    +0.000 C 
ENDROOT
BRANCH   1   2
ATOM      2  C   UNL     1       2.618   6.824  18.919  0.00  0.00    +0.000 C 
ATOM      3  O   UNL     1       3.146   6.853  17.802  0.00  0.00    +0.000 OA
ATOM      4  N   UNL     1       1.955   7.924  19.441  0.00  0.00    +0.000 N 
ATOM      5  C   UNL     1       1.767   9.115  18.606  0.00  0.00    +0.000 C 
ATOM      6  C   UNL     1       0.414   9.811  18.893  0.00  0.00    +0.000 C 
ATOM      7  N   UNL     1       0.124  10.058  20.328  0.00  0.00    +0.000 NA
ATOM      8  C   UNL     1       0.301   8.786  21.066  0.00  0.00    +0.000 C 
ATOM      9  C   UNL     1       1.674   8.120  20.868  0.00  0.00    +0.000 C 
BRANCH   7  10
ATOM     10  C   UNL     1       0.973  11.152  20.836  0.00  0.00    +0.000 C 
BRANCH  10  11
ATOM     11  C   UNL     1       0.712  12.509  20.217  0.00  0.00    +0.000 A 
ATOM     12  C   UNL     1       1.738  13.175  19.526  0.00  0.00    +0.000 A 
ATOM     13  C   UNL     1       1.501  14.407  18.918  0.00  0.00    +0.000 A 
ATOM     14  C   UNL     1       0.237  14.989  18.993  0.00  0.00    +0.000 A 
ATOM     15  C   UNL     1      -0.788  14.341  19.682  0.00  0.00    +0.000 A 
ATOM     16  C   UNL     1      -0.552  13.108  20.292  0.00  0.00    +0.000 A 
ENDBRANCH  10  11
ENDBRANCH   7  10
ENDBRANCH   1   2
BRANCH   1  18
ATOM     17  C   UNL     1       1.025   3.686  19.554  0.00  0.00    +0.000 C 
ATOM     18  N   UNL     1       2.241   4.312  18.969  0.00  0.00    +0.000 NA
BRANCH  18  19
ATOM     19  S   UNL     1       3.573   3.241  18.816  0.00  0.00    +0.000 S 
ATOM     20  O   UNL     1       4.253   3.160  20.089  0.00  0.00    +0.000 OA
ATOM     21  O   UNL     1       3.061   2.036  18.191  0.00  0.00    +0.000 OA
BRANCH  19  22
ATOM     22  C   UNL     1       4.667   4.009  17.678  0.00  0.00    +0.000 A 
ATOM     23  C   UNL     1       4.499   3.831  16.286  0.00  0.00    +0.000 A 
ATOM     24  C   UNL     1       5.421   4.313  15.326  0.00  0.00    +0.000 A 
ATOM     25  C   UNL     1       6.594   4.999  15.675  0.00  0.00    +0.000 A 
ATOM     26  C   UNL     1       6.810   5.210  17.060  0.00  0.00    +0.000 A 
ATOM     27  N   UNL     1       7.869   5.835  17.594  0.00  0.00    +0.000 NA
ATOM     28  S   UNL     1       7.657   5.800  19.239  0.00  0.00    +0.000 S 
ATOM     29  N   UNL     1       6.198   5.021  19.346  0.00  0.00    +0.000 NA
ATOM     30  C   UNL     1       5.823   4.710  18.096  0.00  0.00    +0.000 A 
ENDBRANCH  19  22
ENDBRANCH  18  19
ENDBRANCH   1  18
TORSDOF 6
ENDMDL
MODEL 4
REMARK VINA RESULT:      -7.7      1.099      1.322
REMARK  Name = 
REMARK  7 active torsions:
REMARK  status: ('A' for Active; 'I' for Inactive)
REMARK    1  A    between atoms: C_1  and  N_2
REMARK    2  A    between atoms: N_2  and  C_3
REMARK    3  A    between atoms: N_2  and  S_19
REMARK    4  A    between atoms: C_3  and  C_4
REMARK    5  A    between atoms: N_9  and  C_10
REMARK    6  A    between atoms: C_10  and  C_11
REMARK    7  A    between atoms: S_19  and  C_22
REMARK                            x       y       z     vdW  Elec       q    Type
REMARK                         _______ _______ _______ _____ _____    ______ ____
ROOT
ATOM      1  C   UNL     1       2.458   5.680  19.187  0.00  0.00    +0.000 C 
ENDROOT
BRANCH   1   2
ATOM      2  C   UNL     1       2.533   7.051  18.524  0.00  0.00    +0.000 C 
ATOM      3  O   UNL     1       3.149   7.187  17.461  0.00  0.00    +0.000 OA
ATOM      4  N   UNL     1       1.857   8.106  19.117  0.00  0.00    +0.000 N 
ATOM      5  C   UNL     1       1.765   9.388  18.411  0.00  0.00    +0.000 C 
ATOM      6  C   UNL     1       0.410  10.092  18.672  0.00  0.00    +0.000 C 
ATOM      7  N   UNL     1       0.014  10.186  20.100  0.00  0.00    +0.000 NA
ATOM      8  C   UNL     1       0.101   8.834  20.699  0.00  0.00    +0.000 C 
ATOM      9  C   UNL     1       1.469   8.150  20.531  0.00  0.00    +0.000 C 
BRANCH   7  10
ATOM     10  C   UNL     1       0.846  11.188  20.793  0.00  0.00    +0.000 C 
BRANCH  10  11
ATOM     11  C   UNL     1       0.227  12.564  20.915  0.00  0.00    +0.000 A 
ATOM     12  C   UNL     1      -1.114  12.767  20.549  0.00  0.00    +0.000 A 
ATOM     13  C   UNL     1      -1.708  14.021  20.692  0.00  0.00    +0.000 A 
ATOM     14  C   UNL     1      -0.970  15.087  21.202  0.00  0.00    +0.000 A 
ATOM     15  C   UNL     1       0.364  14.900  21.563  0.00  0.00    +0.000 A 
ATOM     16  C   UNL     1       0.961  13.646  21.419  0.00  0.00    +0.000 A 
ENDBRANCH  10  11
ENDBRANCH   7  10
ENDBRANCH   1   2
BRANCH   1  18
ATOM     17  C   UNL     1       1.300   3.817  18.070  0.00  0.00    +0.000 C 
ATOM     18  N   UNL     1       2.597   4.526  18.242  0.00  0.00    +0.000 NA
BRANCH  18  19
ATOM     19  S   UNL     1       3.892   3.508  18.721  0.00  0.00    +0.000 S 
ATOM     20  O   UNL     1       3.856   3.354  20.158  0.00  0.00    +0.000 OA
ATOM     21  O   UNL     1       3.832   2.337  17.867  0.00  0.00    +0.000 OA
BRANCH  19  22
ATOM     22  C   UNL     1       5.357   4.388  18.318  0.00  0.00    +0.000 A 
ATOM     23  C   UNL     1       6.064   5.101  19.313  0.00  0.00    +0.000 A 
ATOM     24  C   UNL     1       7.172   5.935  19.028  0.00  0.00    +0.000 A 
ATOM     25  C   UNL     1       7.659   6.136  17.727  0.00  0.00    +0.000 A 
ATOM     26  C   UNL     1       6.989   5.439  16.691  0.00  0.00    +0.000 A 
ATOM     27  N   UNL     1       7.295   5.505  15.388  0.00  0.00    +0.000 NA
ATOM     28  S   UNL     1       6.210   4.530  14.598  0.00  0.00    +0.000 S 
ATOM     29  N   UNL     1       5.324   3.955  15.876  0.00  0.00    +0.000 NA
ATOM     30  C   UNL     1       5.809   4.534  16.985  0.00  0.00    +0.000 A 
ENDBRANCH  19  22
ENDBRANCH  18  19
ENDBRANCH   1  18
TORSDOF 6
ENDMDL
MODEL 5
REMARK VINA RESULT:      -7.5      1.447      1.976
REMARK  Name = 
REMARK  7 active torsions:
REMARK  status: ('A' for Active; 'I' for Inactive)
REMARK    1  A    between atoms: C_1  and  N_2
REMARK    2  A    between atoms: N_2  and  C_3
REMARK    3  A    between atoms: N_2  and  S_19
REMARK    4  A    between atoms: C_3  and  C_4
REMARK    5  A    between atoms: N_9  and  C_10
REMARK    6  A    between atoms: C_10  and  C_11
REMARK    7  A    between atoms: S_19  and  C_22
REMARK                            x       y       z     vdW  Elec       q    Type
REMARK                         _______ _______ _______ _____ _____    ______ ____
ROOT
ATOM      1  C   UNL     1       2.413   6.473  19.530  0.00  0.00    +0.000 C 
ENDROOT
BRANCH   1   2
ATOM      2  C   UNL     1       2.186   7.884  19.000  0.00  0.00    +0.000 C 
ATOM      3  O   UNL     1       2.687   8.224  17.923  0.00  0.00    +0.000 OA
ATOM      4  N   UNL     1       1.371   8.736  19.729  0.00  0.00    +0.000 N 
ATOM      5  C   UNL     1       0.993  10.033  19.157  0.00  0.00    +0.000 C 
ATOM      6  C   UNL     1      -0.446  10.440  19.559  0.00  0.00    +0.000 C 
ATOM      7  N   UNL     1      -0.749  10.335  21.009  0.00  0.00    +0.000 NA
ATOM      8  C   UNL     1      -0.370   8.979  21.469  0.00  0.00    +0.000 C 
ATOM      9  C   UNL     1       1.085   8.586  21.160  0.00  0.00    +0.000 C 
BRANCH   7  10
ATOM     10  C   UNL     1      -0.068  11.416  21.749  0.00  0.00    +0.000 C 
BRANCH  10  11
ATOM     11  C   UNL     1      -0.986  12.361  22.495  0.00  0.00    +0.000 A 
ATOM     12  C   UNL     1      -2.252  11.925  22.918  0.00  0.00    +0.000 A 
ATOM     13  C   UNL     1      -3.091  12.773  23.639  0.00  0.00    +0.000 A 
ATOM     14  C   UNL     1      -2.677  14.067  23.947  0.00  0.00    +0.000 A 
ATOM     15  C   UNL     1      -1.424  14.514  23.527  0.00  0.00    +0.000 A 
ATOM     16  C   UNL     1      -0.583  13.668  22.804  0.00  0.00    +0.000 A 
ENDBRANCH  10  11
ENDBRANCH   7  10
ENDBRANCH   1   2
BRANCH   1  18
ATOM     17  C   UNL     1       1.381   4.640  18.251  0.00  0.00    +0.000 C 
ATOM     18  N   UNL     1       2.619   5.437  18.467  0.00  0.00    +0.000 NA
BRANCH  18  19
ATOM     19  S   UNL     1       4.008   4.491  18.809  0.00  0.00    +0.000 S 
ATOM     20  O   UNL     1       4.694   5.065  19.945  0.00  0.00    +0.000 OA
ATOM     21  O   UNL     1       3.565   3.111  18.854  0.00  0.00    +0.000 OA
BRANCH  19  22
ATOM     22  C   UNL     1       5.056   4.669  17.411  0.00  0.00    +0.000 A 
ATOM     23  C   UNL     1       5.057   3.699  16.384  0.00  0.00    +0.000 A 
ATOM     24  C   UNL     1       5.968   3.717  15.301  0.00  0.00    +0.000 A 
ATOM     25  C   UNL     1       6.964   4.697  15.161  0.00  0.00    +0.000 A 
ATOM     26  C   UNL     1       7.004   5.699  16.162  0.00  0.00    +0.000 A 
ATOM     27  N   UNL     1       7.881   6.712  16.211  0.00  0.00    +0.000 NA
ATOM     28  S   UNL     1       7.521   7.582  17.577  0.00  0.00    +0.000 S 
ATOM     29  N   UNL     1       6.217   6.733  18.149  0.00  0.00    +0.000 NA
ATOM     30  C   UNL     1       6.025   5.697  17.320  0.00  0.00    +0.000 A 
ENDBRANCH  19  22
ENDBRANCH  18  19
ENDBRANCH   1  18
TORSDOF 6
ENDMDL
MODEL 6
REMARK VINA RESULT:      -7.5      1.995      2.709
REMARK  Name = 
REMARK  7 active torsions:
REMARK  status: ('A' for Active; 'I' for Inactive)
REMARK    1  A    between atoms: C_1  and  N_2
REMARK    2  A    between atoms: N_2  and  C_3
REMARK    3  A    between atoms: N_2  and  S_19
REMARK    4  A    between atoms: C_3  and  C_4
REMARK    5  A    between atoms: N_9  and  C_10
REMARK    6  A    between atoms: C_10  and  C_11
REMARK    7  A    between atoms: S_19  and  C_22
REMARK                            x       y       z     vdW  Elec       q    Type
REMARK                         _______ _______ _______ _____ _____    ______ ____
ROOT
ATOM      1  C   UNL     1       2.389   5.887  19.281  0.00  0.00    +0.000 C 
ENDROOT
BRANCH   1   2
ATOM      2  C   UNL     1       2.489   7.225  18.557  0.00  0.00    +0.000 C 
ATOM      3  O   UNL     1       3.086   7.297  17.478  0.00  0.00    +0.000 OA
ATOM      4  N   UNL     1       1.855   8.324  19.116  0.00  0.00    +0.000 N 
ATOM      5  C   UNL     1       1.784   9.576  18.356  0.00  0.00    +0.000 C 
ATOM      6  C   UNL     1       0.455  10.329  18.612  0.00  0.00    +0.000 C 
ATOM      7  N   UNL     1       0.090  10.496  20.042  0.00  0.00    +0.000 NA
ATOM      8  C   UNL     1       0.152   9.169  20.698  0.00  0.00    +0.000 C 
ATOM      9  C   UNL     1       1.497   8.440  20.534  0.00  0.00    +0.000 C 
BRANCH   7  10
ATOM     10  C   UNL     1       0.964  11.503  20.674  0.00  0.00    +0.000 C 
BRANCH  10  11
ATOM     11  C   UNL     1       0.928  12.876  20.037  0.00  0.00    +0.000 A 
ATOM     12  C   UNL     1      -0.295  13.548  19.883  0.00  0.00    +0.000 A 
ATOM     13  C   UNL     1      -0.339  14.829  19.333  0.00  0.00    +0.000 A 
ATOM     14  C   UNL     1       0.840  15.454  18.930  0.00  0.00    +0.000 A 
ATOM     15  C   UNL     1       2.060  14.794  19.071  0.00  0.00    +0.000 A 
ATOM     16  C   UNL     1       2.105  13.512  19.620  0.00  0.00    +0.000 A 
ENDBRANCH  10  11
ENDBRANCH   7  10
ENDBRANCH   1   2
BRANCH   1  18
ATOM     17  C   UNL     1       1.319   3.795  18.548  0.00  0.00    +0.000 C 
ATOM     18  N   UNL     1       2.497   4.690  18.387  0.00  0.00    +0.000 NA
BRANCH  18  19
ATOM     19  S   UNL     1       4.006   3.905  18.611  0.00  0.00    +0.000 S 
ATOM     20  O   UNL     1       4.636   4.439  19.798  0.00  0.00    +0.000 OA
ATOM     21  O   UNL     1       3.748   2.481  18.509  0.00  0.00    +0.000 OA
BRANCH  19  22
ATOM     22  C   UNL     1       4.989   4.370  17.233  0.00  0.00    +0.000 A 
ATOM     23  C   UNL     1       4.922   3.642  16.023  0.00  0.00    +0.000 A 
ATOM     24  C   UNL     1       5.781   3.885  14.925  0.00  0.00    +0.000 A 
ATOM     25  C   UNL     1       6.788   4.863  14.947  0.00  0.00    +0.000 A 
ATOM     26  C   UNL     1       6.895   5.626  16.136  0.00  0.00    +0.000 A 
ATOM     27  N   UNL     1       7.792   6.597  16.356  0.00  0.00    +0.000 NA
ATOM     28  S   UNL     1       7.515   7.158  17.892  0.00  0.00    +0.000 S 
ATOM     29  N   UNL     1       6.223   6.217  18.336  0.00  0.00    +0.000 NA
ATOM     30  C   UNL     1       5.972   5.384  17.314  0.00  0.00    +0.000 A 
ENDBRANCH  19  22
ENDBRANCH  18  19
ENDBRANCH   1  18
TORSDOF 6
ENDMDL
MODEL 7
REMARK VINA RESULT:      -7.4      3.852     10.136
REMARK  Name = 
REMARK  7 active torsions:
REMARK  status: ('A' for Active; 'I' for Inactive)
REMARK    1  A    between atoms: C_1  and  N_2
REMARK    2  A    between atoms: N_2  and  C_3
REMARK    3  A    between atoms: N_2  and  S_19
REMARK    4  A    between atoms: C_3  and  C_4
REMARK    5  A    between atoms: N_9  and  C_10
REMARK    6  A    between atoms: C_10  and  C_11
REMARK    7  A    between atoms: S_19  and  C_22
REMARK                            x       y       z     vdW  Elec       q    Type
REMARK                         _______ _______ _______ _____ _____    ______ ____
ROOT
ATOM      1  C   UNL     1       0.771   9.945  18.796  0.00  0.00    +0.000 C 
ENDROOT
BRANCH   1   2
ATOM      2  C   UNL     1       1.156   9.015  19.941  0.00  0.00    +0.000 C 
ATOM      3  O   UNL     1       0.819   9.292  21.097  0.00  0.00    +0.000 OA
ATOM      4  N   UNL     1       1.837   7.846  19.639  0.00  0.00    +0.000 N 
ATOM      5  C   UNL     1       2.062   6.852  20.693  0.00  0.00    +0.000 C 
ATOM      6  C   UNL     1       1.998   5.406  20.142  0.00  0.00    +0.000 C 
ATOM      7  N   UNL     1       2.814   5.158  18.927  0.00  0.00    +0.000 NA
ATOM      8  C   UNL     1       2.475   6.188  17.918  0.00  0.00    +0.000 C 
ATOM      9  C   UNL     1       2.619   7.637  18.415  0.00  0.00    +0.000 C 
BRANCH   7  10
ATOM     10  C   UNL     1       4.247   5.128  19.275  0.00  0.00    +0.000 C 
BRANCH  10  11
ATOM     11  C   UNL     1       5.194   5.051  18.096  0.00  0.00    +0.000 A 
ATOM     12  C   UNL     1       5.046   4.032  17.141  0.00  0.00    +0.000 A 
ATOM     13  C   UNL     1       5.887   3.972  16.030  0.00  0.00    +0.000 A 
ATOM     14  C   UNL     1       6.886   4.928  15.860  0.00  0.00    +0.000 A 
ATOM     15  C   UNL     1       7.048   5.941  16.805  0.00  0.00    +0.000 A 
ATOM     16  C   UNL     1       6.208   6.002  17.918  0.00  0.00    +0.000 A 
ENDBRANCH  10  11
ENDBRANCH   7  10
ENDBRANCH   1   2
BRANCH   1  18
ATOM     17  C   UNL     1      -1.433  10.293  17.756  0.00  0.00    +0.000 C 
ATOM     18  N   UNL     1      -0.578  10.580  18.939  0.00  0.00    +0.000 NA
BRANCH  18  19
ATOM     19  S   UNL     1      -0.422  12.250  19.301  0.00  0.00    +0.000 S 
ATOM     20  O   UNL     1       0.961  12.531  19.613  0.00  0.00    +0.000 OA
ATOM     21  O   UNL     1      -1.080  12.966  18.225  0.00  0.00    +0.000 OA
BRANCH  19  22
ATOM     22  C   UNL     1      -1.359  12.505  20.764  0.00  0.00    +0.000 A 
ATOM     23  C   UNL     1      -0.722  12.575  22.023  0.00  0.00    +0.000 A 
ATOM     24  C   UNL     1      -1.430  12.646  23.247  0.00  0.00    +0.000 A 
ATOM     25  C   UNL     1      -2.832  12.640  23.317  0.00  0.00    +0.000 A 
ATOM     26  C   UNL     1      -3.522  12.577  22.080  0.00  0.00    +0.000 A 
ATOM     27  N   UNL     1      -4.854  12.554  21.936  0.00  0.00    +0.000 NA
ATOM     28  S   UNL     1      -5.151  12.457  20.307  0.00  0.00    +0.000 S 
ATOM     29  N   UNL     1      -3.604  12.474  19.709  0.00  0.00    +0.000 NA
ATOM     30  C   UNL     1      -2.775  12.513  20.763  0.00  0.00    +0.000 A 
ENDBRANCH  19  22
ENDBRANCH  18  19
ENDBRANCH   1  18
TORSDOF 6
ENDMDL
MODEL 8
REMARK VINA RESULT:      -7.4      0.863      1.015
REMARK  Name = 
REMARK  7 active torsions:
REMARK  status: ('A' for Active; 'I' for Inactive)
REMARK    1  A    between atoms: C_1  and  N_2
REMARK    2  A    between atoms: N_2  and  C_3
REMARK    3  A    between atoms: N_2  and  S_19
REMARK    4  A    between atoms: C_3  and  C_4
REMARK    5  A    between atoms: N_9  and  C_10
REMARK    6  A    between atoms: C_10  and  C_11
REMARK    7  A    between atoms: S_19  and  C_22
REMARK                            x       y       z     vdW  Elec       q    Type
REMARK                         _______ _______ _______ _____ _____    ______ ____
ROOT
ATOM      1  C   UNL     1       2.589   6.558  19.077  0.00  0.00    +0.000 C 
ENDROOT
BRANCH   1   2
ATOM      2  C   UNL     1       2.298   7.905  18.426  0.00  0.00    +0.000 C 
ATOM      3  O   UNL     1       2.776   8.167  17.317  0.00  0.00    +0.000 OA
ATOM      4  N   UNL     1       1.453   8.785  19.084  0.00  0.00    +0.000 N 
ATOM      5  C   UNL     1       1.016  10.007  18.402  0.00  0.00    +0.000 C 
ATOM      6  C   UNL     1      -0.436  10.389  18.782  0.00  0.00    +0.000 C 
ATOM      7  N   UNL     1      -0.723  10.403  20.240  0.00  0.00    +0.000 NA
ATOM      8  C   UNL     1      -0.284   9.111  20.815  0.00  0.00    +0.000 C 
ATOM      9  C   UNL     1       1.184   8.752  20.526  0.00  0.00    +0.000 C 
BRANCH   7  10
ATOM     10  C   UNL     1      -0.084  11.573  20.872  0.00  0.00    +0.000 C 
BRANCH  10  11
ATOM     11  C   UNL     1      -1.029  12.512  21.590  0.00  0.00    +0.000 A 
ATOM     12  C   UNL     1      -2.322  12.729  21.087  0.00  0.00    +0.000 A 
ATOM     13  C   UNL     1      -3.216  13.561  21.760  0.00  0.00    +0.000 A 
ATOM     14  C   UNL     1      -2.829  14.188  22.943  0.00  0.00    +0.000 A 
ATOM     15  C   UNL     1      -1.545  13.986  23.449  0.00  0.00    +0.000 A 
ATOM     16  C   UNL     1      -0.649  13.155  22.776  0.00  0.00    +0.000 A 
ENDBRANCH  10  11
ENDBRANCH   7  10
ENDBRANCH   1   2
BRANCH   1  18
ATOM     17  C   UNL     1       1.265   4.929  17.791  0.00  0.00    +0.000 C 
ATOM     18  N   UNL     1       2.635   5.404  18.123  0.00  0.00    +0.000 NA
BRANCH  18  19
ATOM     19  S   UNL     1       3.677   4.175  18.713  0.00  0.00    +0.000 S 
ATOM     20  O   UNL     1       3.532   4.094  20.149  0.00  0.00    +0.000 OA
ATOM     21  O   UNL     1       3.434   3.003  17.894  0.00  0.00    +0.000 OA
BRANCH  19  22
ATOM     22  C   UNL     1       5.306   4.735  18.375  0.00  0.00    +0.000 A 
ATOM     23  C   UNL     1       6.124   5.239  19.412  0.00  0.00    +0.000 A 
ATOM     24  C   UNL     1       7.391   5.825  19.184  0.00  0.00    +0.000 A 
ATOM     25  C   UNL     1       7.943   5.971  17.901  0.00  0.00    +0.000 A 
ATOM     26  C   UNL     1       7.166   5.476  16.824  0.00  0.00    +0.000 A 
ATOM     27  N   UNL     1       7.513   5.528  15.530  0.00  0.00    +0.000 NA
ATOM     28  S   UNL     1       6.265   4.842  14.679  0.00  0.00    +0.000 S 
ATOM     29  N   UNL     1       5.244   4.420  15.915  0.00  0.00    +0.000 NA
ATOM     30  C   UNL     1       5.813   4.836  17.057  0.00  0.00    +0.000 A 
ENDBRANCH  19  22
ENDBRANCH  18  19
ENDBRANCH   1  18
TORSDOF 6
ENDMDL
MODEL 9
REMARK VINA RESULT:      -7.3      4.863     10.583
REMARK  Name = 
REMARK  7 active torsions:
REMARK  status: ('A' for Active; 'I' for Inactive)
REMARK    1  A    between atoms: C_1  and  N_2
REMARK    2  A    between atoms: N_2  and  C_3
REMARK    3  A    between atoms: N_2  and  S_19
REMARK    4  A    between atoms: C_3  and  C_4
REMARK    5  A    between atoms: N_9  and  C_10
REMARK    6  A    between atoms: C_10  and  C_11
REMARK    7  A    between atoms: S_19  and  C_22
REMARK                            x       y       z     vdW  Elec       q    Type
REMARK                         _______ _______ _______ _____ _____    ______ ____
ROOT
ATOM      1  C   UNL     1       0.926  11.255  20.943  0.00  0.00    +0.000 C 
ENDROOT
BRANCH   1   2
ATOM      2  C   UNL     1       1.080  10.842  19.484  0.00  0.00    +0.000 C 
ATOM      3  O   UNL     1       0.939  11.683  18.589  0.00  0.00    +0.000 OA
ATOM      4  N   UNL     1       1.429   9.530  19.205  0.00  0.00    +0.000 N 
ATOM      5  C   UNL     1       1.757   9.150  17.827  0.00  0.00    +0.000 C 
ATOM      6  C   UNL     1       2.871   8.076  17.777  0.00  0.00    +0.000 C 
ATOM      7  N   UNL     1       2.659   6.905  18.666  0.00  0.00    +0.000 NA
ATOM      8  C   UNL     1       2.381   7.402  20.033  0.00  0.00    +0.000 C 
ATOM      9  C   UNL     1       1.216   8.404  20.122  0.00  0.00    +0.000 C 
BRANCH   7  10
ATOM     10  C   UNL     1       1.589   6.045  18.126  0.00  0.00    +0.000 C 
BRANCH  10  11
ATOM     11  C   UNL     1       1.757   4.565  18.394  0.00  0.00    +0.000 A 
ATOM     12  C   UNL     1       2.460   3.761  17.481  0.00  0.00    +0.000 A 
ATOM     13  C   UNL     1       2.655   2.404  17.734  0.00  0.00    +0.000 A 
ATOM     14  C   UNL     1       2.151   1.833  18.901  0.00  0.00    +0.000 A 
ATOM     15  C   UNL     1       1.446   2.619  19.811  0.00  0.00    +0.000 A 
ATOM     16  C   UNL     1       1.248   3.977  19.560  0.00  0.00    +0.000 A 
ENDBRANCH  10  11
ENDBRANCH   7  10
ENDBRANCH   1   2
BRANCH   1  18
ATOM     17  C   UNL     1       1.089  13.700  21.178  0.00  0.00    +0.000 C 
ATOM     18  N   UNL     1       0.169  12.531  21.149  0.00  0.00    +0.000 NA
BRANCH  18  19
ATOM     19  S   UNL     1      -0.851  12.411  22.523  0.00  0.00    +0.000 S 
ATOM     20  O   UNL     1      -0.680  11.103  23.116  0.00  0.00    +0.000 OA
ATOM     21  O   UNL     1      -0.614  13.601  23.317  0.00  0.00    +0.000 OA
BRANCH  19  22
ATOM     22  C   UNL     1      -2.491  12.502  21.903  0.00  0.00    +0.000 A 
ATOM     23  C   UNL     1      -2.729  12.748  20.532  0.00  0.00    +0.000 A 
ATOM     24  C   UNL     1      -4.021  12.963  19.996  0.00  0.00    +0.000 A 
ATOM     25  C   UNL     1      -5.182  12.964  20.785  0.00  0.00    +0.000 A 
ATOM     26  C   UNL     1      -5.001  12.716  22.168  0.00  0.00    +0.000 A 
ATOM     27  N   UNL     1      -5.978  12.684  23.085  0.00  0.00    +0.000 NA
ATOM     28  S   UNL     1      -5.248  12.379  24.543  0.00  0.00    +0.000 S 
ATOM     29  N   UNL     1      -3.664  12.243  24.073  0.00  0.00    +0.000 NA
ATOM     30  C   UNL     1      -3.623  12.472  22.752  0.00  0.00    +0.000 A 
ENDBRANCH  19  22
ENDBRANCH  18  19
ENDBRANCH   1  18
TORSDOF 6
ENDMDL
