MODEL 1
REMARK VINA RESULT:      -8.7      0.000      0.000
REMARK  Name = 
REMARK  7 active torsions:
REMARK  status: ('A' for Active; 'I' for Inactive)
REMARK    1  A    between atoms: C_1  and  O_2
REMARK    2  A    between atoms: O_2  and  C_3
REMARK    3  A    between atoms: N_11  and  C_12
REMARK    4  A    between atoms: C_12  and  C_13
REMARK    5  A    between atoms: C_13  and  N_14
REMARK    6  A    between atoms: N_20  and  C_21
REMARK    7  A    between atoms: C_24  and  C_25
REMARK                            x       y       z     vdW  Elec       q    Type
REMARK                         _______ _______ _______ _____ _____    ______ ____
ROOT
ATOM      1  N   UNL     1       2.210   3.877  19.073  0.00  0.00    +0.000 NA
ATOM      2  C   UNL     1       1.613   4.687  20.157  0.00  0.00    +0.000 C 
ATOM      3  C   UNL     1       2.340   6.018  20.358  0.00  0.00    +0.000 C 
ATOM      4  N   UNL     1       2.191   6.842  19.157  0.00  0.00    +0.000 N 
ATOM      5  C   UNL     1       1.758   8.136  19.369  0.00  0.00    +0.000 C 
ATOM      6  O   UNL     1       1.524   8.509  20.517  0.00  0.00    +0.000 OA
ATOM      7  N   UNL     1       1.569   8.941  18.260  0.00  0.00    +0.000 N 
ATOM      8  C   UNL     1       2.659   6.184  17.927  0.00  0.00    +0.000 C 
ATOM      9  C   UNL     1       2.203   4.694  17.828  0.00  0.00    +0.000 C 
ATOM     10  H   UNL     1       1.424   8.473  17.381  0.00  0.00    +0.000 HD
ENDROOT
BRANCH   7  11
ATOM     11  C   UNL     1       1.060  10.266  18.367  0.00  0.00    +0.000 A 
ATOM     12  C   UNL     1       1.896  11.382  18.482  0.00  0.00    +0.000 A 
ATOM     13  C   UNL     1       1.386  12.640  18.802  0.00  0.00    +0.000 A 
ATOM     14  C   UNL     1       0.016  12.821  18.964  0.00  0.00    +0.000 A 
ATOM     15  C   UNL     1      -0.519  14.151  19.405  0.00  0.00    +0.000 C 
ATOM     16  C   UNL     1      -0.839  11.736  18.724  0.00  0.00    +0.000 A 
ATOM     17  C   UNL     1      -0.320  10.465  18.422  0.00  0.00    +0.000 A 
ENDBRANCH   7  11
BRANCH   1  18
ATOM     18  C   UNL     1       3.559   3.369  19.416  0.00  0.00    +0.000 C 
BRANCH  18  19
ATOM     19  C   UNL     1       4.465   3.114  18.183  0.00  0.00    +0.000 C 
BRANCH  19  28
ATOM     20  C   UNL     1       5.949   4.165  14.229  0.00  0.00    +0.000 A 
ATOM     21  C   UNL     1       7.045   5.019  14.181  0.00  0.00    +0.000 A 
ATOM     22  N   UNL     1       7.598   5.602  15.268  0.00  0.00    +0.000 NA
ATOM     23  C   UNL     1       7.032   5.305  16.461  0.00  0.00    +0.000 A 
ATOM     24  C   UNL     1       7.586   6.007  17.607  0.00  0.00    +0.000 A 
ATOM     25  C   UNL     1       7.067   5.812  18.822  0.00  0.00    +0.000 A 
ATOM     26  C   UNL     1       5.954   4.855  19.054  0.00  0.00    +0.000 A 
ATOM     27  O   UNL     1       5.529   4.716  20.198  0.00  0.00    +0.000 OA
ATOM     28  N   UNL     1       5.463   4.162  17.948  0.00  0.00    +0.000 N 
ATOM     29  C   UNL     1       5.962   4.419  16.635  0.00  0.00    +0.000 A 
ATOM     30  C   UNL     1       5.424   3.847  15.481  0.00  0.00    +0.000 A 
BRANCH  20  32
ATOM     31  C   UNL     1       6.123   3.279  12.040  0.00  0.00    +0.000 C 
ATOM     32  O   UNL     1       5.310   3.599  13.163  0.00  0.00    +0.000 OA
ENDBRANCH  20  32
ENDBRANCH  19  28
ENDBRANCH  18  19
ENDBRANCH   1  18
TORSDOF 5
ENDMDL
MODEL 2
REMARK VINA RESULT:      -8.5      3.870      7.206
REMARK  Name = 
REMARK  7 active torsions:
REMARK  status: ('A' for Active; 'I' for Inactive)
REMARK    1  A    between atoms: C_1  and  O_2
REMARK    2  A    between atoms: O_2  and  C_3
REMARK    3  A    between atoms: N_11  and  C_12
REMARK    4  A    between atoms: C_12  and  C_13
REMARK    5  A    between atoms: C_13  and  N_14
REMARK    6  A    between atoms: N_20  and  C_21
REMARK    7  A    between atoms: C_24  and  C_25
REMARK                            x       y       z     vdW  Elec       q    Type
REMARK                         _______ _______ _______ _____ _____    ______ ____
ROOT
ATOM      1  N   UNL     1       6.792   4.684  16.997  0.00  0.00    +0.000 NA
ATOM      2  C   UNL     1       6.625   5.958  16.264  0.00  0.00    +0.000 C 
ATOM      3  C   UNL     1       6.312   7.130  17.195  0.00  0.00    +0.000 C 
ATOM      4  N   UNL     1       7.451   7.364  18.086  0.00  0.00    +0.000 N 
ATOM      5  C   UNL     1       7.900   8.667  18.153  0.00  0.00    +0.000 C 
ATOM      6  O   UNL     1       7.340   9.530  17.478  0.00  0.00    +0.000 OA
ATOM      7  N   UNL     1       8.996   8.929  18.954  0.00  0.00    +0.000 N 
ATOM      8  C   UNL     1       7.843   6.180  18.867  0.00  0.00    +0.000 C 
ATOM      9  C   UNL     1       7.865   4.873  18.012  0.00  0.00    +0.000 C 
ATOM     10  H   UNL     1       9.599   8.153  19.164  0.00  0.00    +0.000 HD
ENDROOT
BRANCH   7  11
ATOM     11  C   UNL     1       9.578  10.226  19.037  0.00  0.00    +0.000 A 
ATOM     12  C   UNL     1      10.120  10.876  17.922  0.00  0.00    +0.000 A 
ATOM     13  C   UNL     1      10.874  12.041  18.057  0.00  0.00    +0.000 A 
ATOM     14  C   UNL     1      11.061  12.614  19.312  0.00  0.00    +0.000 A 
ATOM     15  C   UNL     1      11.954  13.808  19.466  0.00  0.00    +0.000 C 
ATOM     16  C   UNL     1      10.415  12.041  20.416  0.00  0.00    +0.000 A 
ATOM     17  C   UNL     1       9.673  10.855  20.279  0.00  0.00    +0.000 A 
ENDBRANCH   7  11
BRANCH   1  18
ATOM     18  C   UNL     1       5.525   4.194  17.588  0.00  0.00    +0.000 C 
BRANCH  18  19
ATOM     19  C   UNL     1       5.527   4.161  19.139  0.00  0.00    +0.000 C 
BRANCH  19  28
ATOM     20  C   UNL     1       2.340   7.090  19.598  0.00  0.00    +0.000 A 
ATOM     21  C   UNL     1       1.250   6.708  20.370  0.00  0.00    +0.000 A 
ATOM     22  N   UNL     1       1.088   5.471  20.891  0.00  0.00    +0.000 NA
ATOM     23  C   UNL     1       2.071   4.579  20.636  0.00  0.00    +0.000 A 
ATOM     24  C   UNL     1       1.838   3.233  21.133  0.00  0.00    +0.000 A 
ATOM     25  C   UNL     1       2.734   2.270  20.894  0.00  0.00    +0.000 A 
ATOM     26  C   UNL     1       4.000   2.542  20.165  0.00  0.00    +0.000 A 
ATOM     27  O   UNL     1       4.785   1.614  19.988  0.00  0.00    +0.000 OA
ATOM     28  N   UNL     1       4.223   3.849  19.732  0.00  0.00    +0.000 N 
ATOM     29  C   UNL     1       3.238   4.866  19.917  0.00  0.00    +0.000 A 
ATOM     30  C   UNL     1       3.356   6.155  19.397  0.00  0.00    +0.000 A 
BRANCH  20  32
ATOM     31  C   UNL     1       2.441   8.311  17.572  0.00  0.00    +0.000 C 
ATOM     32  O   UNL     1       2.527   8.300  18.993  0.00  0.00    +0.000 OA
ENDBRANCH  20  32
ENDBRANCH  19  28
ENDBRANCH  18  19
ENDBRANCH   1  18
TORSDOF 5
ENDMDL
MODEL 3
REMARK VINA RESULT:      -8.4      0.870      1.216
REMARK  Name = 
REMARK  7 active torsions:
REMARK  status: ('A' for Active; 'I' for Inactive)
REMARK    1  A    between atoms: C_1  and  O_2
REMARK    2  A    between atoms: O_2  and  C_3
REMARK    3  A    between atoms: N_11  and  C_12
REMARK    4  A    between atoms: C_12  and  C_13
REMARK    5  A    between atoms: C_13  and  N_14
REMARK    6  A    between atoms: N_20  and  C_21
REMARK    7  A    between atoms: C_24  and  C_25
REMARK                            x       y       z     vdW  Elec       q    Type
REMARK                         _______ _______ _______ _____ _____    ______ ____
ROOT
ATOM      1  N   UNL     1       2.318   4.208  18.921  0.00  0.00    +0.000 NA
ATOM      2  C   UNL     1       1.512   4.637  20.084  0.00  0.00    +0.000 C 
ATOM      3  C   UNL     1       2.065   5.903  20.741  0.00  0.00    +0.000 C 
ATOM      4  N   UNL     1       1.977   7.020  19.798  0.00  0.00    +0.000 N 
ATOM      5  C   UNL     1       1.388   8.170  20.286  0.00  0.00    +0.000 C 
ATOM      6  O   UNL     1       0.978   8.188  21.446  0.00  0.00    +0.000 OA
ATOM      7  N   UNL     1       1.252   9.240  19.421  0.00  0.00    +0.000 N 
ATOM      8  C   UNL     1       2.657   6.769  18.519  0.00  0.00    +0.000 C 
ATOM      9  C   UNL     1       2.376   5.339  17.956  0.00  0.00    +0.000 C 
ATOM     10  H   UNL     1       1.264   9.030  18.437  0.00  0.00    +0.000 HD
ENDROOT
BRANCH   7  11
ATOM     11  C   UNL     1       0.597  10.443  19.806  0.00  0.00    +0.000 A 
ATOM     12  C   UNL     1      -0.784  10.624  19.662  0.00  0.00    +0.000 A 
ATOM     13  C   UNL     1      -1.374  11.874  19.839  0.00  0.00    +0.000 A 
ATOM     14  C   UNL     1      -0.601  12.969  20.217  0.00  0.00    +0.000 A 
ATOM     15  C   UNL     1      -1.221  14.330  20.308  0.00  0.00    +0.000 C 
ATOM     16  C   UNL     1       0.760  12.769  20.487  0.00  0.00    +0.000 A 
ATOM     17  C   UNL     1       1.355  11.511  20.288  0.00  0.00    +0.000 A 
ENDBRANCH   7  11
BRANCH   1  18
ATOM     18  C   UNL     1       3.661   3.715  19.307  0.00  0.00    +0.000 C 
BRANCH  18  19
ATOM     19  C   UNL     1       4.570   3.361  18.100  0.00  0.00    +0.000 C 
BRANCH  19  28
ATOM     20  C   UNL     1       6.030   4.061  14.060  0.00  0.00    +0.000 A 
ATOM     21  C   UNL     1       7.111   4.925  13.929  0.00  0.00    +0.000 A 
ATOM     22  N   UNL     1       7.655   5.616  14.955  0.00  0.00    +0.000 NA
ATOM     23  C   UNL     1       7.097   5.424  16.172  0.00  0.00    +0.000 A 
ATOM     24  C   UNL     1       7.640   6.239  17.245  0.00  0.00    +0.000 A 
ATOM     25  C   UNL     1       7.126   6.150  18.475  0.00  0.00    +0.000 A 
ATOM     26  C   UNL     1       6.029   5.201  18.799  0.00  0.00    +0.000 A 
ATOM     27  O   UNL     1       5.608   5.163  19.953  0.00  0.00    +0.000 OA
ATOM     28  N   UNL     1       5.549   4.399  17.764  0.00  0.00    +0.000 N 
ATOM     29  C   UNL     1       6.042   4.540  16.432  0.00  0.00    +0.000 A 
ATOM     30  C   UNL     1       5.512   3.853  15.339  0.00  0.00    +0.000 A 
BRANCH  20  32
ATOM     31  C   UNL     1       6.235   2.863  12.028  0.00  0.00    +0.000 C 
ATOM     32  O   UNL     1       5.399   3.387  13.054  0.00  0.00    +0.000 OA
ENDBRANCH  20  32
ENDBRANCH  19  28
ENDBRANCH  18  19
ENDBRANCH   1  18
TORSDOF 5
ENDMDL
MODEL 4
REMARK VINA RESULT:      -8.4      3.689      7.094
REMARK  Name = 
REMARK  7 active torsions:
REMARK  status: ('A' for Active; 'I' for Inactive)
REMARK    1  A    between atoms: C_1  and  O_2
REMARK    2  A    between atoms: O_2  and  C_3
REMARK    3  A    between atoms: N_11  and  C_12
REMARK    4  A    between atoms: C_12  and  C_13
REMARK    5  A    between atoms: C_13  and  N_14
REMARK    6  A    between atoms: N_20  and  C_21
REMARK    7  A    between atoms: C_24  and  C_25
REMARK                            x       y       z     vdW  Elec       q    Type
REMARK                         _______ _______ _______ _____ _____    ______ ____
ROOT
ATOM      1  N   UNL     1       6.849   4.437  16.733  0.00  0.00    +0.000 NA
ATOM      2  C   UNL     1       6.708   5.717  16.006  0.00  0.00    +0.000 C 
ATOM      3  C   UNL     1       6.298   6.867  16.926  0.00  0.00    +0.000 C 
ATOM      4  N   UNL     1       7.360   7.113  17.904  0.00  0.00    +0.000 N 
ATOM      5  C   UNL     1       7.773   8.426  18.021  0.00  0.00    +0.000 C 
ATOM      6  O   UNL     1       7.245   9.285  17.318  0.00  0.00    +0.000 OA
ATOM      7  N   UNL     1       8.798   8.700  18.908  0.00  0.00    +0.000 N 
ATOM      8  C   UNL     1       7.720   5.928  18.696  0.00  0.00    +0.000 C 
ATOM      9  C   UNL     1       7.837   4.634  17.829  0.00  0.00    +0.000 C 
ATOM     10  H   UNL     1       9.402   7.934  19.152  0.00  0.00    +0.000 HD
ENDROOT
BRANCH   7  11
ATOM     11  C   UNL     1       9.342  10.008  19.051  0.00  0.00    +0.000 A 
ATOM     12  C   UNL     1       9.875  10.720  17.971  0.00  0.00    +0.000 A 
ATOM     13  C   UNL     1      10.594  11.899  18.163  0.00  0.00    +0.000 A 
ATOM     14  C   UNL     1      10.753  12.424  19.443  0.00  0.00    +0.000 A 
ATOM     15  C   UNL     1      11.610  13.635  19.657  0.00  0.00    +0.000 C 
ATOM     16  C   UNL     1      10.113  11.786  20.515  0.00  0.00    +0.000 A 
ATOM     17  C   UNL     1       9.407  10.586  20.320  0.00  0.00    +0.000 A 
ENDBRANCH   7  11
BRANCH   1  18
ATOM     18  C   UNL     1       5.553   3.909  17.219  0.00  0.00    +0.000 C 
BRANCH  18  19
ATOM     19  C   UNL     1       4.382   4.922  17.110  0.00  0.00    +0.000 C 
BRANCH  19  28
ATOM     20  C   UNL     1       2.250   8.508  18.349  0.00  0.00    +0.000 A 
ATOM     21  C   UNL     1       1.665   8.481  19.609  0.00  0.00    +0.000 A 
ATOM     22  N   UNL     1       1.641   7.392  20.409  0.00  0.00    +0.000 NA
ATOM     23  C   UNL     1       2.243   6.280  19.927  0.00  0.00    +0.000 A 
ATOM     24  C   UNL     1       2.133   5.097  20.765  0.00  0.00    +0.000 A 
ATOM     25  C   UNL     1       2.660   3.940  20.355  0.00  0.00    +0.000 A 
ATOM     26  C   UNL     1       3.403   3.828  19.073  0.00  0.00    +0.000 A 
ATOM     27  O   UNL     1       3.871   2.736  18.760  0.00  0.00    +0.000 OA
ATOM     28  N   UNL     1       3.532   4.984  18.303  0.00  0.00    +0.000 N 
ATOM     29  C   UNL     1       2.909   6.206  18.698  0.00  0.00    +0.000 A 
ATOM     30  C   UNL     1       2.902   7.356  17.907  0.00  0.00    +0.000 A 
BRANCH  20  32
ATOM     31  C   UNL     1       2.021  10.843  18.033  0.00  0.00    +0.000 C 
ATOM     32  O   UNL     1       2.250   9.555  17.472  0.00  0.00    +0.000 OA
ENDBRANCH  20  32
ENDBRANCH  19  28
ENDBRANCH  18  19
ENDBRANCH   1  18
TORSDOF 5
ENDMDL
MODEL 5
REMARK VINA RESULT:      -8.4      3.501      9.934
REMARK  Name = 
REMARK  7 active torsions:
REMARK  status: ('A' for Active; 'I' for Inactive)
REMARK    1  A    between atoms: C_1  and  O_2
REMARK    2  A    between atoms: O_2  and  C_3
REMARK    3  A    between atoms: N_11  and  C_12
REMARK    4  A    between atoms: C_12  and  C_13
REMARK    5  A    between atoms: C_13  and  N_14
REMARK    6  A    between atoms: N_20  and  C_21
REMARK    7  A    between atoms: C_24  and  C_25
REMARK                            x       y       z     vdW  Elec       q    Type
REMARK                         _______ _______ _______ _____ _____    ______ ____
ROOT
ATOM      1  N   UNL     1      -0.735   9.852  20.572  0.00  0.00    +0.000 NA
ATOM      2  C   UNL     1      -0.466   9.849  19.118  0.00  0.00    +0.000 C 
ATOM      3  C   UNL     1       1.029   9.920  18.801  0.00  0.00    +0.000 C 
ATOM      4  N   UNL     1       1.692   8.713  19.301  0.00  0.00    +0.000 N 
ATOM      5  C   UNL     1       2.501   8.056  18.396  0.00  0.00    +0.000 C 
ATOM      6  O   UNL     1       2.611   8.504  17.256  0.00  0.00    +0.000 OA
ATOM      7  N   UNL     1       3.120   6.892  18.813  0.00  0.00    +0.000 N 
ATOM      8  C   UNL     1       1.484   8.477  20.738  0.00  0.00    +0.000 C 
ATOM      9  C   UNL     1       0.004   8.711  21.181  0.00  0.00    +0.000 C 
ATOM     10  H   UNL     1       2.703   6.413  19.592  0.00  0.00    +0.000 HD
ENDROOT
BRANCH   7  11
ATOM     11  C   UNL     1       3.918   6.105  17.936  0.00  0.00    +0.000 A 
ATOM     12  C   UNL     1       5.072   6.606  17.321  0.00  0.00    +0.000 A 
ATOM     13  C   UNL     1       5.716   5.902  16.305  0.00  0.00    +0.000 A 
ATOM     14  C   UNL     1       5.248   4.650  15.912  0.00  0.00    +0.000 A 
ATOM     15  C   UNL     1       5.881   3.942  14.753  0.00  0.00    +0.000 C 
ATOM     16  C   UNL     1       4.171   4.087  16.610  0.00  0.00    +0.000 A 
ATOM     17  C   UNL     1       3.511   4.808  17.620  0.00  0.00    +0.000 A 
ENDBRANCH   7  11
BRANCH   1  18
ATOM     18  C   UNL     1      -0.412  11.149  21.211  0.00  0.00    +0.000 C 
BRANCH  18  19
ATOM     19  C   UNL     1      -1.059  12.372  20.509  0.00  0.00    +0.000 C 
BRANCH  19  28
ATOM     20  C   UNL     1      -3.417  11.415  16.978  0.00  0.00    +0.000 A 
ATOM     21  C   UNL     1      -4.785  11.646  17.062  0.00  0.00    +0.000 A 
ATOM     22  N   UNL     1      -5.417  12.049  18.186  0.00  0.00    +0.000 NA
ATOM     23  C   UNL     1      -4.639  12.242  19.275  0.00  0.00    +0.000 A 
ATOM     24  C   UNL     1      -5.348  12.594  20.495  0.00  0.00    +0.000 A 
ATOM     25  C   UNL     1      -4.669  12.764  21.634  0.00  0.00    +0.000 A 
ATOM     26  C   UNL     1      -3.189  12.647  21.689  0.00  0.00    +0.000 A 
ATOM     27  O   UNL     1      -2.627  12.826  22.766  0.00  0.00    +0.000 OA
ATOM     28  N   UNL     1      -2.525  12.349  20.500  0.00  0.00    +0.000 N 
ATOM     29  C   UNL     1      -3.247  12.093  19.295  0.00  0.00    +0.000 A 
ATOM     30  C   UNL     1      -2.642  11.670  18.110  0.00  0.00    +0.000 A 
BRANCH  20  32
ATOM     31  C   UNL     1      -3.519  10.351  14.866  0.00  0.00    +0.000 C 
ATOM     32  O   UNL     1      -2.734  10.946  15.893  0.00  0.00    +0.000 OA
ENDBRANCH  20  32
ENDBRANCH  19  28
ENDBRANCH  18  19
ENDBRANCH   1  18
TORSDOF 5
ENDMDL
MODEL 6
REMARK VINA RESULT:      -8.4      4.249     10.974
REMARK  Name = 
REMARK  7 active torsions:
REMARK  status: ('A' for Active; 'I' for Inactive)
REMARK    1  A    between atoms: C_1  and  O_2
REMARK    2  A    between atoms: O_2  and  C_3
REMARK    3  A    between atoms: N_11  and  C_12
REMARK    4  A    between atoms: C_12  and  C_13
REMARK    5  A    between atoms: C_13  and  N_14
REMARK    6  A    between atoms: N_20  and  C_21
REMARK    7  A    between atoms: C_24  and  C_25
REMARK                            x       y       z     vdW  Elec       q    Type
REMARK                         _______ _______ _______ _____ _____    ______ ____
ROOT
ATOM      1  N   UNL     1      -1.001  11.026  20.691  0.00  0.00    +0.000 NA
ATOM      2  C   UNL     1      -0.877  10.850  19.228  0.00  0.00    +0.000 C 
ATOM      3  C   UNL     1       0.581  10.765  18.773  0.00  0.00    +0.000 C 
ATOM      4  N   UNL     1       1.202   9.567  19.343  0.00  0.00    +0.000 N 
ATOM      5  C   UNL     1       1.869   8.755  18.448  0.00  0.00    +0.000 C 
ATOM      6  O   UNL     1       1.900   9.071  17.260  0.00  0.00    +0.000 OA
ATOM      7  N   UNL     1       2.441   7.594  18.936  0.00  0.00    +0.000 N 
ATOM      8  C   UNL     1       1.118   9.500  20.810  0.00  0.00    +0.000 C 
ATOM      9  C   UNL     1      -0.290   9.899  21.354  0.00  0.00    +0.000 C 
ATOM     10  H   UNL     1       2.069   7.234  19.797  0.00  0.00    +0.000 HD
ENDROOT
BRANCH   7  11
ATOM     11  C   UNL     1       3.091   6.657  18.083  0.00  0.00    +0.000 A 
ATOM     12  C   UNL     1       2.682   5.322  17.988  0.00  0.00    +0.000 A 
ATOM     13  C   UNL     1       3.455   4.373  17.322  0.00  0.00    +0.000 A 
ATOM     14  C   UNL     1       4.635   4.749  16.687  0.00  0.00    +0.000 A 
ATOM     15  C   UNL     1       5.514   3.709  16.058  0.00  0.00    +0.000 C 
ATOM     16  C   UNL     1       4.986   6.106  16.668  0.00  0.00    +0.000 A 
ATOM     17  C   UNL     1       4.215   7.057  17.359  0.00  0.00    +0.000 A 
ENDBRANCH   7  11
BRANCH   1  18
ATOM     18  C   UNL     1      -0.526  12.352  21.150  0.00  0.00    +0.000 C 
BRANCH  18  19
ATOM     19  C   UNL     1      -1.614  13.457  21.112  0.00  0.00    +0.000 C 
BRANCH  19  28
ATOM     20  C   UNL     1      -5.558  12.089  19.882  0.00  0.00    +0.000 A 
ATOM     21  C   UNL     1      -6.562  12.136  20.842  0.00  0.00    +0.000 A 
ATOM     22  N   UNL     1      -6.359  12.484  22.132  0.00  0.00    +0.000 NA
ATOM     23  C   UNL     1      -5.092  12.811  22.473  0.00  0.00    +0.000 A 
ATOM     24  C   UNL     1      -4.878  13.100  23.881  0.00  0.00    +0.000 A 
ATOM     25  C   UNL     1      -3.651  13.393  24.322  0.00  0.00    +0.000 A 
ATOM     26  C   UNL     1      -2.487  13.478  23.403  0.00  0.00    +0.000 A 
ATOM     27  O   UNL     1      -1.388  13.762  23.872  0.00  0.00    +0.000 OA
ATOM     28  N   UNL     1      -2.721  13.237  22.049  0.00  0.00    +0.000 N 
ATOM     29  C   UNL     1      -4.013  12.851  21.581  0.00  0.00    +0.000 A 
ATOM     30  C   UNL     1      -4.274  12.479  20.261  0.00  0.00    +0.000 A 
BRANCH  20  32
ATOM     31  C   UNL     1      -4.500  11.241  17.941  0.00  0.00    +0.000 C 
ATOM     32  O   UNL     1      -5.690  11.684  18.584  0.00  0.00    +0.000 OA
ENDBRANCH  20  32
ENDBRANCH  19  28
ENDBRANCH  18  19
ENDBRANCH   1  18
TORSDOF 5
ENDMDL
MODEL 7
REMARK VINA RESULT:      -8.3      3.947     10.828
REMARK  Name = 
REMARK  7 active torsions:
REMARK  status: ('A' for Active; 'I' for Inactive)
REMARK    1  A    between atoms: C_1  and  O_2
REMARK    2  A    between atoms: O_2  and  C_3
REMARK    3  A    between atoms: N_11  and  C_12
REMARK    4  A    between atoms: C_12  and  C_13
REMARK    5  A    between atoms: C_13  and  N_14
REMARK    6  A    between atoms: N_20  and  C_21
REMARK    7  A    between atoms: C_24  and  C_25
REMARK                            x       y       z     vdW  Elec       q    Type
REMARK                         _______ _______ _______ _____ _____    ______ ____
ROOT
ATOM      1  N   UNL     1      -0.559  10.868  21.143  0.00  0.00    +0.000 NA
ATOM      2  C   UNL     1      -0.409  10.239  19.813  0.00  0.00    +0.000 C 
ATOM      3  C   UNL     1       1.009   9.719  19.571  0.00  0.00    +0.000 C 
ATOM      4  N   UNL     1       1.304   8.645  20.522  0.00  0.00    +0.000 N 
ATOM      5  C   UNL     1       1.805   7.481  19.974  0.00  0.00    +0.000 C 
ATOM      6  O   UNL     1       1.966   7.412  18.756  0.00  0.00    +0.000 OA
ATOM      7  N   UNL     1       2.066   6.427  20.830  0.00  0.00    +0.000 N 
ATOM      8  C   UNL     1       1.137   9.039  21.929  0.00  0.00    +0.000 C 
ATOM      9  C   UNL     1      -0.164   9.869  22.174  0.00  0.00    +0.000 C 
ATOM     10  H   UNL     1       1.578   6.428  21.710  0.00  0.00    +0.000 HD
ENDROOT
BRANCH   7  11
ATOM     11  C   UNL     1       2.519   5.163  20.356  0.00  0.00    +0.000 A 
ATOM     12  C   UNL     1       3.794   4.982  19.809  0.00  0.00    +0.000 A 
ATOM     13  C   UNL     1       4.142   3.801  19.155  0.00  0.00    +0.000 A 
ATOM     14  C   UNL     1       3.234   2.748  19.079  0.00  0.00    +0.000 A 
ATOM     15  C   UNL     1       3.575   1.519  18.290  0.00  0.00    +0.000 C 
ATOM     16  C   UNL     1       2.002   2.873  19.735  0.00  0.00    +0.000 A 
ATOM     17  C   UNL     1       1.648   4.074  20.375  0.00  0.00    +0.000 A 
ENDBRANCH   7  11
BRANCH   1  18
ATOM     18  C   UNL     1       0.191  12.140  21.262  0.00  0.00    +0.000 C 
BRANCH  18  19
ATOM     19  C   UNL     1      -0.702  13.406  21.168  0.00  0.00    +0.000 C 
BRANCH  19  28
ATOM     20  C   UNL     1      -4.513  12.270  19.401  0.00  0.00    +0.000 A 
ATOM     21  C   UNL     1      -5.642  12.439  20.194  0.00  0.00    +0.000 A 
ATOM     22  N   UNL     1      -5.608  12.835  21.485  0.00  0.00    +0.000 NA
ATOM     23  C   UNL     1      -4.384  13.085  22.004  0.00  0.00    +0.000 A 
ATOM     24  C   UNL     1      -4.361  13.427  23.416  0.00  0.00    +0.000 A 
ATOM     25  C   UNL     1      -3.194  13.651  24.028  0.00  0.00    +0.000 A 
ATOM     26  C   UNL     1      -1.903  13.605  23.295  0.00  0.00    +0.000 A 
ATOM     27  O   UNL     1      -0.867  13.830  23.916  0.00  0.00    +0.000 OA
ATOM     28  N   UNL     1      -1.950  13.315  21.932  0.00  0.00    +0.000 N 
ATOM     29  C   UNL     1      -3.184  13.001  21.286  0.00  0.00    +0.000 A 
ATOM     30  C   UNL     1      -3.273  12.584  19.957  0.00  0.00    +0.000 A 
BRANCH  20  32
ATOM     31  C   UNL     1      -5.645  12.057  17.332  0.00  0.00    +0.000 C 
ATOM     32  O   UNL     1      -4.481  11.812  18.115  0.00  0.00    +0.000 OA
ENDBRANCH  20  32
ENDBRANCH  19  28
ENDBRANCH  18  19
ENDBRANCH   1  18
TORSDOF 5
ENDMDL
MODEL 8
REMARK VINA RESULT:      -8.3      4.423     11.358
REMARK  Name = 
REMARK  7 active torsions:
REMARK  status: ('A' for Active; 'I' for Inactive)
REMARK    1  A    between atoms: C_1  and  O_2
REMARK    2  A    between atoms: O_2  and  C_3
REMARK    3  A    between atoms: N_11  and  C_12
REMARK    4  A    between atoms: C_12  and  C_13
REMARK    5  A    between atoms: C_13  and  N_14
REMARK    6  A    between atoms: N_20  and  C_21
REMARK    7  A    between atoms: C_24  and  C_25
REMARK                            x       y       z     vdW  Elec       q    Type
REMARK                         _______ _______ _______ _____ _____    ______ ____
ROOT
ATOM      1  N   UNL     1      -0.101  11.866  20.416  0.00  0.00    +0.000 NA
ATOM      2  C   UNL     1       0.727  10.943  21.221  0.00  0.00    +0.000 C 
ATOM      3  C   UNL     1       0.502   9.478  20.843  0.00  0.00    +0.000 C 
ATOM      4  N   UNL     1       0.941   9.258  19.462  0.00  0.00    +0.000 N 
ATOM      5  C   UNL     1       1.792   8.188  19.269  0.00  0.00    +0.000 C 
ATOM      6  O   UNL     1       2.127   7.506  20.235  0.00  0.00    +0.000 OA
ATOM      7  N   UNL     1       2.259   7.963  17.987  0.00  0.00    +0.000 N 
ATOM      8  C   UNL     1       0.288  10.145  18.487  0.00  0.00    +0.000 C 
ATOM      9  C   UNL     1       0.203  11.625  18.979  0.00  0.00    +0.000 C 
ATOM     10  H   UNL     1       2.244   8.746  17.356  0.00  0.00    +0.000 HD
ENDROOT
BRANCH   7  11
ATOM     11  C   UNL     1       3.194   6.929  17.695  0.00  0.00    +0.000 A 
ATOM     12  C   UNL     1       4.472   7.196  17.190  0.00  0.00    +0.000 A 
ATOM     13  C   UNL     1       5.289   6.174  16.709  0.00  0.00    +0.000 A 
ATOM     14  C   UNL     1       4.865   4.849  16.770  0.00  0.00    +0.000 A 
ATOM     15  C   UNL     1       5.703   3.764  16.161  0.00  0.00    +0.000 C 
ATOM     16  C   UNL     1       3.642   4.562  17.391  0.00  0.00    +0.000 A 
ATOM     17  C   UNL     1       2.812   5.597  17.856  0.00  0.00    +0.000 A 
ENDBRANCH   7  11
BRANCH   1  18
ATOM     18  C   UNL     1      -1.546  11.755  20.722  0.00  0.00    +0.000 C 
BRANCH  18  19
ATOM     19  C   UNL     1      -2.426  12.797  19.984  0.00  0.00    +0.000 C 
BRANCH  19  28
ATOM     20  C   UNL     1      -6.188  12.921  22.169  0.00  0.00    +0.000 A 
ATOM     21  C   UNL     1      -7.238  12.178  21.644  0.00  0.00    +0.000 A 
ATOM     22  N   UNL     1      -7.182  11.514  20.468  0.00  0.00    +0.000 NA
ATOM     23  C   UNL     1      -6.013  11.590  19.792  0.00  0.00    +0.000 A 
ATOM     24  C   UNL     1      -6.000  10.941  18.491  0.00  0.00    +0.000 A 
ATOM     25  C   UNL     1      -4.903  10.996  17.730  0.00  0.00    +0.000 A 
ATOM     26  C   UNL     1      -3.663  11.672  18.191  0.00  0.00    +0.000 A 
ATOM     27  O   UNL     1      -2.686  11.678  17.446  0.00  0.00    +0.000 OA
ATOM     28  N   UNL     1      -3.682  12.254  19.459  0.00  0.00    +0.000 N 
ATOM     29  C   UNL     1      -4.873  12.263  20.247  0.00  0.00    +0.000 A 
ATOM     30  C   UNL     1      -4.984  12.936  21.465  0.00  0.00    +0.000 A 
BRANCH  20  32
ATOM     31  C   UNL     1      -7.367  13.530  24.130  0.00  0.00    +0.000 C 
ATOM     32  O   UNL     1      -6.207  13.663  23.315  0.00  0.00    +0.000 OA
ENDBRANCH  20  32
ENDBRANCH  19  28
ENDBRANCH  18  19
ENDBRANCH   1  18
TORSDOF 5
ENDMDL
MODEL 9
REMARK VINA RESULT:      -8.2      4.170     11.389
REMARK  Name = 
REMARK  7 active torsions:
REMARK  status: ('A' for Active; 'I' for Inactive)
REMARK    1  A    between atoms: C_1  and  O_2
REMARK    2  A    between atoms: O_2  and  C_3
REMARK    3  A    between atoms: N_11  and  C_12
REMARK    4  A    between atoms: C_12  and  C_13
REMARK    5  A    between atoms: C_13  and  N_14
REMARK    6  A    between atoms: N_20  and  C_21
REMARK    7  A    between atoms: C_24  and  C_25
REMARK                            x       y       z     vdW  Elec       q    Type
REMARK                         _______ _______ _______ _____ _____    ______ ____
ROOT
ATOM      1  N   UNL     1      -0.879  10.289  20.270  0.00  0.00    +0.000 NA
ATOM      2  C   UNL     1      -0.507  10.271  18.839  0.00  0.00    +0.000 C 
ATOM      3  C   UNL     1       1.008  10.252  18.631  0.00  0.00    +0.000 C 
ATOM      4  N   UNL     1       1.560   9.007  19.171  0.00  0.00    +0.000 N 
ATOM      5  C   UNL     1       2.391   8.303  18.322  0.00  0.00    +0.000 C 
ATOM      6  O   UNL     1       2.610   8.744  17.195  0.00  0.00    +0.000 OA
ATOM      7  N   UNL     1       2.907   7.103  18.777  0.00  0.00    +0.000 N 
ATOM      8  C   UNL     1       1.235   8.782  20.588  0.00  0.00    +0.000 C 
ATOM      9  C   UNL     1      -0.256   9.105  20.924  0.00  0.00    +0.000 C 
ATOM     10  H   UNL     1       2.407   6.649  19.521  0.00  0.00    +0.000 HD
ENDROOT
BRANCH   7  11
ATOM     11  C   UNL     1       3.717   6.270  17.954  0.00  0.00    +0.000 A 
ATOM     12  C   UNL     1       4.884   6.735  17.335  0.00  0.00    +0.000 A 
ATOM     13  C   UNL     1       5.542   5.979  16.367  0.00  0.00    +0.000 A 
ATOM     14  C   UNL     1       5.077   4.711  16.031  0.00  0.00    +0.000 A 
ATOM     15  C   UNL     1       5.728   3.942  14.920  0.00  0.00    +0.000 C 
ATOM     16  C   UNL     1       3.985   4.186  16.737  0.00  0.00    +0.000 A 
ATOM     17  C   UNL     1       3.311   4.960  17.698  0.00  0.00    +0.000 A 
ENDBRANCH   7  11
BRANCH   1  18
ATOM     18  C   UNL     1      -0.525  11.563  20.937  0.00  0.00    +0.000 C 
BRANCH  18  19
ATOM     19  C   UNL     1      -1.301  12.792  20.393  0.00  0.00    +0.000 C 
BRANCH  19  28
ATOM     20  C   UNL     1      -1.877  14.596  24.312  0.00  0.00    +0.000 A 
ATOM     21  C   UNL     1      -3.155  14.516  24.853  0.00  0.00    +0.000 A 
ATOM     22  N   UNL     1      -4.222  14.005  24.200  0.00  0.00    +0.000 NA
ATOM     23  C   UNL     1      -3.996  13.543  22.949  0.00  0.00    +0.000 A 
ATOM     24  C   UNL     1      -5.171  13.076  22.233  0.00  0.00    +0.000 A 
ATOM     25  C   UNL     1      -5.055  12.639  20.975  0.00  0.00    +0.000 A 
ATOM     26  C   UNL     1      -3.739  12.572  20.288  0.00  0.00    +0.000 A 
ATOM     27  O   UNL     1      -3.701  12.151  19.134  0.00  0.00    +0.000 OA
ATOM     28  N   UNL     1      -2.618  12.986  21.006  0.00  0.00    +0.000 N 
ATOM     29  C   UNL     1      -2.743  13.524  22.323  0.00  0.00    +0.000 A 
ATOM     30  C   UNL     1      -1.674  14.066  23.037  0.00  0.00    +0.000 A 
BRANCH  20  32
ATOM     31  C   UNL     1      -1.001  15.840  26.126  0.00  0.00    +0.000 C 
ATOM     32  O   UNL     1      -0.778  15.158  24.896  0.00  0.00    +0.000 OA
ENDBRANCH  20  32
ENDBRANCH  19  28
ENDBRANCH  18  19
ENDBRANCH   1  18
TORSDOF 5
ENDMDL
