MODEL 1
REMARK VINA RESULT:      -7.7      0.000      0.000
REMARK  Name = 
REMARK  6 active torsions:
REMARK  status: ('A' for Active; 'I' for Inactive)
REMARK    1  A    between atoms: C_1  and  C_2
REMARK    2  A    between atoms: C_2  and  N_3
REMARK    3  A    between atoms: C_2  and  C_13
REMARK    4  A    between atoms: C_4  and  C_6
REMARK    5  A    between atoms: C_6  and  C_7
REMARK    6  A    between atoms: C_7  and  C_8
REMARK                            x       y       z     vdW  Elec       q    Type
REMARK                         _______ _______ _______ _____ _____    ______ ____
ROOT
ATOM      1  C   UNL     1       6.815   5.110  15.917  0.00  0.00    +0.000 C 
ATOM      2  C   UNL     1       6.363   5.903  17.137  0.00  0.00    +0.000 C 
ENDROOT
BRANCH   2   3
ATOM      3  C   UNL     1       4.886   5.856  17.431  0.00  0.00    +0.000 A 
ATOM      4  N   UNL     1       4.094   6.908  17.456  0.00  0.00    +0.000 NA
ATOM      5  N   UNL     1       2.843   6.512  17.822  0.00  0.00    +0.000 NA
ATOM      6  C   UNL     1       2.872   5.220  18.059  0.00  0.00    +0.000 A 
ATOM      7  N   UNL     1       4.149   4.752  17.832  0.00  0.00    +0.000 N 
ATOM      8  C   UNL     1       4.606   3.392  18.024  0.00  0.00    +0.000 C 
ATOM      9  C   UNL     1       4.081   2.749  19.305  0.00  0.00    +0.000 C 
ATOM     10  C   UNL     1       2.672   2.167  19.175  0.00  0.00    +0.000 C 
ATOM     11  C   UNL     1       1.718   2.956  18.279  0.00  0.00    +0.000 C 
ATOM     12  C   UNL     1       1.705   4.447  18.576  0.00  0.00    +0.000 C 
ENDBRANCH   2   3
BRANCH   2  13
ATOM     13  N   UNL     1       6.809   7.297  17.045  0.00  0.00    +0.000 N 
ATOM     14  C   UNL     1       7.801   7.814  17.856  0.00  0.00    +0.000 C 
ATOM     15  O   UNL     1       8.356   7.200  18.761  0.00  0.00    +0.000 OA
ATOM     16  H   UNL     1       6.698   7.745  16.142  0.00  0.00    +0.000 HD
BRANCH  14  17
ATOM     17  C   UNL     1       8.097   9.277  17.614  0.00  0.00    +0.000 C 
BRANCH  17  18
ATOM     18  C   UNL     1       8.891   9.830  18.792  0.00  0.00    +0.000 C 
BRANCH  18  19
ATOM     19  C   UNL     1       9.518  11.148  18.461  0.00  0.00    +0.000 A 
ATOM     20  C   UNL     1       8.953  12.215  17.792  0.00  0.00    +0.000 A 
ATOM     21  C   UNL     1       9.849  13.318  17.683  0.00  0.00    +0.000 A 
ATOM     22  C   UNL     1      11.069  13.051  18.266  0.00  0.00    +0.000 A 
ATOM     23  S   UNL     1      11.132  11.478  18.931  0.00  0.00    +0.000 S 
ENDBRANCH  18  19
ENDBRANCH  17  18
ENDBRANCH  14  17
ENDBRANCH   2  13
TORSDOF 5
ENDMDL
MODEL 2
REMARK VINA RESULT:      -7.4      1.130      1.285
REMARK  Name = 
REMARK  6 active torsions:
REMARK  status: ('A' for Active; 'I' for Inactive)
REMARK    1  A    between atoms: C_1  and  C_2
REMARK    2  A    between atoms: C_2  and  N_3
REMARK    3  A    between atoms: C_2  and  C_13
REMARK    4  A    between atoms: C_4  and  C_6
REMARK    5  A    between atoms: C_6  and  C_7
REMARK    6  A    between atoms: C_7  and  C_8
REMARK                            x       y       z     vdW  Elec       q    Type
REMARK                         _______ _______ _______ _____ _____    ______ ____
ROOT
ATOM      1  C   UNL     1       5.487   5.777  15.244  0.00  0.00    +0.000 C 
ATOM      2  C   UNL     1       5.611   6.102  16.728  0.00  0.00    +0.000 C 
ENDROOT
BRANCH   2   3
ATOM      3  C   UNL     1       4.322   6.068  17.508  0.00  0.00    +0.000 A 
ATOM      4  N   UNL     1       3.565   7.118  17.749  0.00  0.00    +0.000 NA
ATOM      5  N   UNL     1       2.520   6.741  18.537  0.00  0.00    +0.000 NA
ATOM      6  C   UNL     1       2.654   5.463  18.815  0.00  0.00    +0.000 A 
ATOM      7  N   UNL     1       3.787   4.986  18.191  0.00  0.00    +0.000 N 
ATOM      8  C   UNL     1       4.309   3.639  18.284  0.00  0.00    +0.000 C 
ATOM      9  C   UNL     1       4.263   3.066  19.698  0.00  0.00    +0.000 C 
ATOM     10  C   UNL     1       2.905   2.475  20.084  0.00  0.00    +0.000 C 
ATOM     11  C   UNL     1       1.688   3.212  19.527  0.00  0.00    +0.000 C 
ATOM     12  C   UNL     1       1.747   4.718  19.736  0.00  0.00    +0.000 C 
ENDBRANCH   2   3
BRANCH   2  13
ATOM     13  N   UNL     1       6.278   7.392  16.924  0.00  0.00    +0.000 N 
ATOM     14  C   UNL     1       7.422   7.528  17.687  0.00  0.00    +0.000 C 
ATOM     15  O   UNL     1       7.953   6.621  18.319  0.00  0.00    +0.000 OA
ATOM     16  H   UNL     1       6.154   8.078  16.186  0.00  0.00    +0.000 HD
BRANCH  14  17
ATOM     17  C   UNL     1       7.940   8.946  17.777  0.00  0.00    +0.000 C 
BRANCH  17  18
ATOM     18  C   UNL     1       9.005   9.023  18.866  0.00  0.00    +0.000 C 
BRANCH  18  19
ATOM     19  C   UNL     1       9.293  10.439  19.253  0.00  0.00    +0.000 A 
ATOM     20  C   UNL     1       9.235  11.008  20.509  0.00  0.00    +0.000 A 
ATOM     21  C   UNL     1       9.602  12.385  20.495  0.00  0.00    +0.000 A 
ATOM     22  C   UNL     1       9.919  12.820  19.226  0.00  0.00    +0.000 A 
ATOM     23  S   UNL     1       9.765  11.578  18.063  0.00  0.00    +0.000 S 
ENDBRANCH  18  19
ENDBRANCH  17  18
ENDBRANCH  14  17
ENDBRANCH   2  13
TORSDOF 5
ENDMDL
MODEL 3
REMARK VINA RESULT:      -7.1      1.522      2.327
REMARK  Name = 
REMARK  6 active torsions:
REMARK  status: ('A' for Active; 'I' for Inactive)
REMARK    1  A    between atoms: C_1  and  C_2
REMARK    2  A    between atoms: C_2  and  N_3
REMARK    3  A    between atoms: C_2  and  C_13
REMARK    4  A    between atoms: C_4  and  C_6
REMARK    5  A    between atoms: C_6  and  C_7
REMARK    6  A    between atoms: C_7  and  C_8
REMARK                            x       y       z     vdW  Elec       q    Type
REMARK                         _______ _______ _______ _____ _____    ______ ____
ROOT
ATOM      1  C   UNL     1       3.805   7.498  17.556  0.00  0.00    +0.000 C 
ATOM      2  C   UNL     1       5.034   6.599  17.606  0.00  0.00    +0.000 C 
ENDROOT
BRANCH   2   3
ATOM      3  C   UNL     1       4.875   5.328  18.400  0.00  0.00    +0.000 A 
ATOM      4  N   UNL     1       5.874   4.591  18.840  0.00  0.00    +0.000 NA
ATOM      5  N   UNL     1       5.371   3.484  19.454  0.00  0.00    +0.000 NA
ATOM      6  C   UNL     1       4.061   3.519  19.359  0.00  0.00    +0.000 A 
ATOM      7  N   UNL     1       3.691   4.667  18.692  0.00  0.00    +0.000 N 
ATOM      8  C   UNL     1       2.341   5.056  18.345  0.00  0.00    +0.000 C 
ATOM      9  C   UNL     1       1.494   3.901  17.816  0.00  0.00    +0.000 C 
ATOM     10  C   UNL     1       0.872   3.034  18.914  0.00  0.00    +0.000 C 
ATOM     11  C   UNL     1       1.738   2.829  20.156  0.00  0.00    +0.000 C 
ATOM     12  C   UNL     1       3.167   2.422  19.835  0.00  0.00    +0.000 C 
ENDBRANCH   2   3
BRANCH   2  13
ATOM     13  N   UNL     1       6.203   7.343  18.085  0.00  0.00    +0.000 N 
ATOM     14  C   UNL     1       7.407   7.350  17.407  0.00  0.00    +0.000 C 
ATOM     15  O   UNL     1       7.643   6.700  16.394  0.00  0.00    +0.000 OA
ATOM     16  H   UNL     1       6.011   8.159  18.656  0.00  0.00    +0.000 HD
BRANCH  14  17
ATOM     17  C   UNL     1       8.490   8.163  18.079  0.00  0.00    +0.000 C 
BRANCH  17  18
ATOM     18  C   UNL     1       8.091   9.635  18.070  0.00  0.00    +0.000 C 
BRANCH  18  19
ATOM     19  C   UNL     1       9.200  10.507  18.570  0.00  0.00    +0.000 A 
ATOM     20  C   UNL     1      10.179  11.144  17.837  0.00  0.00    +0.000 A 
ATOM     21  C   UNL     1      11.055  11.911  18.658  0.00  0.00    +0.000 A 
ATOM     22  C   UNL     1      10.717  11.826  19.992  0.00  0.00    +0.000 A 
ATOM     23  S   UNL     1       9.360  10.820  20.247  0.00  0.00    +0.000 S 
ENDBRANCH  18  19
ENDBRANCH  17  18
ENDBRANCH  14  17
ENDBRANCH   2  13
TORSDOF 5
ENDMDL
MODEL 4
REMARK VINA RESULT:      -7.1      4.648      6.658
REMARK  Name = 
REMARK  6 active torsions:
REMARK  status: ('A' for Active; 'I' for Inactive)
REMARK    1  A    between atoms: C_1  and  C_2
REMARK    2  A    between atoms: C_2  and  N_3
REMARK    3  A    between atoms: C_2  and  C_13
REMARK    4  A    between atoms: C_4  and  C_6
REMARK    5  A    between atoms: C_6  and  C_7
REMARK    6  A    between atoms: C_7  and  C_8
REMARK                            x       y       z     vdW  Elec       q    Type
REMARK                         _______ _______ _______ _____ _____    ______ ____
ROOT
ATOM      1  C   UNL     1       5.690   6.723  17.353  0.00  0.00    +0.000 C 
ATOM      2  C   UNL     1       4.330   6.516  18.010  0.00  0.00    +0.000 C 
ENDROOT
BRANCH   2   3
ATOM      3  C   UNL     1       3.755   5.129  17.886  0.00  0.00    +0.000 A 
ATOM      4  N   UNL     1       3.720   4.430  16.770  0.00  0.00    +0.000 NA
ATOM      5  N   UNL     1       3.071   3.255  17.003  0.00  0.00    +0.000 NA
ATOM      6  C   UNL     1       2.673   3.245  18.255  0.00  0.00    +0.000 A 
ATOM      7  N   UNL     1       3.076   4.416  18.862  0.00  0.00    +0.000 N 
ATOM      8  C   UNL     1       2.795   4.810  20.226  0.00  0.00    +0.000 C 
ATOM      9  C   UNL     1       1.362   4.513  20.662  0.00  0.00    +0.000 C 
ATOM     10  C   UNL     1       1.140   3.071  21.123  0.00  0.00    +0.000 C 
ATOM     11  C   UNL     1       1.934   2.010  20.361  0.00  0.00    +0.000 C 
ATOM     12  C   UNL     1       1.843   2.157  18.851  0.00  0.00    +0.000 C 
ENDBRANCH   2   3
BRANCH   2  13
ATOM     13  N   UNL     1       3.362   7.503  17.521  0.00  0.00    +0.000 N 
ATOM     14  C   UNL     1       2.426   8.096  18.347  0.00  0.00    +0.000 C 
ATOM     15  O   UNL     1       2.265   7.822  19.531  0.00  0.00    +0.000 OA
ATOM     16  H   UNL     1       3.643   8.043  16.710  0.00  0.00    +0.000 HD
BRANCH  14  17
ATOM     17  C   UNL     1       1.510   9.070  17.642  0.00  0.00    +0.000 C 
BRANCH  17  18
ATOM     18  C   UNL     1       1.042  10.128  18.636  0.00  0.00    +0.000 C 
BRANCH  18  19
ATOM     19  C   UNL     1      -0.398  10.477  18.428  0.00  0.00    +0.000 A 
ATOM     20  C   UNL     1      -1.292   9.915  17.539  0.00  0.00    +0.000 A 
ATOM     21  C   UNL     1      -2.590  10.492  17.641  0.00  0.00    +0.000 A 
ATOM     22  C   UNL     1      -2.640  11.481  18.599  0.00  0.00    +0.000 A 
ATOM     23  S   UNL     1      -1.129  11.715  19.361  0.00  0.00    +0.000 S 
ENDBRANCH  18  19
ENDBRANCH  17  18
ENDBRANCH  14  17
ENDBRANCH   2  13
TORSDOF 5
ENDMDL
MODEL 5
REMARK VINA RESULT:      -7.1      1.401      1.642
REMARK  Name = 
REMARK  6 active torsions:
REMARK  status: ('A' for Active; 'I' for Inactive)
REMARK    1  A    between atoms: C_1  and  C_2
REMARK    2  A    between atoms: C_2  and  N_3
REMARK    3  A    between atoms: C_2  and  C_13
REMARK    4  A    between atoms: C_4  and  C_6
REMARK    5  A    between atoms: C_6  and  C_7
REMARK    6  A    between atoms: C_7  and  C_8
REMARK                            x       y       z     vdW  Elec       q    Type
REMARK                         _______ _______ _______ _____ _____    ______ ____
ROOT
ATOM      1  C   UNL     1       5.147   5.354  15.686  0.00  0.00    +0.000 C 
ATOM      2  C   UNL     1       5.362   5.485  17.189  0.00  0.00    +0.000 C 
ENDROOT
BRANCH   2   3
ATOM      3  C   UNL     1       4.119   5.740  18.002  0.00  0.00    +0.000 A 
ATOM      4  N   UNL     1       3.589   6.928  18.206  0.00  0.00    +0.000 NA
ATOM      5  N   UNL     1       2.519   6.800  19.039  0.00  0.00    +0.000 NA
ATOM      6  C   UNL     1       2.412   5.535  19.379  0.00  0.00    +0.000 A 
ATOM      7  N   UNL     1       3.408   4.817  18.754  0.00  0.00    +0.000 N 
ATOM      8  C   UNL     1       3.661   3.400  18.904  0.00  0.00    +0.000 C 
ATOM      9  C   UNL     1       3.554   2.913  20.347  0.00  0.00    +0.000 C 
ATOM     10  C   UNL     1       2.122   2.618  20.797  0.00  0.00    +0.000 C 
ATOM     11  C   UNL     1       1.053   3.553  20.233  0.00  0.00    +0.000 C 
ATOM     12  C   UNL     1       1.410   5.025  20.361  0.00  0.00    +0.000 C 
ENDBRANCH   2   3
BRANCH   2  13
ATOM     13  N   UNL     1       6.369   6.509  17.482  0.00  0.00    +0.000 N 
ATOM     14  C   UNL     1       7.409   6.296  18.367  0.00  0.00    +0.000 C 
ATOM     15  O   UNL     1       7.562   5.279  19.035  0.00  0.00    +0.000 OA
ATOM     16  H   UNL     1       6.543   7.189  16.750  0.00  0.00    +0.000 HD
BRANCH  14  17
ATOM     17  C   UNL     1       8.325   7.486  18.542  0.00  0.00    +0.000 C 
BRANCH  17  18
ATOM     18  C   UNL     1       7.836   8.630  17.661  0.00  0.00    +0.000 C 
BRANCH  18  19
ATOM     19  C   UNL     1       8.396   9.944  18.106  0.00  0.00    +0.000 A 
ATOM     20  C   UNL     1       8.264  11.177  17.499  0.00  0.00    +0.000 A 
ATOM     21  C   UNL     1       8.919  12.210  18.229  0.00  0.00    +0.000 A 
ATOM     22  C   UNL     1       9.534  11.729  19.364  0.00  0.00    +0.000 A 
ATOM     23  S   UNL     1       9.330  10.042  19.540  0.00  0.00    +0.000 S 
ENDBRANCH  18  19
ENDBRANCH  17  18
ENDBRANCH  14  17
ENDBRANCH   2  13
TORSDOF 5
ENDMDL
MODEL 6
REMARK VINA RESULT:      -7.0      0.971      1.102
REMARK  Name = 
REMARK  6 active torsions:
REMARK  status: ('A' for Active; 'I' for Inactive)
REMARK    1  A    between atoms: C_1  and  C_2
REMARK    2  A    between atoms: C_2  and  N_3
REMARK    3  A    between atoms: C_2  and  C_13
REMARK    4  A    between atoms: C_4  and  C_6
REMARK    5  A    between atoms: C_6  and  C_7
REMARK    6  A    between atoms: C_7  and  C_8
REMARK                            x       y       z     vdW  Elec       q    Type
REMARK                         _______ _______ _______ _____ _____    ______ ____
ROOT
ATOM      1  C   UNL     1       6.305   5.300  15.063  0.00  0.00    +0.000 C 
ATOM      2  C   UNL     1       6.238   5.483  16.574  0.00  0.00    +0.000 C 
ENDROOT
BRANCH   2   3
ATOM      3  C   UNL     1       4.855   5.662  17.145  0.00  0.00    +0.000 A 
ATOM      4  N   UNL     1       4.320   6.824  17.458  0.00  0.00    +0.000 NA
ATOM      5  N   UNL     1       3.093   6.612  18.010  0.00  0.00    +0.000 NA
ATOM      6  C   UNL     1       2.888   5.316  18.073  0.00  0.00    +0.000 A 
ATOM      7  N   UNL     1       3.980   4.664  17.542  0.00  0.00    +0.000 N 
ATOM      8  C   UNL     1       4.164   3.230  17.467  0.00  0.00    +0.000 C 
ATOM      9  C   UNL     1       3.738   2.496  18.737  0.00  0.00    +0.000 C 
ATOM     10  C   UNL     1       2.236   2.213  18.815  0.00  0.00    +0.000 C 
ATOM     11  C   UNL     1       1.334   3.299  18.231  0.00  0.00    +0.000 C 
ATOM     12  C   UNL     1       1.687   4.699  18.709  0.00  0.00    +0.000 C 
ENDBRANCH   2   3
BRANCH   2  13
ATOM     13  N   UNL     1       7.101   6.589  17.001  0.00  0.00    +0.000 N 
ATOM     14  C   UNL     1       7.693   6.629  18.249  0.00  0.00    +0.000 C 
ATOM     15  O   UNL     1       7.514   5.800  19.135  0.00  0.00    +0.000 OA
ATOM     16  H   UNL     1       7.588   7.089  16.264  0.00  0.00    +0.000 HD
BRANCH  14  17
ATOM     17  C   UNL     1       8.529   7.865  18.497  0.00  0.00    +0.000 C 
BRANCH  17  18
ATOM     18  C   UNL     1       7.875   9.059  17.810  0.00  0.00    +0.000 C 
BRANCH  18  19
ATOM     19  C   UNL     1       8.508  10.348  18.231  0.00  0.00    +0.000 A 
ATOM     20  C   UNL     1       8.467  11.568  17.587  0.00  0.00    +0.000 A 
ATOM     21  C   UNL     1       9.170  12.579  18.303  0.00  0.00    +0.000 A 
ATOM     22  C   UNL     1       9.730  12.094  19.465  0.00  0.00    +0.000 A 
ATOM     23  S   UNL     1       9.416  10.428  19.682  0.00  0.00    +0.000 S 
ENDBRANCH  18  19
ENDBRANCH  17  18
ENDBRANCH  14  17
ENDBRANCH   2  13
TORSDOF 5
ENDMDL
MODEL 7
REMARK VINA RESULT:      -7.0      1.173      1.388
REMARK  Name = 
REMARK  6 active torsions:
REMARK  status: ('A' for Active; 'I' for Inactive)
REMARK    1  A    between atoms: C_1  and  C_2
REMARK    2  A    between atoms: C_2  and  N_3
REMARK    3  A    between atoms: C_2  and  C_13
REMARK    4  A    between atoms: C_4  and  C_6
REMARK    5  A    between atoms: C_6  and  C_7
REMARK    6  A    between atoms: C_7  and  C_8
REMARK                            x       y       z     vdW  Elec       q    Type
REMARK                         _______ _______ _______ _____ _____    ______ ____
ROOT
ATOM      1  C   UNL     1       6.980   4.877  16.173  0.00  0.00    +0.000 C 
ATOM      2  C   UNL     1       6.513   5.001  17.618  0.00  0.00    +0.000 C 
ENDROOT
BRANCH   2   3
ATOM      3  C   UNL     1       5.040   5.259  17.803  0.00  0.00    +0.000 A 
ATOM      4  N   UNL     1       4.484   6.454  17.809  0.00  0.00    +0.000 NA
ATOM      5  N   UNL     1       3.154   6.323  18.069  0.00  0.00    +0.000 NA
ATOM      6  C   UNL     1       2.895   5.049  18.261  0.00  0.00    +0.000 A 
ATOM      7  N   UNL     1       4.060   4.328  18.110  0.00  0.00    +0.000 N 
ATOM      8  C   UNL     1       4.207   2.898  18.284  0.00  0.00    +0.000 C 
ATOM      9  C   UNL     1       3.462   2.355  19.500  0.00  0.00    +0.000 C 
ATOM     10  C   UNL     1       1.977   2.085  19.248  0.00  0.00    +0.000 C 
ATOM     11  C   UNL     1       1.281   3.075  18.316  0.00  0.00    +0.000 C 
ATOM     12  C   UNL     1       1.555   4.529  18.664  0.00  0.00    +0.000 C 
ENDBRANCH   2   3
BRANCH   2  13
ATOM     13  N   UNL     1       7.291   6.020  18.330  0.00  0.00    +0.000 N 
ATOM     14  C   UNL     1       7.586   7.250  17.775  0.00  0.00    +0.000 C 
ATOM     15  O   UNL     1       7.294   7.591  16.633  0.00  0.00    +0.000 OA
ATOM     16  H   UNL     1       7.248   5.989  19.343  0.00  0.00    +0.000 HD
BRANCH  14  17
ATOM     17  C   UNL     1       8.415   8.147  18.666  0.00  0.00    +0.000 C 
BRANCH  17  18
ATOM     18  C   UNL     1       8.423   9.558  18.089  0.00  0.00    +0.000 C 
BRANCH  18  19
ATOM     19  C   UNL     1       9.352  10.455  18.847  0.00  0.00    +0.000 A 
ATOM     20  C   UNL     1       9.455  10.616  20.213  0.00  0.00    +0.000 A 
ATOM     21  C   UNL     1      10.475  11.544  20.571  0.00  0.00    +0.000 A 
ATOM     22  C   UNL     1      11.109  12.065  19.464  0.00  0.00    +0.000 A 
ATOM     23  S   UNL     1      10.470  11.444  18.006  0.00  0.00    +0.000 S 
ENDBRANCH  18  19
ENDBRANCH  17  18
ENDBRANCH  14  17
ENDBRANCH   2  13
TORSDOF 5
ENDMDL
MODEL 8
REMARK VINA RESULT:      -7.0      1.241      1.321
REMARK  Name = 
REMARK  6 active torsions:
REMARK  status: ('A' for Active; 'I' for Inactive)
REMARK    1  A    between atoms: C_1  and  C_2
REMARK    2  A    between atoms: C_2  and  N_3
REMARK    3  A    between atoms: C_2  and  C_13
REMARK    4  A    between atoms: C_4  and  C_6
REMARK    5  A    between atoms: C_6  and  C_7
REMARK    6  A    between atoms: C_7  and  C_8
REMARK                            x       y       z     vdW  Elec       q    Type
REMARK                         _______ _______ _______ _____ _____    ______ ____
ROOT
ATOM      1  C   UNL     1       7.560   4.570  17.952  0.00  0.00    +0.000 C 
ATOM      2  C   UNL     1       6.615   5.503  18.699  0.00  0.00    +0.000 C 
ENDROOT
BRANCH   2   3
ATOM      3  C   UNL     1       5.170   5.433  18.280  0.00  0.00    +0.000 A 
ATOM      4  N   UNL     1       4.517   6.407  17.679  0.00  0.00    +0.000 NA
ATOM      5  N   UNL     1       3.218   6.032  17.511  0.00  0.00    +0.000 NA
ATOM      6  C   UNL     1       3.061   4.841  18.043  0.00  0.00    +0.000 A 
ATOM      7  N   UNL     1       4.269   4.415  18.553  0.00  0.00    +0.000 N 
ATOM      8  C   UNL     1       4.507   3.175  19.260  0.00  0.00    +0.000 C 
ATOM      9  C   UNL     1       3.414   2.830  20.268  0.00  0.00    +0.000 C 
ATOM     10  C   UNL     1       2.193   2.145  19.650  0.00  0.00    +0.000 C 
ATOM     11  C   UNL     1       1.808   2.629  18.253  0.00  0.00    +0.000 C 
ATOM     12  C   UNL     1       1.745   4.144  18.135  0.00  0.00    +0.000 C 
ENDBRANCH   2   3
BRANCH   2  13
ATOM     13  N   UNL     1       7.089   6.888  18.628  0.00  0.00    +0.000 N 
ATOM     14  C   UNL     1       7.570   7.449  17.460  0.00  0.00    +0.000 C 
ATOM     15  O   UNL     1       7.710   6.847  16.401  0.00  0.00    +0.000 OA
ATOM     16  H   UNL     1       6.684   7.536  19.296  0.00  0.00    +0.000 HD
BRANCH  14  17
ATOM     17  C   UNL     1       8.026   8.883  17.605  0.00  0.00    +0.000 C 
BRANCH  17  18
ATOM     18  C   UNL     1       8.802   9.034  18.909  0.00  0.00    +0.000 C 
BRANCH  18  19
ATOM     19  C   UNL     1       9.377  10.408  19.050  0.00  0.00    +0.000 A 
ATOM     20  C   UNL     1       9.897  11.219  18.062  0.00  0.00    +0.000 A 
ATOM     21  C   UNL     1      10.333  12.477  18.570  0.00  0.00    +0.000 A 
ATOM     22  C   UNL     1      10.136  12.579  19.930  0.00  0.00    +0.000 A 
ATOM     23  S   UNL     1       9.440  11.163  20.586  0.00  0.00    +0.000 S 
ENDBRANCH  18  19
ENDBRANCH  17  18
ENDBRANCH  14  17
ENDBRANCH   2  13
TORSDOF 5
ENDMDL
MODEL 9
REMARK VINA RESULT:      -6.9      1.549      2.352
REMARK  Name = 
REMARK  6 active torsions:
REMARK  status: ('A' for Active; 'I' for Inactive)
REMARK    1  A    between atoms: C_1  and  C_2
REMARK    2  A    between atoms: C_2  and  N_3
REMARK    3  A    between atoms: C_2  and  C_13
REMARK    4  A    between atoms: C_4  and  C_6
REMARK    5  A    between atoms: C_6  and  C_7
REMARK    6  A    between atoms: C_7  and  C_8
REMARK                            x       y       z     vdW  Elec       q    Type
REMARK                         _______ _______ _______ _____ _____    ______ ____
ROOT
ATOM      1  C   UNL     1       6.261   5.374  15.223  0.00  0.00    +0.000 C 
ATOM      2  C   UNL     1       6.840   5.657  16.604  0.00  0.00    +0.000 C 
ENDROOT
BRANCH   2   3
ATOM      3  C   UNL     1       6.011   5.173  17.766  0.00  0.00    +0.000 A 
ATOM      4  N   UNL     1       6.243   4.065  18.440  0.00  0.00    +0.000 NA
ATOM      5  N   UNL     1       5.264   3.900  19.372  0.00  0.00    +0.000 NA
ATOM      6  C   UNL     1       4.406   4.888  19.248  0.00  0.00    +0.000 A 
ATOM      7  N   UNL     1       4.829   5.723  18.236  0.00  0.00    +0.000 N 
ATOM      8  C   UNL     1       4.138   6.902  17.758  0.00  0.00    +0.000 C 
ATOM      9  C   UNL     1       2.630   6.707  17.619  0.00  0.00    +0.000 C 
ATOM     10  C   UNL     1       1.858   6.890  18.928  0.00  0.00    +0.000 C 
ATOM     11  C   UNL     1       2.572   6.393  20.184  0.00  0.00    +0.000 C 
ATOM     12  C   UNL     1       3.145   4.992  20.039  0.00  0.00    +0.000 C 
ENDBRANCH   2   3
BRANCH   2  13
ATOM     13  N   UNL     1       7.133   7.085  16.762  0.00  0.00    +0.000 N 
ATOM     14  C   UNL     1       7.851   7.581  17.833  0.00  0.00    +0.000 C 
ATOM     15  O   UNL     1       8.255   6.909  18.776  0.00  0.00    +0.000 OA
ATOM     16  H   UNL     1       7.178   7.630  15.907  0.00  0.00    +0.000 HD
BRANCH  14  17
ATOM     17  C   UNL     1       8.026   9.083  17.817  0.00  0.00    +0.000 C 
BRANCH  17  18
ATOM     18  C   UNL     1       8.967   9.491  18.945  0.00  0.00    +0.000 C 
BRANCH  18  19
ATOM     19  C   UNL     1       9.278  10.954  18.899  0.00  0.00    +0.000 A 
ATOM     20  C   UNL     1       9.061  11.838  17.862  0.00  0.00    +0.000 A 
ATOM     21  C   UNL     1       9.465  13.164  18.191  0.00  0.00    +0.000 A 
ATOM     22  C   UNL     1       9.984  13.244  19.465  0.00  0.00    +0.000 A 
ATOM     23  S   UNL     1       9.991  11.727  20.251  0.00  0.00    +0.000 S 
ENDBRANCH  18  19
ENDBRANCH  17  18
ENDBRANCH  14  17
ENDBRANCH   2  13
TORSDOF 5
ENDMDL
