MODEL 1
REMARK VINA RESULT:      -6.5      0.000      0.000
REMARK  Name = 
REMARK  13 active torsions:
REMARK  status: ('A' for Active; 'I' for Inactive)
REMARK    1  A    between atoms: C_1  and  C_2
REMARK    2  A    between atoms: C_2  and  C_3
REMARK    3  A    between atoms: N_5  and  C_6
REMARK    4  A    between atoms: N_5  and  C_12
REMARK    5  A    between atoms: C_12  and  C_13
REMARK    6  A    between atoms: C_13  and  O_14
REMARK    7  A    between atoms: O_14  and  C_15
REMARK    8  A    between atoms: N_18  and  C_19
REMARK    9  A    between atoms: C_19  and  C_20
REMARK   10  A    between atoms: C_20  and  N_21
REMARK   11  A    between atoms: N_24  and  C_25
REMARK   12  A    between atoms: C_25  and  C_26
REMARK   13  A    between atoms: C_25  and  C_27
REMARK                            x       y       z     vdW  Elec       q    Type
REMARK                         _______ _______ _______ _____ _____    ______ ____
ROOT
ATOM      1  C   UNL     1       3.434   4.727  18.754  0.00  0.00    +0.000 C 
ATOM      2  C   UNL     1       2.107   5.021  17.996  0.00  0.00    +0.000 C 
ATOM      3  C   UNL     1       2.053   6.453  17.476  0.00  0.00    +0.000 C 
ATOM      4  N   UNL     1       2.115   7.424  18.574  0.00  0.00    +0.000 NA
ATOM      5  C   UNL     1       3.323   7.234  19.392  0.00  0.00    +0.000 C 
ATOM      6  C   UNL     1       3.467   5.794  19.892  0.00  0.00    +0.000 C 
ENDROOT
BRANCH   1   9
ATOM      7  C   UNL     1       4.601   3.870  16.669  0.00  0.00    +0.000 C 
ATOM      8  O   UNL     1       3.639   3.140  16.407  0.00  0.00    +0.000 OA
ATOM      9  N   UNL     1       4.612   4.739  17.780  0.00  0.00    +0.000 N 
BRANCH   9  10
ATOM     10  C   UNL     1       5.754   5.556  18.038  0.00  0.00    +0.000 A 
ATOM     11  C   UNL     1       5.952   6.729  17.292  0.00  0.00    +0.000 A 
ATOM     12  C   UNL     1       7.102   7.502  17.466  0.00  0.00    +0.000 A 
ATOM     13  C   UNL     1       8.054   7.124  18.410  0.00  0.00    +0.000 A 
ATOM     14  C   UNL     1       7.851   5.980  19.180  0.00  0.00    +0.000 A 
ATOM     15  C   UNL     1       6.711   5.193  18.988  0.00  0.00    +0.000 A 
ENDBRANCH   9  10
BRANCH   7  17
ATOM     16  C   UNL     1       5.527   4.219  14.338  0.00  0.00    +0.000 C 
ATOM     17  C   UNL     1       5.838   3.821  15.774  0.00  0.00    +0.000 C 
ENDBRANCH   7  17
ENDBRANCH   1   9
BRANCH   1  18
ATOM     18  C   UNL     1       3.285   3.319  19.417  0.00  0.00    +0.000 C 
BRANCH  18  19
ATOM     19  O   UNL     1       1.913   2.914  19.486  0.00  0.00    +0.000 OA
ATOM     20  C   UNL     1       1.516   2.672  20.830  0.00  0.00    +0.000 C 
ENDBRANCH  18  19
ENDBRANCH   1  18
BRANCH   4  21
ATOM     21  C   UNL     1       2.071   8.816  18.070  0.00  0.00    +0.000 C 
BRANCH  21  22
ATOM     22  C   UNL     1       0.651   9.399  17.997  0.00  0.00    +0.000 C 
BRANCH  22  23
ATOM     23  N   UNL     1       0.303  10.121  19.187  0.00  0.00    +0.000 N 
ATOM     24  N   UNL     1       1.072  10.104  20.315  0.00  0.00    +0.000 NA
ATOM     25  N   UNL     1       0.480  10.762  21.226  0.00  0.00    +0.000 NA
ATOM     26  N   UNL     1      -0.695  11.257  20.724  0.00  0.00    +0.000 N 
ATOM     27  C   UNL     1      -0.872  10.800  19.433  0.00  0.00    +0.000 A 
ATOM     28  O   UNL     1      -1.833  10.946  18.697  0.00  0.00    +0.000 OA
BRANCH  26  29
ATOM     29  C   UNL     1      -1.681  11.942  21.530  0.00  0.00    +0.000 C 
ATOM     30  C   UNL     1      -1.450  11.674  23.015  0.00  0.00    +0.000 C 
ATOM     31  C   UNL     1      -1.717  13.440  21.241  0.00  0.00    +0.000 C 
ENDBRANCH  26  29
ENDBRANCH  22  23
ENDBRANCH  21  22
ENDBRANCH   4  21
TORSDOF 9
ENDMDL
MODEL 2
REMARK VINA RESULT:      -6.4      1.945      2.281
REMARK  Name = 
REMARK  13 active torsions:
REMARK  status: ('A' for Active; 'I' for Inactive)
REMARK    1  A    between atoms: C_1  and  C_2
REMARK    2  A    between atoms: C_2  and  C_3
REMARK    3  A    between atoms: N_5  and  C_6
REMARK    4  A    between atoms: N_5  and  C_12
REMARK    5  A    between atoms: C_12  and  C_13
REMARK    6  A    between atoms: C_13  and  O_14
REMARK    7  A    between atoms: O_14  and  C_15
REMARK    8  A    between atoms: N_18  and  C_19
REMARK    9  A    between atoms: C_19  and  C_20
REMARK   10  A    between atoms: C_20  and  N_21
REMARK   11  A    between atoms: N_24  and  C_25
REMARK   12  A    between atoms: C_25  and  C_26
REMARK   13  A    between atoms: C_25  and  C_27
REMARK                            x       y       z     vdW  Elec       q    Type
REMARK                         _______ _______ _______ _____ _____    ______ ____
ROOT
ATOM      1  C   UNL     1       3.532   4.664  18.818  0.00  0.00    +0.000 C 
ATOM      2  C   UNL     1       2.155   4.840  18.116  0.00  0.00    +0.000 C 
ATOM      3  C   UNL     1       1.999   6.227  17.504  0.00  0.00    +0.000 C 
ATOM      4  N   UNL     1       2.068   7.275  18.529  0.00  0.00    +0.000 NA
ATOM      5  C   UNL     1       3.324   7.202  19.290  0.00  0.00    +0.000 C 
ATOM      6  C   UNL     1       3.569   5.809  19.877  0.00  0.00    +0.000 C 
ENDROOT
BRANCH   1   9
ATOM      7  C   UNL     1       4.583   3.785  16.681  0.00  0.00    +0.000 C 
ATOM      8  O   UNL     1       3.607   3.056  16.478  0.00  0.00    +0.000 OA
ATOM      9  N   UNL     1       4.656   4.664  17.782  0.00  0.00    +0.000 N 
BRANCH   9  10
ATOM     10  C   UNL     1       5.812   5.480  17.970  0.00  0.00    +0.000 A 
ATOM     11  C   UNL     1       6.765   5.126  18.938  0.00  0.00    +0.000 A 
ATOM     12  C   UNL     1       7.862   5.950  19.199  0.00  0.00    +0.000 A 
ATOM     13  C   UNL     1       8.032   7.126  18.473  0.00  0.00    +0.000 A 
ATOM     14  C   UNL     1       7.111   7.471  17.486  0.00  0.00    +0.000 A 
ATOM     15  C   UNL     1       6.000   6.657  17.241  0.00  0.00    +0.000 A 
ENDBRANCH   9  10
BRANCH   7  17
ATOM     16  C   UNL     1       5.463   4.381  14.383  0.00  0.00    +0.000 C 
ATOM     17  C   UNL     1       5.770   3.724  15.721  0.00  0.00    +0.000 C 
ENDBRANCH   7  17
ENDBRANCH   1   9
BRANCH   1  18
ATOM     18  C   UNL     1       3.491   3.301  19.582  0.00  0.00    +0.000 C 
BRANCH  18  19
ATOM     19  O   UNL     1       2.146   2.861  19.798  0.00  0.00    +0.000 OA
ATOM     20  C   UNL     1       1.880   2.684  21.185  0.00  0.00    +0.000 C 
ENDBRANCH  18  19
ENDBRANCH   1  18
BRANCH   4  21
ATOM     21  C   UNL     1       1.925   8.624  17.935  0.00  0.00    +0.000 C 
BRANCH  21  22
ATOM     22  C   UNL     1       0.998   9.553  18.733  0.00  0.00    +0.000 C 
BRANCH  22  23
ATOM     23  N   UNL     1       1.474  10.907  18.748  0.00  0.00    +0.000 N 
ATOM     24  N   UNL     1       2.401  11.376  17.862  0.00  0.00    +0.000 NA
ATOM     25  N   UNL     1       2.687  12.576  18.163  0.00  0.00    +0.000 NA
ATOM     26  N   UNL     1       1.943  12.951  19.250  0.00  0.00    +0.000 N 
ATOM     27  C   UNL     1       1.204  11.873  19.694  0.00  0.00    +0.000 A 
ATOM     28  O   UNL     1       0.498  11.788  20.685  0.00  0.00    +0.000 OA
BRANCH  26  29
ATOM     29  C   UNL     1       2.115  14.210  19.939  0.00  0.00    +0.000 C 
ATOM     30  C   UNL     1       3.250  14.121  20.958  0.00  0.00    +0.000 C 
ATOM     31  C   UNL     1       2.338  15.368  18.970  0.00  0.00    +0.000 C 
ENDBRANCH  26  29
ENDBRANCH  22  23
ENDBRANCH  21  22
ENDBRANCH   4  21
TORSDOF 9
ENDMDL
MODEL 3
REMARK VINA RESULT:      -6.3      1.047      1.273
REMARK  Name = 
REMARK  13 active torsions:
REMARK  status: ('A' for Active; 'I' for Inactive)
REMARK    1  A    between atoms: C_1  and  C_2
REMARK    2  A    between atoms: C_2  and  C_3
REMARK    3  A    between atoms: N_5  and  C_6
REMARK    4  A    between atoms: N_5  and  C_12
REMARK    5  A    between atoms: C_12  and  C_13
REMARK    6  A    between atoms: C_13  and  O_14
REMARK    7  A    between atoms: O_14  and  C_15
REMARK    8  A    between atoms: N_18  and  C_19
REMARK    9  A    between atoms: C_19  and  C_20
REMARK   10  A    between atoms: C_20  and  N_21
REMARK   11  A    between atoms: N_24  and  C_25
REMARK   12  A    between atoms: C_25  and  C_26
REMARK   13  A    between atoms: C_25  and  C_27
REMARK                            x       y       z     vdW  Elec       q    Type
REMARK                         _______ _______ _______ _____ _____    ______ ____
ROOT
ATOM      1  C   UNL     1       3.354   4.686  18.767  0.00  0.00    +0.000 C 
ATOM      2  C   UNL     1       2.046   5.035  18.000  0.00  0.00    +0.000 C 
ATOM      3  C   UNL     1       2.046   6.474  17.499  0.00  0.00    +0.000 C 
ATOM      4  N   UNL     1       2.131   7.429  18.611  0.00  0.00    +0.000 NA
ATOM      5  C   UNL     1       3.323   7.187  19.438  0.00  0.00    +0.000 C 
ATOM      6  C   UNL     1       3.412   5.736  19.919  0.00  0.00    +0.000 C 
ENDROOT
BRANCH   1   9
ATOM      7  C   UNL     1       4.524   3.797  16.697  0.00  0.00    +0.000 C 
ATOM      8  O   UNL     1       3.550   3.086  16.428  0.00  0.00    +0.000 OA
ATOM      9  N   UNL     1       4.542   4.670  17.805  0.00  0.00    +0.000 N 
BRANCH   9  10
ATOM     10  C   UNL     1       5.697   5.464  18.070  0.00  0.00    +0.000 A 
ATOM     11  C   UNL     1       5.935   6.622  17.312  0.00  0.00    +0.000 A 
ATOM     12  C   UNL     1       7.099   7.371  17.495  0.00  0.00    +0.000 A 
ATOM     13  C   UNL     1       8.027   6.985  18.460  0.00  0.00    +0.000 A 
ATOM     14  C   UNL     1       7.785   5.857  19.242  0.00  0.00    +0.000 A 
ATOM     15  C   UNL     1       6.630   5.094  19.043  0.00  0.00    +0.000 A 
ENDBRANCH   9  10
BRANCH   7  17
ATOM     16  C   UNL     1       5.539   4.331  14.439  0.00  0.00    +0.000 C 
ATOM     17  C   UNL     1       5.768   3.719  15.814  0.00  0.00    +0.000 C 
ENDBRANCH   7  17
ENDBRANCH   1   9
BRANCH   1  18
ATOM     18  C   UNL     1       3.151   3.275  19.410  0.00  0.00    +0.000 C 
BRANCH  18  19
ATOM     19  O   UNL     1       1.761   2.962  19.558  0.00  0.00    +0.000 OA
ATOM     20  C   UNL     1       1.426   2.752  20.925  0.00  0.00    +0.000 C 
ENDBRANCH  18  19
ENDBRANCH   1  18
BRANCH   4  21
ATOM     21  C   UNL     1       2.139   8.828  18.125  0.00  0.00    +0.000 C 
BRANCH  21  22
ATOM     22  C   UNL     1       0.735   9.412  17.906  0.00  0.00    +0.000 C 
BRANCH  22  23
ATOM     23  N   UNL     1       0.360  10.320  18.953  0.00  0.00    +0.000 N 
ATOM     24  N   UNL     1      -0.644  10.055  19.839  0.00  0.00    +0.000 NA
ATOM     25  N   UNL     1      -0.802  11.064  20.594  0.00  0.00    +0.000 NA
ATOM     26  N   UNL     1       0.109  12.027  20.245  0.00  0.00    +0.000 N 
ATOM     27  C   UNL     1       0.825  11.604  19.144  0.00  0.00    +0.000 A 
ATOM     28  O   UNL     1       1.652  12.217  18.490  0.00  0.00    +0.000 OA
BRANCH  26  29
ATOM     29  C   UNL     1       0.121  13.357  20.813  0.00  0.00    +0.000 C 
ATOM     30  C   UNL     1      -0.665  14.329  19.936  0.00  0.00    +0.000 C 
ATOM     31  C   UNL     1      -0.397  13.372  22.249  0.00  0.00    +0.000 C 
ENDBRANCH  26  29
ENDBRANCH  22  23
ENDBRANCH  21  22
ENDBRANCH   4  21
TORSDOF 9
ENDMDL
MODEL 4
REMARK VINA RESULT:      -6.3      6.912     10.627
REMARK  Name = 
REMARK  13 active torsions:
REMARK  status: ('A' for Active; 'I' for Inactive)
REMARK    1  A    between atoms: C_1  and  C_2
REMARK    2  A    between atoms: C_2  and  C_3
REMARK    3  A    between atoms: N_5  and  C_6
REMARK    4  A    between atoms: N_5  and  C_12
REMARK    5  A    between atoms: C_12  and  C_13
REMARK    6  A    between atoms: C_13  and  O_14
REMARK    7  A    between atoms: O_14  and  C_15
REMARK    8  A    between atoms: N_18  and  C_19
REMARK    9  A    between atoms: C_19  and  C_20
REMARK   10  A    between atoms: C_20  and  N_21
REMARK   11  A    between atoms: N_24  and  C_25
REMARK   12  A    between atoms: C_25  and  C_26
REMARK   13  A    between atoms: C_25  and  C_27
REMARK                            x       y       z     vdW  Elec       q    Type
REMARK                         _______ _______ _______ _____ _____    ______ ____
ROOT
ATOM      1  C   UNL     1      10.483  13.192  19.577  0.00  0.00    +0.000 C 
ATOM      2  C   UNL     1      10.354  12.825  18.071  0.00  0.00    +0.000 C 
ATOM      3  C   UNL     1       9.211  11.848  17.819  0.00  0.00    +0.000 C 
ATOM      4  N   UNL     1       9.424  10.580  18.528  0.00  0.00    +0.000 NA
ATOM      5  C   UNL     1       9.590  10.794  19.974  0.00  0.00    +0.000 C 
ATOM      6  C   UNL     1      10.684  11.818  20.289  0.00  0.00    +0.000 C 
ENDROOT
BRANCH   1   9
ATOM      7  C   UNL     1       8.676  14.914  19.117  0.00  0.00    +0.000 C 
ATOM      8  O   UNL     1       9.042  15.013  17.942  0.00  0.00    +0.000 OA
ATOM      9  N   UNL     1       9.278  14.017  20.025  0.00  0.00    +0.000 N 
BRANCH   9  10
ATOM     10  C   UNL     1       8.817  13.949  21.374  0.00  0.00    +0.000 A 
ATOM     11  C   UNL     1       9.463  14.700  22.369  0.00  0.00    +0.000 A 
ATOM     12  C   UNL     1       9.085  14.589  23.709  0.00  0.00    +0.000 A 
ATOM     13  C   UNL     1       8.036  13.744  24.065  0.00  0.00    +0.000 A 
ATOM     14  C   UNL     1       7.365  13.020  23.081  0.00  0.00    +0.000 A 
ATOM     15  C   UNL     1       7.759  13.114  21.743  0.00  0.00    +0.000 A 
ENDBRANCH   9  10
BRANCH   7  17
ATOM     16  C   UNL     1       6.187  15.376  19.086  0.00  0.00    +0.000 C 
ATOM     17  C   UNL     1       7.544  15.807  19.622  0.00  0.00    +0.000 C 
ENDBRANCH   7  17
ENDBRANCH   1   9
BRANCH   1  18
ATOM     18  C   UNL     1      11.802  14.016  19.740  0.00  0.00    +0.000 C 
BRANCH  18  19
ATOM     19  O   UNL     1      12.186  14.640  18.510  0.00  0.00    +0.000 OA
ATOM     20  C   UNL     1      12.333  16.046  18.672  0.00  0.00    +0.000 C 
ENDBRANCH  18  19
ENDBRANCH   1  18
BRANCH   4  21
ATOM     21  C   UNL     1       8.310   9.633  18.291  0.00  0.00    +0.000 C 
BRANCH  21  22
ATOM     22  C   UNL     1       8.626   8.192  18.720  0.00  0.00    +0.000 C 
BRANCH  22  23
ATOM     23  N   UNL     1       7.783   7.237  18.060  0.00  0.00    +0.000 N 
ATOM     24  N   UNL     1       7.285   7.430  16.804  0.00  0.00    +0.000 NA
ATOM     25  N   UNL     1       6.514   6.465  16.514  0.00  0.00    +0.000 NA
ATOM     26  N   UNL     1       6.489   5.585  17.565  0.00  0.00    +0.000 N 
ATOM     27  C   UNL     1       7.241   6.091  18.605  0.00  0.00    +0.000 A 
ATOM     28  O   UNL     1       7.381   5.647  19.732  0.00  0.00    +0.000 OA
BRANCH  26  29
ATOM     29  C   UNL     1       5.608   4.440  17.625  0.00  0.00    +0.000 C 
ATOM     30  C   UNL     1       4.287   4.806  18.299  0.00  0.00    +0.000 C 
ATOM     31  C   UNL     1       5.370   3.826  16.248  0.00  0.00    +0.000 C 
ENDBRANCH  26  29
ENDBRANCH  22  23
ENDBRANCH  21  22
ENDBRANCH   4  21
TORSDOF 9
ENDMDL
MODEL 5
REMARK VINA RESULT:      -6.2      0.896      1.391
REMARK  Name = 
REMARK  13 active torsions:
REMARK  status: ('A' for Active; 'I' for Inactive)
REMARK    1  A    between atoms: C_1  and  C_2
REMARK    2  A    between atoms: C_2  and  C_3
REMARK    3  A    between atoms: N_5  and  C_6
REMARK    4  A    between atoms: N_5  and  C_12
REMARK    5  A    between atoms: C_12  and  C_13
REMARK    6  A    between atoms: C_13  and  O_14
REMARK    7  A    between atoms: O_14  and  C_15
REMARK    8  A    between atoms: N_18  and  C_19
REMARK    9  A    between atoms: C_19  and  C_20
REMARK   10  A    between atoms: C_20  and  N_21
REMARK   11  A    between atoms: N_24  and  C_25
REMARK   12  A    between atoms: C_25  and  C_26
REMARK   13  A    between atoms: C_25  and  C_27
REMARK                            x       y       z     vdW  Elec       q    Type
REMARK                         _______ _______ _______ _____ _____    ______ ____
ROOT
ATOM      1  C   UNL     1       3.631   4.702  18.842  0.00  0.00    +0.000 C 
ATOM      2  C   UNL     1       2.232   4.705  18.163  0.00  0.00    +0.000 C 
ATOM      3  C   UNL     1       1.949   6.021  17.447  0.00  0.00    +0.000 C 
ATOM      4  N   UNL     1       1.948   7.151  18.384  0.00  0.00    +0.000 NA
ATOM      5  C   UNL     1       3.219   7.244  19.117  0.00  0.00    +0.000 C 
ATOM      6  C   UNL     1       3.590   5.927  19.807  0.00  0.00    +0.000 C 
ENDROOT
BRANCH   1   9
ATOM      7  C   UNL     1       4.664   3.804  16.704  0.00  0.00    +0.000 C 
ATOM      8  O   UNL     1       3.706   3.041  16.539  0.00  0.00    +0.000 OA
ATOM      9  N   UNL     1       4.733   4.710  17.783  0.00  0.00    +0.000 N 
BRANCH   9  10
ATOM     10  C   UNL     1       5.867   5.565  17.927  0.00  0.00    +0.000 A 
ATOM     11  C   UNL     1       6.875   5.235  18.847  0.00  0.00    +0.000 A 
ATOM     12  C   UNL     1       7.953   6.095  19.067  0.00  0.00    +0.000 A 
ATOM     13  C   UNL     1       8.049   7.283  18.346  0.00  0.00    +0.000 A 
ATOM     14  C   UNL     1       7.073   7.604  17.405  0.00  0.00    +0.000 A 
ATOM     15  C   UNL     1       5.981   6.754  17.203  0.00  0.00    +0.000 A 
ENDBRANCH   9  10
BRANCH   7  17
ATOM     16  C   UNL     1       5.475   4.365  14.373  0.00  0.00    +0.000 C 
ATOM     17  C   UNL     1       5.832   3.756  15.721  0.00  0.00    +0.000 C 
ENDBRANCH   7  17
ENDBRANCH   1   9
BRANCH   1  18
ATOM     18  C   UNL     1       3.719   3.406  19.713  0.00  0.00    +0.000 C 
BRANCH  18  19
ATOM     19  O   UNL     1       2.423   2.977  20.147  0.00  0.00    +0.000 OA
ATOM     20  C   UNL     1       2.416   2.696  21.541  0.00  0.00    +0.000 C 
ENDBRANCH  18  19
ENDBRANCH   1  18
BRANCH   4  21
ATOM     21  C   UNL     1       1.682   8.431  17.689  0.00  0.00    +0.000 C 
BRANCH  21  22
ATOM     22  C   UNL     1       2.135   9.667  18.480  0.00  0.00    +0.000 C 
BRANCH  22  23
ATOM     23  N   UNL     1       1.096  10.172  19.332  0.00  0.00    +0.000 N 
ATOM     24  N   UNL     1       0.458   9.400  20.259  0.00  0.00    +0.000 NA
ATOM     25  N   UNL     1      -0.461  10.087  20.804  0.00  0.00    +0.000 NA
ATOM     26  N   UNL     1      -0.448  11.349  20.269  0.00  0.00    +0.000 N 
ATOM     27  C   UNL     1       0.498  11.413  19.266  0.00  0.00    +0.000 A 
ATOM     28  O   UNL     1       0.737  12.331  18.500  0.00  0.00    +0.000 OA
BRANCH  26  29
ATOM     29  C   UNL     1      -1.447  12.351  20.566  0.00  0.00    +0.000 C 
ATOM     30  C   UNL     1      -2.633  12.237  19.610  0.00  0.00    +0.000 C 
ATOM     31  C   UNL     1      -1.907  12.288  22.021  0.00  0.00    +0.000 C 
ENDBRANCH  26  29
ENDBRANCH  22  23
ENDBRANCH  21  22
ENDBRANCH   4  21
TORSDOF 9
ENDMDL
MODEL 6
REMARK VINA RESULT:      -6.2      1.551      1.886
REMARK  Name = 
REMARK  13 active torsions:
REMARK  status: ('A' for Active; 'I' for Inactive)
REMARK    1  A    between atoms: C_1  and  C_2
REMARK    2  A    between atoms: C_2  and  C_3
REMARK    3  A    between atoms: N_5  and  C_6
REMARK    4  A    between atoms: N_5  and  C_12
REMARK    5  A    between atoms: C_12  and  C_13
REMARK    6  A    between atoms: C_13  and  O_14
REMARK    7  A    between atoms: O_14  and  C_15
REMARK    8  A    between atoms: N_18  and  C_19
REMARK    9  A    between atoms: C_19  and  C_20
REMARK   10  A    between atoms: C_20  and  N_21
REMARK   11  A    between atoms: N_24  and  C_25
REMARK   12  A    between atoms: C_25  and  C_26
REMARK   13  A    between atoms: C_25  and  C_27
REMARK                            x       y       z     vdW  Elec       q    Type
REMARK                         _______ _______ _______ _____ _____    ______ ____
ROOT
ATOM      1  C   UNL     1       3.460   4.715  18.745  0.00  0.00    +0.000 C 
ATOM      2  C   UNL     1       2.121   5.014  18.011  0.00  0.00    +0.000 C 
ATOM      3  C   UNL     1       2.079   6.433  17.457  0.00  0.00    +0.000 C 
ATOM      4  N   UNL     1       2.184   7.430  18.529  0.00  0.00    +0.000 NA
ATOM      5  C   UNL     1       3.407   7.239  19.323  0.00  0.00    +0.000 C 
ATOM      6  C   UNL     1       3.539   5.809  19.855  0.00  0.00    +0.000 C 
ENDROOT
BRANCH   1   9
ATOM      7  C   UNL     1       4.556   3.797  16.647  0.00  0.00    +0.000 C 
ATOM      8  O   UNL     1       3.570   3.088  16.419  0.00  0.00    +0.000 OA
ATOM      9  N   UNL     1       4.615   4.682  17.744  0.00  0.00    +0.000 N 
BRANCH   9  10
ATOM     10  C   UNL     1       5.782   5.474  17.962  0.00  0.00    +0.000 A 
ATOM     11  C   UNL     1       6.706   5.095  18.949  0.00  0.00    +0.000 A 
ATOM     12  C   UNL     1       7.813   5.896  19.239  0.00  0.00    +0.000 A 
ATOM     13  C   UNL     1       8.023   7.071  18.522  0.00  0.00    +0.000 A 
ATOM     14  C   UNL     1       7.132   7.439  17.516  0.00  0.00    +0.000 A 
ATOM     15  C   UNL     1       6.011   6.649  17.243  0.00  0.00    +0.000 A 
ENDBRANCH   9  10
BRANCH   7  17
ATOM     16  C   UNL     1       5.497   4.299  14.351  0.00  0.00    +0.000 C 
ATOM     17  C   UNL     1       5.770   3.702  15.725  0.00  0.00    +0.000 C 
ENDBRANCH   7  17
ENDBRANCH   1   9
BRANCH   1  18
ATOM     18  C   UNL     1       3.303   3.326  19.446  0.00  0.00    +0.000 C 
BRANCH  18  19
ATOM     19  O   UNL     1       1.925   2.992  19.643  0.00  0.00    +0.000 OA
ATOM     20  C   UNL     1       1.632   2.816  21.025  0.00  0.00    +0.000 C 
ENDBRANCH  18  19
ENDBRANCH   1  18
BRANCH   4  21
ATOM     21  C   UNL     1       2.152   8.810  17.992  0.00  0.00    +0.000 C 
BRANCH  21  22
ATOM     22  C   UNL     1       0.857   9.568  18.321  0.00  0.00    +0.000 C 
BRANCH  22  23
ATOM     23  N   UNL     1       1.050  10.535  19.364  0.00  0.00    +0.000 N 
ATOM     24  N   UNL     1       0.652  10.325  20.653  0.00  0.00    +0.000 NA
ATOM     25  N   UNL     1       0.878  11.375  21.329  0.00  0.00    +0.000 NA
ATOM     26  N   UNL     1       1.454  12.314  20.513  0.00  0.00    +0.000 N 
ATOM     27  C   UNL     1       1.513  11.827  19.224  0.00  0.00    +0.000 A 
ATOM     28  O   UNL     1       1.870  12.399  18.207  0.00  0.00    +0.000 OA
BRANCH  26  29
ATOM     29  C   UNL     1       1.721  13.674  20.926  0.00  0.00    +0.000 C 
ATOM     30  C   UNL     1       3.196  14.021  20.734  0.00  0.00    +0.000 C 
ATOM     31  C   UNL     1       0.822  14.677  20.208  0.00  0.00    +0.000 C 
ENDBRANCH  26  29
ENDBRANCH  22  23
ENDBRANCH  21  22
ENDBRANCH   4  21
TORSDOF 9
ENDMDL
MODEL 7
REMARK VINA RESULT:      -6.2      1.169      1.765
REMARK  Name = 
REMARK  13 active torsions:
REMARK  status: ('A' for Active; 'I' for Inactive)
REMARK    1  A    between atoms: C_1  and  C_2
REMARK    2  A    between atoms: C_2  and  C_3
REMARK    3  A    between atoms: N_5  and  C_6
REMARK    4  A    between atoms: N_5  and  C_12
REMARK    5  A    between atoms: C_12  and  C_13
REMARK    6  A    between atoms: C_13  and  O_14
REMARK    7  A    between atoms: O_14  and  C_15
REMARK    8  A    between atoms: N_18  and  C_19
REMARK    9  A    between atoms: C_19  and  C_20
REMARK   10  A    between atoms: C_20  and  N_21
REMARK   11  A    between atoms: N_24  and  C_25
REMARK   12  A    between atoms: C_25  and  C_26
REMARK   13  A    between atoms: C_25  and  C_27
REMARK                            x       y       z     vdW  Elec       q    Type
REMARK                         _______ _______ _______ _____ _____    ______ ____
ROOT
ATOM      1  C   UNL     1       3.506   4.683  18.864  0.00  0.00    +0.000 C 
ATOM      2  C   UNL     1       2.125   4.799  18.157  0.00  0.00    +0.000 C 
ATOM      3  C   UNL     1       1.944   6.150  17.476  0.00  0.00    +0.000 C 
ATOM      4  N   UNL     1       1.995   7.250  18.446  0.00  0.00    +0.000 NA
ATOM      5  C   UNL     1       3.253   7.238  19.208  0.00  0.00    +0.000 C 
ATOM      6  C   UNL     1       3.523   5.881  19.865  0.00  0.00    +0.000 C 
ENDROOT
BRANCH   1   9
ATOM      7  C   UNL     1       4.538   3.763  16.736  0.00  0.00    +0.000 C 
ATOM      8  O   UNL     1       3.548   3.051  16.540  0.00  0.00    +0.000 OA
ATOM      9  N   UNL     1       4.629   4.651  17.828  0.00  0.00    +0.000 N 
BRANCH   9  10
ATOM     10  C   UNL     1       5.800   5.447  18.007  0.00  0.00    +0.000 A 
ATOM     11  C   UNL     1       6.732   5.100  18.999  0.00  0.00    +0.000 A 
ATOM     12  C   UNL     1       7.844   5.907  19.250  0.00  0.00    +0.000 A 
ATOM     13  C   UNL     1       8.051   7.057  18.491  0.00  0.00    +0.000 A 
ATOM     14  C   UNL     1       7.151   7.392  17.481  0.00  0.00    +0.000 A 
ATOM     15  C   UNL     1       6.025   6.596  17.246  0.00  0.00    +0.000 A 
ENDBRANCH   9  10
BRANCH   7  17
ATOM     16  C   UNL     1       5.450   4.371  14.453  0.00  0.00    +0.000 C 
ATOM     17  C   UNL     1       5.723   3.670  15.776  0.00  0.00    +0.000 C 
ENDBRANCH   7  17
ENDBRANCH   1   9
BRANCH   1  18
ATOM     18  C   UNL     1       3.490   3.360  19.696  0.00  0.00    +0.000 C 
BRANCH  18  19
ATOM     19  O   UNL     1       2.156   2.876  19.886  0.00  0.00    +0.000 OA
ATOM     20  C   UNL     1       1.811   2.849  21.266  0.00  0.00    +0.000 C 
ENDBRANCH  18  19
ENDBRANCH   1  18
BRANCH   4  21
ATOM     21  C   UNL     1       1.828   8.565  17.786  0.00  0.00    +0.000 C 
BRANCH  21  22
ATOM     22  C   UNL     1       1.582   9.720  18.768  0.00  0.00    +0.000 C 
BRANCH  22  23
ATOM     23  N   UNL     1       0.219  10.170  18.739  0.00  0.00    +0.000 N 
ATOM     24  N   UNL     1      -0.716   9.648  17.893  0.00  0.00    +0.000 NA
ATOM     25  N   UNL     1      -1.802  10.289  18.034  0.00  0.00    +0.000 NA
ATOM     26  N   UNL     1      -1.629  11.249  18.997  0.00  0.00    +0.000 N 
ATOM     27  C   UNL     1      -0.316  11.244  19.420  0.00  0.00    +0.000 A 
ATOM     28  O   UNL     1       0.241  12.007  20.191  0.00  0.00    +0.000 OA
BRANCH  26  29
ATOM     29  C   UNL     1      -2.626  12.247  19.316  0.00  0.00    +0.000 C 
ATOM     30  C   UNL     1      -3.972  11.892  18.690  0.00  0.00    +0.000 C 
ATOM     31  C   UNL     1      -2.761  12.462  20.822  0.00  0.00    +0.000 C 
ENDBRANCH  26  29
ENDBRANCH  22  23
ENDBRANCH  21  22
ENDBRANCH   4  21
TORSDOF 9
ENDMDL
MODEL 8
REMARK VINA RESULT:      -6.2      1.082      1.246
REMARK  Name = 
REMARK  13 active torsions:
REMARK  status: ('A' for Active; 'I' for Inactive)
REMARK    1  A    between atoms: C_1  and  C_2
REMARK    2  A    between atoms: C_2  and  C_3
REMARK    3  A    between atoms: N_5  and  C_6
REMARK    4  A    between atoms: N_5  and  C_12
REMARK    5  A    between atoms: C_12  and  C_13
REMARK    6  A    between atoms: C_13  and  O_14
REMARK    7  A    between atoms: O_14  and  C_15
REMARK    8  A    between atoms: N_18  and  C_19
REMARK    9  A    between atoms: C_19  and  C_20
REMARK   10  A    between atoms: C_20  and  N_21
REMARK   11  A    between atoms: N_24  and  C_25
REMARK   12  A    between atoms: C_25  and  C_26
REMARK   13  A    between atoms: C_25  and  C_27
REMARK                            x       y       z     vdW  Elec       q    Type
REMARK                         _______ _______ _______ _____ _____    ______ ____
ROOT
ATOM      1  C   UNL     1       3.387   4.697  18.912  0.00  0.00    +0.000 C 
ATOM      2  C   UNL     1       2.019   4.795  18.177  0.00  0.00    +0.000 C 
ATOM      3  C   UNL     1       1.825   6.153  17.513  0.00  0.00    +0.000 C 
ATOM      4  N   UNL     1       1.833   7.238  18.501  0.00  0.00    +0.000 NA
ATOM      5  C   UNL     1       3.074   7.240  19.289  0.00  0.00    +0.000 C 
ATOM      6  C   UNL     1       3.358   5.878  19.931  0.00  0.00    +0.000 C 
ENDROOT
BRANCH   1   9
ATOM      7  C   UNL     1       4.481   3.833  16.790  0.00  0.00    +0.000 C 
ATOM      8  O   UNL     1       3.508   3.106  16.562  0.00  0.00    +0.000 OA
ATOM      9  N   UNL     1       4.532   4.703  17.900  0.00  0.00    +0.000 N 
BRANCH   9  10
ATOM     10  C   UNL     1       5.684   5.517  18.117  0.00  0.00    +0.000 A 
ATOM     11  C   UNL     1       5.875   6.674  17.345  0.00  0.00    +0.000 A 
ATOM     12  C   UNL     1       7.034   7.442  17.480  0.00  0.00    +0.000 A 
ATOM     13  C   UNL     1       8.003   7.075  18.411  0.00  0.00    +0.000 A 
ATOM     14  C   UNL     1       7.808   5.948  19.207  0.00  0.00    +0.000 A 
ATOM     15  C   UNL     1       6.658   5.166  19.055  0.00  0.00    +0.000 A 
ENDBRANCH   9  10
BRANCH   7  17
ATOM     16  C   UNL     1       5.412   4.457  14.520  0.00  0.00    +0.000 C 
ATOM     17  C   UNL     1       5.687   3.778  15.854  0.00  0.00    +0.000 C 
ENDBRANCH   7  17
ENDBRANCH   1   9
BRANCH   1  18
ATOM     18  C   UNL     1       3.381   3.360  19.723  0.00  0.00    +0.000 C 
BRANCH  18  19
ATOM     19  O   UNL     1       2.788   3.534  21.016  0.00  0.00    +0.000 OA
ATOM     20  C   UNL     1       1.650   2.696  21.175  0.00  0.00    +0.000 C 
ENDBRANCH  18  19
ENDBRANCH   1  18
BRANCH   4  21
ATOM     21  C   UNL     1       1.652   8.559  17.857  0.00  0.00    +0.000 C 
BRANCH  21  22
ATOM     22  C   UNL     1       2.032   9.742  18.761  0.00  0.00    +0.000 C 
BRANCH  22  23
ATOM     23  N   UNL     1       0.877  10.415  19.282  0.00  0.00    +0.000 N 
ATOM     24  N   UNL     1      -0.067  10.995  18.483  0.00  0.00    +0.000 NA
ATOM     25  N   UNL     1      -0.923  11.578  19.216  0.00  0.00    +0.000 NA
ATOM     26  N   UNL     1      -0.587  11.387  20.531  0.00  0.00    +0.000 N 
ATOM     27  C   UNL     1       0.608  10.701  20.604  0.00  0.00    +0.000 A 
ATOM     28  O   UNL     1       1.272  10.428  21.590  0.00  0.00    +0.000 OA
BRANCH  26  29
ATOM     29  C   UNL     1      -1.274  12.027  21.631  0.00  0.00    +0.000 C 
ATOM     30  C   UNL     1      -0.476  13.223  22.146  0.00  0.00    +0.000 C 
ATOM     31  C   UNL     1      -2.697  12.436  21.259  0.00  0.00    +0.000 C 
ENDBRANCH  26  29
ENDBRANCH  22  23
ENDBRANCH  21  22
ENDBRANCH   4  21
TORSDOF 9
ENDMDL
MODEL 9
REMARK VINA RESULT:      -6.2      1.438      1.711
REMARK  Name = 
REMARK  13 active torsions:
REMARK  status: ('A' for Active; 'I' for Inactive)
REMARK    1  A    between atoms: C_1  and  C_2
REMARK    2  A    between atoms: C_2  and  C_3
REMARK    3  A    between atoms: N_5  and  C_6
REMARK    4  A    between atoms: N_5  and  C_12
REMARK    5  A    between atoms: C_12  and  C_13
REMARK    6  A    between atoms: C_13  and  O_14
REMARK    7  A    between atoms: O_14  and  C_15
REMARK    8  A    between atoms: N_18  and  C_19
REMARK    9  A    between atoms: C_19  and  C_20
REMARK   10  A    between atoms: C_20  and  N_21
REMARK   11  A    between atoms: N_24  and  C_25
REMARK   12  A    between atoms: C_25  and  C_26
REMARK   13  A    between atoms: C_25  and  C_27
REMARK                            x       y       z     vdW  Elec       q    Type
REMARK                         _______ _______ _______ _____ _____    ______ ____
ROOT
ATOM      1  C   UNL     1       3.970   4.314  18.349  0.00  0.00    +0.000 C 
ATOM      2  C   UNL     1       2.553   4.553  17.753  0.00  0.00    +0.000 C 
ATOM      3  C   UNL     1       2.233   6.038  17.619  0.00  0.00    +0.000 C 
ATOM      4  N   UNL     1       2.242   6.707  18.925  0.00  0.00    +0.000 NA
ATOM      5  C   UNL     1       3.531   6.533  19.611  0.00  0.00    +0.000 C 
ATOM      6  C   UNL     1       3.938   5.060  19.719  0.00  0.00    +0.000 C 
ENDROOT
BRANCH   1   9
ATOM      7  C   UNL     1       5.046   4.232  16.052  0.00  0.00    +0.000 C 
ATOM      8  O   UNL     1       4.170   3.460  15.648  0.00  0.00    +0.000 OA
ATOM      9  N   UNL     1       5.042   4.764  17.358  0.00  0.00    +0.000 N 
BRANCH   9  10
ATOM     10  C   UNL     1       6.084   5.648  17.772  0.00  0.00    +0.000 A 
ATOM     11  C   UNL     1       6.175   6.930  17.207  0.00  0.00    +0.000 A 
ATOM     12  C   UNL     1       7.231   7.783  17.534  0.00  0.00    +0.000 A 
ATOM     13  C   UNL     1       8.195   7.372  18.452  0.00  0.00    +0.000 A 
ATOM     14  C   UNL     1       8.095   6.115  19.045  0.00  0.00    +0.000 A 
ATOM     15  C   UNL     1       7.050   5.252  18.700  0.00  0.00    +0.000 A 
ENDBRANCH   9  10
BRANCH   7  17
ATOM     16  C   UNL     1       6.102   3.897  13.775  0.00  0.00    +0.000 C 
ATOM     17  C   UNL     1       6.192   4.612  15.116  0.00  0.00    +0.000 C 
ENDBRANCH   7  17
ENDBRANCH   1   9
BRANCH   1  18
ATOM     18  C   UNL     1       4.098   2.783  18.637  0.00  0.00    +0.000 C 
BRANCH  18  19
ATOM     19  O   UNL     1       3.829   2.483  20.011  0.00  0.00    +0.000 OA
ATOM     20  C   UNL     1       4.842   1.651  20.563  0.00  0.00    +0.000 C 
ENDBRANCH  18  19
ENDBRANCH   1  18
BRANCH   4  21
ATOM     21  C   UNL     1       1.940   8.151  18.796  0.00  0.00    +0.000 C 
BRANCH  21  22
ATOM     22  C   UNL     1       1.377   8.780  20.080  0.00  0.00    +0.000 C 
BRANCH  22  23
ATOM     23  N   UNL     1       0.722  10.031  19.825  0.00  0.00    +0.000 N 
ATOM     24  N   UNL     1       0.503  10.510  18.565  0.00  0.00    +0.000 NA
ATOM     25  N   UNL     1      -0.018  11.664  18.649  0.00  0.00    +0.000 NA
ATOM     26  N   UNL     1      -0.181  11.983  19.972  0.00  0.00    +0.000 N 
ATOM     27  C   UNL     1       0.352  10.980  20.755  0.00  0.00    +0.000 A 
ATOM     28  O   UNL     1       0.481  10.945  21.968  0.00  0.00    +0.000 OA
BRANCH  26  29
ATOM     29  C   UNL     1      -0.625  13.280  20.430  0.00  0.00    +0.000 C 
ATOM     30  C   UNL     1      -0.376  14.347  19.367  0.00  0.00    +0.000 C 
ATOM     31  C   UNL     1      -2.089  13.266  20.862  0.00  0.00    +0.000 C 
ENDBRANCH  26  29
ENDBRANCH  22  23
ENDBRANCH  21  22
ENDBRANCH   4  21
TORSDOF 9
ENDMDL
