MODEL 1
REMARK VINA RESULT:      -6.9      0.000      0.000
REMARK  Name = 
REMARK  2 active torsions:
REMARK  status: ('A' for Active; 'I' for Inactive)
REMARK    1  A    between atoms: C_1  and  N_2
REMARK    2  A    between atoms: C_7  and  O_8
REMARK                            x       y       z     vdW  Elec       q    Type
REMARK                         _______ _______ _______ _____ _____    ______ ____
ROOT
ATOM      1  C   UNL     1      -0.857  14.155  19.837  0.00  0.00    +0.000 C 
ATOM      2  N   UNL     1      -0.917  12.941  19.041  0.00  0.00    +0.000 NA
ATOM      3  C   UNL     1       0.382  12.254  19.101  0.00  0.00    +0.000 C 
ATOM      4  C   UNL     1       0.067  11.040  18.282  0.00  0.00    +0.000 C 
ATOM      5  C   UNL     1      -1.302  10.613  18.829  0.00  0.00    +0.000 C 
ATOM      6  C   UNL     1      -2.042   9.801  17.777  0.00  0.00    +0.000 C 
ATOM      7  C   UNL     1      -2.967  10.647  16.923  0.00  0.00    +0.000 C 
ATOM      8  C   UNL     1      -3.968  11.293  17.865  0.00  0.00    +0.000 C 
ATOM      9  O   UNL     1      -4.996  11.944  17.097  0.00  0.00    +0.000 OA
ATOM     10  C   UNL     1      -6.074  12.399  17.787  0.00  0.00    +0.000 C 
ATOM     11  O   UNL     1      -7.124  12.705  17.240  0.00  0.00    +0.000 OA
ATOM     12  C   UNL     1      -5.895  12.478  19.266  0.00  0.00    +0.000 A 
ATOM     13  C   UNL     1      -7.062  12.522  20.043  0.00  0.00    +0.000 A 
ATOM     14  C   UNL     1      -6.905  12.546  21.402  0.00  0.00    +0.000 A 
ATOM     15  C   UNL     1      -5.659  12.557  21.989  0.00  0.00    +0.000 A 
ATOM     16  C   UNL     1      -4.482  12.520  21.248  0.00  0.00    +0.000 A 
ATOM     17  C   UNL     1      -4.581  12.453  19.852  0.00  0.00    +0.000 A 
ATOM     18  C   UNL     1      -3.391  12.301  18.877  0.00  0.00    +0.000 C 
ATOM     19  C   UNL     1      -1.954  11.927  19.404  0.00  0.00    +0.000 C 
ATOM     20  O   UNL     1      -5.742  12.573  23.349  0.00  0.00    +0.000 OA
ATOM     21  C   UNL     1      -7.169  12.597  23.548  0.00  0.00    +0.000 C 
ATOM     22  O   UNL     1      -7.916  12.554  22.315  0.00  0.00    +0.000 OA
ENDROOT
BRANCH   7  23
ATOM     23  O   UNL     1      -2.230  11.562  16.125  0.00  0.00    +0.000 OA
ATOM     24  H   UNL     1      -1.291  11.308  16.109  0.00  0.00    +0.000 HD
ENDBRANCH   7  23
TORSDOF 1
ENDMDL
MODEL 2
REMARK VINA RESULT:      -6.8     10.581     13.691
REMARK  Name = 
REMARK  2 active torsions:
REMARK  status: ('A' for Active; 'I' for Inactive)
REMARK    1  A    between atoms: C_1  and  N_2
REMARK    2  A    between atoms: C_7  and  O_8
REMARK                            x       y       z     vdW  Elec       q    Type
REMARK                         _______ _______ _______ _____ _____    ______ ____
ROOT
ATOM      1  C   UNL     1       1.036   4.511  17.129  0.00  0.00    +0.000 C 
ATOM      2  N   UNL     1       1.662   3.673  18.137  0.00  0.00    +0.000 NA
ATOM      3  C   UNL     1       0.769   2.550  18.461  0.00  0.00    +0.000 C 
ATOM      4  C   UNL     1       1.627   1.817  19.445  0.00  0.00    +0.000 C 
ATOM      5  C   UNL     1       3.000   1.821  18.761  0.00  0.00    +0.000 C 
ATOM      6  C   UNL     1       4.093   1.668  19.808  0.00  0.00    +0.000 C 
ATOM      7  C   UNL     1       4.644   2.998  20.283  0.00  0.00    +0.000 C 
ATOM      8  C   UNL     1       5.205   3.704  19.059  0.00  0.00    +0.000 C 
ATOM      9  O   UNL     1       5.924   4.879  19.473  0.00  0.00    +0.000 OA
ATOM     10  C   UNL     1       6.654   5.512  18.519  0.00  0.00    +0.000 C 
ATOM     11  O   UNL     1       7.521   6.332  18.789  0.00  0.00    +0.000 OA
ATOM     12  C   UNL     1       6.342   5.120  17.114  0.00  0.00    +0.000 A 
ATOM     13  C   UNL     1       7.318   5.401  16.147  0.00  0.00    +0.000 A 
ATOM     14  C   UNL     1       7.058   5.000  14.865  0.00  0.00    +0.000 A 
ATOM     15  C   UNL     1       5.878   4.373  14.525  0.00  0.00    +0.000 A 
ATOM     16  C   UNL     1       4.888   4.085  15.458  0.00  0.00    +0.000 A 
ATOM     17  C   UNL     1       5.116   4.436  16.795  0.00  0.00    +0.000 A 
ATOM     18  C   UNL     1       4.181   4.103  17.980  0.00  0.00    +0.000 C 
ATOM     19  C   UNL     1       2.994   3.080  17.813  0.00  0.00    +0.000 C 
ATOM     20  O   UNL     1       5.838   4.057  13.200  0.00  0.00    +0.000 OA
ATOM     21  C   UNL     1       7.104   4.575  12.744  0.00  0.00    +0.000 C 
ATOM     22  O   UNL     1       7.896   5.152  13.802  0.00  0.00    +0.000 OA
ENDROOT
BRANCH   7  23
ATOM     23  O   UNL     1       3.659   3.736  20.990  0.00  0.00    +0.000 OA
ATOM     24  H   UNL     1       2.813   3.706  20.511  0.00  0.00    +0.000 HD
ENDBRANCH   7  23
TORSDOF 1
ENDMDL
MODEL 3
REMARK VINA RESULT:      -6.7      7.365     10.332
REMARK  Name = 
REMARK  2 active torsions:
REMARK  status: ('A' for Active; 'I' for Inactive)
REMARK    1  A    between atoms: C_1  and  N_2
REMARK    2  A    between atoms: C_7  and  O_8
REMARK                            x       y       z     vdW  Elec       q    Type
REMARK                         _______ _______ _______ _____ _____    ______ ____
ROOT
ATOM      1  C   UNL     1       4.822   5.448  14.857  0.00  0.00    +0.000 C 
ATOM      2  N   UNL     1       5.618   5.117  16.026  0.00  0.00    +0.000 NA
ATOM      3  C   UNL     1       7.036   5.039  15.645  0.00  0.00    +0.000 C 
ATOM      4  C   UNL     1       7.645   4.755  16.984  0.00  0.00    +0.000 C 
ATOM      5  C   UNL     1       6.921   5.750  17.900  0.00  0.00    +0.000 C 
ATOM      6  C   UNL     1       6.950   5.241  19.333  0.00  0.00    +0.000 C 
ATOM      7  C   UNL     1       5.713   4.444  19.699  0.00  0.00    +0.000 C 
ATOM      8  C   UNL     1       4.522   5.369  19.511  0.00  0.00    +0.000 C 
ATOM      9  O   UNL     1       3.340   4.739  20.036  0.00  0.00    +0.000 OA
ATOM     10  C   UNL     1       2.228   5.513  20.126  0.00  0.00    +0.000 C 
ATOM     11  O   UNL     1       1.259   5.199  20.804  0.00  0.00    +0.000 OA
ATOM     12  C   UNL     1       2.278   6.791  19.356  0.00  0.00    +0.000 A 
ATOM     13  C   UNL     1       1.378   7.796  19.740  0.00  0.00    +0.000 A 
ATOM     14  C   UNL     1       1.452   8.986  19.070  0.00  0.00    +0.000 A 
ATOM     15  C   UNL     1       2.348   9.187  18.042  0.00  0.00    +0.000 A 
ATOM     16  C   UNL     1       3.249   8.210  17.633  0.00  0.00    +0.000 A 
ATOM     17  C   UNL     1       3.248   6.983  18.311  0.00  0.00    +0.000 A 
ATOM     18  C   UNL     1       4.242   5.825  18.067  0.00  0.00    +0.000 C 
ATOM     19  C   UNL     1       5.540   6.040  17.199  0.00  0.00    +0.000 C 
ATOM     20  O   UNL     1       2.252  10.445  17.527  0.00  0.00    +0.000 OA
ATOM     21  C   UNL     1       1.185  10.999  18.322  0.00  0.00    +0.000 C 
ATOM     22  O   UNL     1       0.689  10.086  19.323  0.00  0.00    +0.000 OA
ENDROOT
BRANCH   7  23
ATOM     23  O   UNL     1       5.645   3.235  18.957  0.00  0.00    +0.000 OA
ATOM     24  H   UNL     1       4.814   2.770  19.155  0.00  0.00    +0.000 HD
ENDBRANCH   7  23
TORSDOF 1
ENDMDL
MODEL 4
REMARK VINA RESULT:      -6.7      1.831      3.257
REMARK  Name = 
REMARK  2 active torsions:
REMARK  status: ('A' for Active; 'I' for Inactive)
REMARK    1  A    between atoms: C_1  and  N_2
REMARK    2  A    between atoms: C_7  and  O_8
REMARK                            x       y       z     vdW  Elec       q    Type
REMARK                         _______ _______ _______ _____ _____    ______ ____
ROOT
ATOM      1  C   UNL     1      -0.471  14.911  19.221  0.00  0.00    +0.000 C 
ATOM      2  N   UNL     1       0.175  13.636  19.482  0.00  0.00    +0.000 NA
ATOM      3  C   UNL     1       1.171  13.804  20.549  0.00  0.00    +0.000 C 
ATOM      4  C   UNL     1       1.647  12.390  20.680  0.00  0.00    +0.000 C 
ATOM      5  C   UNL     1       0.336  11.594  20.669  0.00  0.00    +0.000 C 
ATOM      6  C   UNL     1       0.606  10.170  20.205  0.00  0.00    +0.000 C 
ATOM      7  C   UNL     1       0.395   9.987  18.714  0.00  0.00    +0.000 C 
ATOM      8  C   UNL     1      -1.051  10.352  18.426  0.00  0.00    +0.000 C 
ATOM      9  O   UNL     1      -1.370  10.004  17.067  0.00  0.00    +0.000 OA
ATOM     10  C   UNL     1      -2.678  10.081  16.711  0.00  0.00    +0.000 C 
ATOM     11  O   UNL     1      -3.118   9.551  15.700  0.00  0.00    +0.000 OA
ATOM     12  C   UNL     1      -3.551  10.839  17.655  0.00  0.00    +0.000 A 
ATOM     13  C   UNL     1      -4.930  10.595  17.575  0.00  0.00    +0.000 A 
ATOM     14  C   UNL     1      -5.730  11.250  18.470  0.00  0.00    +0.000 A 
ATOM     15  C   UNL     1      -5.216  12.135  19.392  0.00  0.00    +0.000 A 
ATOM     16  C   UNL     1      -3.855  12.405  19.494  0.00  0.00    +0.000 A 
ATOM     17  C   UNL     1      -2.982  11.731  18.630  0.00  0.00    +0.000 A 
ATOM     18  C   UNL     1      -1.439  11.823  18.667  0.00  0.00    +0.000 C 
ATOM     19  C   UNL     1      -0.696  12.491  19.885  0.00  0.00    +0.000 C 
ATOM     20  O   UNL     1      -6.191  12.663  20.185  0.00  0.00    +0.000 OA
ATOM     21  C   UNL     1      -7.370  12.035  19.643  0.00  0.00    +0.000 C 
ATOM     22  O   UNL     1      -7.082  11.115  18.570  0.00  0.00    +0.000 OA
ENDROOT
BRANCH   7  23
ATOM     23  O   UNL     1       1.351  10.728  17.969  0.00  0.00    +0.000 OA
ATOM     24  H   UNL     1       2.195  10.762  18.452  0.00  0.00    +0.000 HD
ENDBRANCH   7  23
TORSDOF 1
ENDMDL
MODEL 5
REMARK VINA RESULT:      -6.3     10.779     12.855
REMARK  Name = 
REMARK  2 active torsions:
REMARK  status: ('A' for Active; 'I' for Inactive)
REMARK    1  A    between atoms: C_1  and  N_2
REMARK    2  A    between atoms: C_7  and  O_8
REMARK                            x       y       z     vdW  Elec       q    Type
REMARK                         _______ _______ _______ _____ _____    ______ ____
ROOT
ATOM      1  C   UNL     1       5.175   1.780  20.963  0.00  0.00    +0.000 C 
ATOM      2  N   UNL     1       3.864   2.169  20.474  0.00  0.00    +0.000 NA
ATOM      3  C   UNL     1       2.885   2.065  21.567  0.00  0.00    +0.000 C 
ATOM      4  C   UNL     1       1.660   2.558  20.861  0.00  0.00    +0.000 C 
ATOM      5  C   UNL     1       2.179   3.793  20.113  0.00  0.00    +0.000 C 
ATOM      6  C   UNL     1       1.286   4.078  18.915  0.00  0.00    +0.000 C 
ATOM      7  C   UNL     1       1.797   3.444  17.636  0.00  0.00    +0.000 C 
ATOM      8  C   UNL     1       3.184   4.014  17.386  0.00  0.00    +0.000 C 
ATOM      9  O   UNL     1       3.639   3.608  16.082  0.00  0.00    +0.000 OA
ATOM     10  C   UNL     1       4.774   4.197  15.625  0.00  0.00    +0.000 C 
ATOM     11  O   UNL     1       5.106   4.162  14.448  0.00  0.00    +0.000 OA
ATOM     12  C   UNL     1       5.580   4.912  16.657  0.00  0.00    +0.000 A 
ATOM     13  C   UNL     1       6.494   5.870  16.194  0.00  0.00    +0.000 A 
ATOM     14  C   UNL     1       7.201   6.563  17.137  0.00  0.00    +0.000 A 
ATOM     15  C   UNL     1       7.049   6.317  18.485  0.00  0.00    +0.000 A 
ATOM     16  C   UNL     1       6.156   5.372  18.977  0.00  0.00    +0.000 A 
ATOM     17  C   UNL     1       5.375   4.659  18.058  0.00  0.00    +0.000 A 
ATOM     18  C   UNL     1       4.262   3.650  18.424  0.00  0.00    +0.000 C 
ATOM     19  C   UNL     1       3.719   3.540  19.899  0.00  0.00    +0.000 C 
ATOM     20  O   UNL     1       7.844   7.128  19.239  0.00  0.00    +0.000 OA
ATOM     21  C   UNL     1       8.526   7.887  18.220  0.00  0.00    +0.000 C 
ATOM     22  O   UNL     1       8.104   7.551  16.882  0.00  0.00    +0.000 OA
ENDROOT
BRANCH   7  23
ATOM     23  O   UNL     1       1.746   2.026  17.712  0.00  0.00    +0.000 OA
ATOM     24  H   UNL     1       1.394   1.662  16.882  0.00  0.00    +0.000 HD
ENDBRANCH   7  23
TORSDOF 1
ENDMDL
MODEL 6
REMARK VINA RESULT:      -6.3      2.950      6.053
REMARK  Name = 
REMARK  2 active torsions:
REMARK  status: ('A' for Active; 'I' for Inactive)
REMARK    1  A    between atoms: C_1  and  N_2
REMARK    2  A    between atoms: C_7  and  O_8
REMARK                            x       y       z     vdW  Elec       q    Type
REMARK                         _______ _______ _______ _____ _____    ______ ____
ROOT
ATOM      1  C   UNL     1      -2.678  15.658  20.525  0.00  0.00    +0.000 C 
ATOM      2  N   UNL     1      -2.562  14.712  21.620  0.00  0.00    +0.000 NA
ATOM      3  C   UNL     1      -3.431  15.138  22.728  0.00  0.00    +0.000 C 
ATOM      4  C   UNL     1      -3.196  14.012  23.686  0.00  0.00    +0.000 C 
ATOM      5  C   UNL     1      -3.285  12.777  22.780  0.00  0.00    +0.000 C 
ATOM      6  C   UNL     1      -2.514  11.625  23.408  0.00  0.00    +0.000 C 
ATOM      7  C   UNL     1      -1.085  11.532  22.909  0.00  0.00    +0.000 C 
ATOM      8  C   UNL     1      -1.155  11.339  21.404  0.00  0.00    +0.000 C 
ATOM      9  O   UNL     1       0.159  11.040  20.899  0.00  0.00    +0.000 OA
ATOM     10  C   UNL     1       0.236  10.643  19.603  0.00  0.00    +0.000 C 
ATOM     11  O   UNL     1       1.226  10.094  19.139  0.00  0.00    +0.000 OA
ATOM     12  C   UNL     1      -0.985  10.902  18.785  0.00  0.00    +0.000 A 
ATOM     13  C   UNL     1      -1.127  10.155  17.606  0.00  0.00    +0.000 A 
ATOM     14  C   UNL     1      -2.268  10.353  16.877  0.00  0.00    +0.000 A 
ATOM     15  C   UNL     1      -3.225  11.266  17.261  0.00  0.00    +0.000 A 
ATOM     16  C   UNL     1      -3.113  12.027  18.419  0.00  0.00    +0.000 A 
ATOM     17  C   UNL     1      -1.985  11.837  19.228  0.00  0.00    +0.000 A 
ATOM     18  C   UNL     1      -1.742  12.512  20.597  0.00  0.00    +0.000 C 
ATOM     19  C   UNL     1      -2.899  13.284  21.338  0.00  0.00    +0.000 C 
ATOM     20  O   UNL     1      -4.276  11.291  16.393  0.00  0.00    +0.000 OA
ATOM     21  C   UNL     1      -3.861  10.317  15.414  0.00  0.00    +0.000 C 
ATOM     22  O   UNL     1      -2.597   9.698  15.729  0.00  0.00    +0.000 OA
ENDROOT
BRANCH   7  23
ATOM     23  O   UNL     1      -0.325  12.658  23.326  0.00  0.00    +0.000 OA
ATOM     24  H   UNL     1      -0.894  13.283  23.807  0.00  0.00    +0.000 HD
ENDBRANCH   7  23
TORSDOF 1
ENDMDL
MODEL 7
REMARK VINA RESULT:      -6.2      7.182     10.294
REMARK  Name = 
REMARK  2 active torsions:
REMARK  status: ('A' for Active; 'I' for Inactive)
REMARK    1  A    between atoms: C_1  and  N_2
REMARK    2  A    between atoms: C_7  and  O_8
REMARK                            x       y       z     vdW  Elec       q    Type
REMARK                         _______ _______ _______ _____ _____    ______ ____
ROOT
ATOM      1  C   UNL     1       2.521   4.245  21.939  0.00  0.00    +0.000 C 
ATOM      2  N   UNL     1       2.475   3.479  20.706  0.00  0.00    +0.000 NA
ATOM      3  C   UNL     1       1.606   2.307  20.892  0.00  0.00    +0.000 C 
ATOM      4  C   UNL     1       1.665   1.724  19.514  0.00  0.00    +0.000 C 
ATOM      5  C   UNL     1       1.481   2.957  18.620  0.00  0.00    +0.000 C 
ATOM      6  C   UNL     1       2.084   2.690  17.249  0.00  0.00    +0.000 C 
ATOM      7  C   UNL     1       3.517   3.174  17.132  0.00  0.00    +0.000 C 
ATOM      8  C   UNL     1       3.500   4.670  17.399  0.00  0.00    +0.000 C 
ATOM      9  O   UNL     1       4.795   5.223  17.102  0.00  0.00    +0.000 OA
ATOM     10  C   UNL     1       4.890   6.577  17.097  0.00  0.00    +0.000 C 
ATOM     11  O   UNL     1       5.833   7.169  16.591  0.00  0.00    +0.000 OA
ATOM     12  C   UNL     1       3.748   7.298  17.733  0.00  0.00    +0.000 A 
ATOM     13  C   UNL     1       3.581   8.647  17.388  0.00  0.00    +0.000 A 
ATOM     14  C   UNL     1       2.508   9.300  17.930  0.00  0.00    +0.000 A 
ATOM     15  C   UNL     1       1.642   8.675  18.801  0.00  0.00    +0.000 A 
ATOM     16  C   UNL     1       1.783   7.341  19.168  0.00  0.00    +0.000 A 
ATOM     17  C   UNL     1       2.841   6.609  18.612  0.00  0.00    +0.000 A 
ATOM     18  C   UNL     1       3.091   5.098  18.820  0.00  0.00    +0.000 C 
ATOM     19  C   UNL     1       1.993   4.178  19.476  0.00  0.00    +0.000 C 
ATOM     20  O   UNL     1       0.645   9.510  19.208  0.00  0.00    +0.000 OA
ATOM     21  C   UNL     1       0.995  10.728  18.521  0.00  0.00    +0.000 C 
ATOM     22  O   UNL     1       2.164  10.595  17.686  0.00  0.00    +0.000 OA
ENDROOT
BRANCH   7  23
ATOM     23  O   UNL     1       4.378   2.431  17.983  0.00  0.00    +0.000 OA
ATOM     24  H   UNL     1       3.906   2.183  18.797  0.00  0.00    +0.000 HD
ENDBRANCH   7  23
TORSDOF 1
ENDMDL
MODEL 8
REMARK VINA RESULT:      -6.2      1.625      2.500
REMARK  Name = 
REMARK  2 active torsions:
REMARK  status: ('A' for Active; 'I' for Inactive)
REMARK    1  A    between atoms: C_1  and  N_2
REMARK    2  A    between atoms: C_7  and  O_8
REMARK                            x       y       z     vdW  Elec       q    Type
REMARK                         _______ _______ _______ _____ _____    ______ ____
ROOT
ATOM      1  C   UNL     1      -1.685  15.595  20.631  0.00  0.00    +0.000 C 
ATOM      2  N   UNL     1      -0.838  14.435  20.420  0.00  0.00    +0.000 NA
ATOM      3  C   UNL     1       0.323  14.508  21.321  0.00  0.00    +0.000 C 
ATOM      4  C   UNL     1       0.997  13.217  20.974  0.00  0.00    +0.000 C 
ATOM      5  C   UNL     1      -0.172  12.224  20.949  0.00  0.00    +0.000 C 
ATOM      6  C   UNL     1       0.185  11.035  20.069  0.00  0.00    +0.000 C 
ATOM      7  C   UNL     1      -0.296  11.196  18.640  0.00  0.00    +0.000 C 
ATOM      8  C   UNL     1      -1.806  11.352  18.697  0.00  0.00    +0.000 C 
ATOM      9  O   UNL     1      -2.343  11.304  17.363  0.00  0.00    +0.000 OA
ATOM     10  C   UNL     1      -3.694  11.229  17.254  0.00  0.00    +0.000 C 
ATOM     11  O   UNL     1      -4.254  10.899  16.218  0.00  0.00    +0.000 OA
ATOM     12  C   UNL     1      -4.451  11.555  18.498  0.00  0.00    +0.000 A 
ATOM     13  C   UNL     1      -5.773  11.093  18.573  0.00  0.00    +0.000 A 
ATOM     14  C   UNL     1      -6.457  11.348  19.730  0.00  0.00    +0.000 A 
ATOM     15  C   UNL     1      -5.889  12.052  20.769  0.00  0.00    +0.000 A 
ATOM     16  C   UNL     1      -4.584  12.529  20.725  0.00  0.00    +0.000 A 
ATOM     17  C   UNL     1      -3.821  12.263  19.580  0.00  0.00    +0.000 A 
ATOM     18  C   UNL     1      -2.328  12.621  19.397  0.00  0.00    +0.000 C 
ATOM     19  C   UNL     1      -1.450  13.086  20.620  0.00  0.00    +0.000 C 
ATOM     20  O   UNL     1      -6.747  12.179  21.821  0.00  0.00    +0.000 OA
ATOM     21  C   UNL     1      -7.917  11.503  21.320  0.00  0.00    +0.000 C 
ATOM     22  O   UNL     1      -7.732  10.949  20.000  0.00  0.00    +0.000 OA
ENDROOT
BRANCH   7  23
ATOM     23  O   UNL     1       0.384  12.260  17.989  0.00  0.00    +0.000 OA
ATOM     24  H   UNL     1      -0.032  13.109  18.218  0.00  0.00    +0.000 HD
ENDBRANCH   7  23
TORSDOF 1
ENDMDL
MODEL 9
REMARK VINA RESULT:      -6.2      9.932     13.295
REMARK  Name = 
REMARK  2 active torsions:
REMARK  status: ('A' for Active; 'I' for Inactive)
REMARK    1  A    between atoms: C_1  and  N_2
REMARK    2  A    between atoms: C_7  and  O_8
REMARK                            x       y       z     vdW  Elec       q    Type
REMARK                         _______ _______ _______ _____ _____    ______ ____
ROOT
ATOM      1  C   UNL     1       9.558  12.360  21.442  0.00  0.00    +0.000 C 
ATOM      2  N   UNL     1      10.260  12.478  20.176  0.00  0.00    +0.000 NA
ATOM      3  C   UNL     1      10.778  11.159  19.782  0.00  0.00    +0.000 C 
ATOM      4  C   UNL     1      11.391  11.510  18.461  0.00  0.00    +0.000 C 
ATOM      5  C   UNL     1      10.308  12.381  17.810  0.00  0.00    +0.000 C 
ATOM      6  C   UNL     1      10.942  13.293  16.771  0.00  0.00    +0.000 C 
ATOM      7  C   UNL     1      11.300  14.658  17.327  0.00  0.00    +0.000 C 
ATOM      8  C   UNL     1      10.010  15.280  17.833  0.00  0.00    +0.000 C 
ATOM      9  O   UNL     1      10.248  16.655  18.186  0.00  0.00    +0.000 OA
ATOM     10  C   UNL     1       9.154  17.408  18.466  0.00  0.00    +0.000 C 
ATOM     11  O   UNL     1       9.186  18.631  18.497  0.00  0.00    +0.000 OA
ATOM     12  C   UNL     1       7.899  16.640  18.712  0.00  0.00    +0.000 A 
ATOM     13  C   UNL     1       6.692  17.343  18.582  0.00  0.00    +0.000 A 
ATOM     14  C   UNL     1       5.536  16.632  18.759  0.00  0.00    +0.000 A 
ATOM     15  C   UNL     1       5.549  15.293  19.080  0.00  0.00    +0.000 A 
ATOM     16  C   UNL     1       6.727  14.568  19.223  0.00  0.00    +0.000 A 
ATOM     17  C   UNL     1       7.942  15.234  19.013  0.00  0.00    +0.000 A 
ATOM     18  C   UNL     1       9.339  14.571  19.024  0.00  0.00    +0.000 C 
ATOM     19  C   UNL     1       9.493  13.003  19.006  0.00  0.00    +0.000 C 
ATOM     20  O   UNL     1       4.288  14.790  19.200  0.00  0.00    +0.000 OA
ATOM     21  C   UNL     1       3.488  15.961  18.945  0.00  0.00    +0.000 C 
ATOM     22  O   UNL     1       4.274  17.131  18.638  0.00  0.00    +0.000 OA
ENDROOT
BRANCH   7  23
ATOM     23  O   UNL     1      12.330  14.559  18.300  0.00  0.00    +0.000 OA
ATOM     24  H   UNL     1      12.830  13.735  18.171  0.00  0.00    +0.000 HD
ENDBRANCH   7  23
TORSDOF 1
ENDMDL
