MODEL 1
REMARK VINA RESULT:      -6.7      0.000      0.000
REMARK  Name = 
REMARK  5 active torsions:
REMARK  status: ('A' for Active; 'I' for Inactive)
REMARK    1  A    between atoms: C_2  and  C_3
REMARK    2  A    between atoms: C_8  and  N_9
REMARK    3  A    between atoms: C_19  and  C_20
REMARK    4  A    between atoms: C_20  and  C_21
REMARK    5  A    between atoms: C_23  and  N_24
REMARK                            x       y       z     vdW  Elec       q    Type
REMARK                         _______ _______ _______ _____ _____    ______ ____
ROOT
ATOM      1  O   UNL     1      -0.965  13.382  19.227  0.00  0.00    +0.000 OA
ATOM      2  C   UNL     1      -1.980  12.833  19.658  0.00  0.00    +0.000 C 
ATOM      3  N   UNL     1      -2.625  13.296  20.821  0.00  0.00    +0.000 N 
ATOM      4  C   UNL     1      -1.980  14.409  21.536  0.00  0.00    +0.000 C 
ATOM      5  C   UNL     1      -1.501  13.969  22.919  0.00  0.00    +0.000 C 
ATOM      6  O   UNL     1      -2.590  13.437  23.686  0.00  0.00    +0.000 OA
ATOM      7  C   UNL     1      -3.143  12.284  23.041  0.00  0.00    +0.000 C 
ATOM      8  C   UNL     1      -3.666  12.589  21.620  0.00  0.00    +0.000 C 
ENDROOT
BRANCH   2   9
ATOM      9  C   UNL     1      -2.562  11.750  18.802  0.00  0.00    +0.000 A 
ATOM     10  C   UNL     1      -3.712  12.058  18.056  0.00  0.00    +0.000 A 
ATOM     11  C   UNL     1      -4.214  11.203  17.072  0.00  0.00    +0.000 A 
ATOM     12  C   UNL     1      -3.524  10.046  16.745  0.00  0.00    +0.000 A 
ATOM     13  C   UNL     1      -2.336   9.748  17.409  0.00  0.00    +0.000 A 
ATOM     14  C   UNL     1      -1.862  10.575  18.454  0.00  0.00    +0.000 A 
BRANCH  14  15
ATOM     15  N   UNL     1      -0.648  10.193  19.076  0.00  0.00    +0.000 N 
ATOM     16  N   UNL     1       0.567  10.277  18.467  0.00  0.00    +0.000 NA
ATOM     17  C   UNL     1       1.371   9.734  19.386  0.00  0.00    +0.000 A 
ATOM     18  C   UNL     1       0.654   9.463  20.554  0.00  0.00    +0.000 A 
ATOM     19  N   UNL     1      -0.609   9.864  20.405  0.00  0.00    +0.000 NA
ENDBRANCH  14  15
ENDBRANCH   2   9
BRANCH   8  20
ATOM     20  C   UNL     1      -5.071  13.264  21.618  0.00  0.00    +0.000 C 
BRANCH  20  21
ATOM     21  C   UNL     1      -5.994  13.238  20.419  0.00  0.00    +0.000 A 
ATOM     22  C   UNL     1      -6.105  14.357  19.579  0.00  0.00    +0.000 A 
ATOM     23  C   UNL     1      -6.817  14.282  18.369  0.00  0.00    +0.000 A 
ATOM     24  C   UNL     1      -7.434  13.079  17.997  0.00  0.00    +0.000 A 
ATOM     25  C   UNL     1      -7.348  11.970  18.842  0.00  0.00    +0.000 A 
ATOM     26  C   UNL     1      -6.634  12.057  20.038  0.00  0.00    +0.000 A 
ATOM     27  F   UNL     1      -6.512  10.956  20.793  0.00  0.00    +0.000 F 
BRANCH  23  28
ATOM     28  N   UNL     1      -6.911  15.424  17.528  0.00  0.00    +0.000 N 
ATOM     29  N   UNL     1      -7.109  15.329  16.184  0.00  0.00    +0.000 NA
ATOM     30  C   UNL     1      -7.157  16.610  15.814  0.00  0.00    +0.000 A 
ATOM     31  C   UNL     1      -6.995  17.434  16.929  0.00  0.00    +0.000 A 
ATOM     32  N   UNL     1      -6.810  16.690  18.021  0.00  0.00    +0.000 NA
ENDBRANCH  23  28
ENDBRANCH  20  21
ENDBRANCH   8  20
TORSDOF 5
ENDMDL
MODEL 2
REMARK VINA RESULT:      -6.6      2.711      5.405
REMARK  Name = 
REMARK  5 active torsions:
REMARK  status: ('A' for Active; 'I' for Inactive)
REMARK    1  A    between atoms: C_2  and  C_3
REMARK    2  A    between atoms: C_8  and  N_9
REMARK    3  A    between atoms: C_19  and  C_20
REMARK    4  A    between atoms: C_20  and  C_21
REMARK    5  A    between atoms: C_23  and  N_24
REMARK                            x       y       z     vdW  Elec       q    Type
REMARK                         _______ _______ _______ _____ _____    ______ ____
ROOT
ATOM      1  O   UNL     1      -0.150  11.467  22.817  0.00  0.00    +0.000 OA
ATOM      2  C   UNL     1      -1.000  12.004  22.104  0.00  0.00    +0.000 C 
ATOM      3  N   UNL     1      -1.046  11.768  20.717  0.00  0.00    +0.000 N 
ATOM      4  C   UNL     1       0.017  10.919  20.155  0.00  0.00    +0.000 C 
ATOM      5  C   UNL     1       0.908  11.714  19.201  0.00  0.00    +0.000 C 
ATOM      6  O   UNL     1       0.125  12.306  18.154  0.00  0.00    +0.000 OA
ATOM      7  C   UNL     1      -0.835  13.219  18.699  0.00  0.00    +0.000 C 
ATOM      8  C   UNL     1      -1.804  12.541  19.693  0.00  0.00    +0.000 C 
ENDROOT
BRANCH   2   9
ATOM      9  C   UNL     1      -2.055  12.796  22.813  0.00  0.00    +0.000 A 
ATOM     10  C   UNL     1      -3.030  12.084  23.532  0.00  0.00    +0.000 A 
ATOM     11  C   UNL     1      -3.929  12.715  24.396  0.00  0.00    +0.000 A 
ATOM     12  C   UNL     1      -3.820  14.077  24.631  0.00  0.00    +0.000 A 
ATOM     13  C   UNL     1      -2.814  14.802  23.996  0.00  0.00    +0.000 A 
ATOM     14  C   UNL     1      -1.947  14.180  23.068  0.00  0.00    +0.000 A 
BRANCH  14  15
ATOM     15  N   UNL     1      -0.956  14.996  22.466  0.00  0.00    +0.000 N 
ATOM     16  N   UNL     1      -1.170  15.729  21.339  0.00  0.00    +0.000 NA
ATOM     17  C   UNL     1       0.043  16.240  21.113  0.00  0.00    +0.000 A 
ATOM     18  C   UNL     1       0.907  15.915  22.161  0.00  0.00    +0.000 A 
ATOM     19  N   UNL     1       0.244  15.222  23.087  0.00  0.00    +0.000 NA
ENDBRANCH  14  15
ENDBRANCH   2   9
BRANCH   8  20
ATOM     20  C   UNL     1      -2.951  11.756  18.988  0.00  0.00    +0.000 C 
BRANCH  20  21
ATOM     21  C   UNL     1      -4.414  12.100  19.166  0.00  0.00    +0.000 A 
ATOM     22  C   UNL     1      -4.939  12.346  20.444  0.00  0.00    +0.000 A 
ATOM     23  C   UNL     1      -6.246  12.840  20.604  0.00  0.00    +0.000 A 
ATOM     24  C   UNL     1      -7.042  13.083  19.474  0.00  0.00    +0.000 A 
ATOM     25  C   UNL     1      -6.532  12.816  18.202  0.00  0.00    +0.000 A 
ATOM     26  C   UNL     1      -5.232  12.330  18.058  0.00  0.00    +0.000 A 
ATOM     27  F   UNL     1      -4.748  12.149  16.821  0.00  0.00    +0.000 F 
BRANCH  23  28
ATOM     28  N   UNL     1      -6.757  13.090  21.906  0.00  0.00    +0.000 N 
ATOM     29  N   UNL     1      -7.003  12.092  22.799  0.00  0.00    +0.000 NA
ATOM     30  C   UNL     1      -7.435  12.767  23.866  0.00  0.00    +0.000 A 
ATOM     31  C   UNL     1      -7.433  14.136  23.595  0.00  0.00    +0.000 A 
ATOM     32  N   UNL     1      -7.030  14.352  22.342  0.00  0.00    +0.000 NA
ENDBRANCH  23  28
ENDBRANCH  20  21
ENDBRANCH   8  20
TORSDOF 5
ENDMDL
MODEL 3
REMARK VINA RESULT:      -6.4      2.476      6.400
REMARK  Name = 
REMARK  5 active torsions:
REMARK  status: ('A' for Active; 'I' for Inactive)
REMARK    1  A    between atoms: C_2  and  C_3
REMARK    2  A    between atoms: C_8  and  N_9
REMARK    3  A    between atoms: C_19  and  C_20
REMARK    4  A    between atoms: C_20  and  C_21
REMARK    5  A    between atoms: C_23  and  N_24
REMARK                            x       y       z     vdW  Elec       q    Type
REMARK                         _______ _______ _______ _____ _____    ______ ____
ROOT
ATOM      1  O   UNL     1      -4.015  15.873  21.354  0.00  0.00    +0.000 OA
ATOM      2  C   UNL     1      -3.904  14.703  20.983  0.00  0.00    +0.000 C 
ATOM      3  N   UNL     1      -4.960  14.040  20.329  0.00  0.00    +0.000 N 
ATOM      4  C   UNL     1      -6.222  14.784  20.189  0.00  0.00    +0.000 C 
ATOM      5  C   UNL     1      -7.342  14.123  20.993  0.00  0.00    +0.000 C 
ATOM      6  O   UNL     1      -7.512  12.756  20.592  0.00  0.00    +0.000 OA
ATOM      7  C   UNL     1      -6.315  12.008  20.837  0.00  0.00    +0.000 C 
ATOM      8  C   UNL     1      -5.093  12.576  20.081  0.00  0.00    +0.000 C 
ENDROOT
BRANCH   2   9
ATOM      9  C   UNL     1      -2.548  14.085  21.135  0.00  0.00    +0.000 A 
ATOM     10  C   UNL     1      -1.591  14.366  20.146  0.00  0.00    +0.000 A 
ATOM     11  C   UNL     1      -0.244  14.020  20.292  0.00  0.00    +0.000 A 
ATOM     12  C   UNL     1       0.199  13.456  21.478  0.00  0.00    +0.000 A 
ATOM     13  C   UNL     1      -0.709  13.236  22.512  0.00  0.00    +0.000 A 
ATOM     14  C   UNL     1      -2.084  13.520  22.342  0.00  0.00    +0.000 A 
BRANCH  14  15
ATOM     15  N   UNL     1      -2.936  13.261  23.445  0.00  0.00    +0.000 N 
ATOM     16  N   UNL     1      -3.634  12.102  23.598  0.00  0.00    +0.000 NA
ATOM     17  C   UNL     1      -4.341  12.355  24.703  0.00  0.00    +0.000 A 
ATOM     18  C   UNL     1      -3.960  13.582  25.249  0.00  0.00    +0.000 A 
ATOM     19  N   UNL     1      -2.978  14.110  24.518  0.00  0.00    +0.000 NA
ENDBRANCH  14  15
ENDBRANCH   2   9
BRANCH   8  20
ATOM     20  C   UNL     1      -5.052  12.154  18.582  0.00  0.00    +0.000 C 
BRANCH  20  21
ATOM     21  C   UNL     1      -3.855  11.475  17.951  0.00  0.00    +0.000 A 
ATOM     22  C   UNL     1      -2.718  11.177  18.717  0.00  0.00    +0.000 A 
ATOM     23  C   UNL     1      -1.679  10.389  18.189  0.00  0.00    +0.000 A 
ATOM     24  C   UNL     1      -1.773   9.902  16.877  0.00  0.00    +0.000 A 
ATOM     25  C   UNL     1      -2.891  10.218  16.103  0.00  0.00    +0.000 A 
ATOM     26  C   UNL     1      -3.917  10.996  16.641  0.00  0.00    +0.000 A 
ATOM     27  F   UNL     1      -5.008  11.223  15.896  0.00  0.00    +0.000 F 
BRANCH  23  28
ATOM     28  N   UNL     1      -0.540  10.092  18.984  0.00  0.00    +0.000 N 
ATOM     29  N   UNL     1      -0.542  10.213  20.340  0.00  0.00    +0.000 NA
ATOM     30  C   UNL     1       0.691   9.817  20.662  0.00  0.00    +0.000 A 
ATOM     31  C   UNL     1       1.394   9.465  19.508  0.00  0.00    +0.000 A 
ATOM     32  N   UNL     1       0.630   9.662  18.433  0.00  0.00    +0.000 NA
ENDBRANCH  23  28
ENDBRANCH  20  21
ENDBRANCH   8  20
TORSDOF 5
ENDMDL
MODEL 4
REMARK VINA RESULT:      -6.4      2.679      3.646
REMARK  Name = 
REMARK  5 active torsions:
REMARK  status: ('A' for Active; 'I' for Inactive)
REMARK    1  A    between atoms: C_2  and  C_3
REMARK    2  A    between atoms: C_8  and  N_9
REMARK    3  A    between atoms: C_19  and  C_20
REMARK    4  A    between atoms: C_20  and  C_21
REMARK    5  A    between atoms: C_23  and  N_24
REMARK                            x       y       z     vdW  Elec       q    Type
REMARK                         _______ _______ _______ _____ _____    ______ ____
ROOT
ATOM      1  O   UNL     1      -0.405  13.233  17.920  0.00  0.00    +0.000 OA
ATOM      2  C   UNL     1      -1.204  12.878  18.787  0.00  0.00    +0.000 C 
ATOM      3  N   UNL     1      -1.330  13.582  20.000  0.00  0.00    +0.000 N 
ATOM      4  C   UNL     1      -0.404  14.706  20.211  0.00  0.00    +0.000 C 
ATOM      5  C   UNL     1       0.545  14.425  21.375  0.00  0.00    +0.000 C 
ATOM      6  O   UNL     1      -0.194  14.146  22.573  0.00  0.00    +0.000 OA
ATOM      7  C   UNL     1      -1.010  12.981  22.400  0.00  0.00    +0.000 C 
ATOM      8  C   UNL     1      -2.021  13.129  21.241  0.00  0.00    +0.000 C 
ENDROOT
BRANCH   2   9
ATOM      9  C   UNL     1      -2.125  11.754  18.419  0.00  0.00    +0.000 A 
ATOM     10  C   UNL     1      -3.351  12.088  17.821  0.00  0.00    +0.000 A 
ATOM     11  C   UNL     1      -4.189  11.126  17.249  0.00  0.00    +0.000 A 
ATOM     12  C   UNL     1      -3.778   9.804  17.184  0.00  0.00    +0.000 A 
ATOM     13  C   UNL     1      -2.532   9.450  17.697  0.00  0.00    +0.000 A 
ATOM     14  C   UNL     1      -1.712  10.407  18.339  0.00  0.00    +0.000 A 
BRANCH  14  15
ATOM     15  N   UNL     1      -0.463   9.957  18.834  0.00  0.00    +0.000 N 
ATOM     16  N   UNL     1      -0.238   9.659  20.143  0.00  0.00    +0.000 NA
ATOM     17  C   UNL     1       1.068   9.377  20.137  0.00  0.00    +0.000 A 
ATOM     18  C   UNL     1       1.557   9.385  18.829  0.00  0.00    +0.000 A 
ATOM     19  N   UNL     1       0.560   9.636  17.981  0.00  0.00    +0.000 NA
ENDBRANCH  14  15
ENDBRANCH   2   9
BRANCH   8  20
ATOM     20  C   UNL     1      -3.282  13.956  21.633  0.00  0.00    +0.000 C 
BRANCH  20  21
ATOM     21  C   UNL     1      -4.658  13.676  21.067  0.00  0.00    +0.000 A 
ATOM     22  C   UNL     1      -5.139  12.360  20.979  0.00  0.00    +0.000 A 
ATOM     23  C   UNL     1      -6.476  12.104  20.626  0.00  0.00    +0.000 A 
ATOM     24  C   UNL     1      -7.340  13.173  20.348  0.00  0.00    +0.000 A 
ATOM     25  C   UNL     1      -6.859  14.483  20.410  0.00  0.00    +0.000 A 
ATOM     26  C   UNL     1      -5.531  14.723  20.766  0.00  0.00    +0.000 A 
ATOM     27  F   UNL     1      -5.119  15.993  20.884  0.00  0.00    +0.000 F 
BRANCH  23  28
ATOM     28  N   UNL     1      -6.945  10.765  20.550  0.00  0.00    +0.000 N 
ATOM     29  N   UNL     1      -7.679  10.190  21.542  0.00  0.00    +0.000 NA
ATOM     30  C   UNL     1      -7.917   8.973  21.050  0.00  0.00    +0.000 A 
ATOM     31  C   UNL     1      -7.334   8.848  19.787  0.00  0.00    +0.000 A 
ATOM     32  N   UNL     1      -6.690   9.973  19.471  0.00  0.00    +0.000 NA
ENDBRANCH  23  28
ENDBRANCH  20  21
ENDBRANCH   8  20
TORSDOF 5
ENDMDL
MODEL 5
REMARK VINA RESULT:      -6.4      3.291      5.807
REMARK  Name = 
REMARK  5 active torsions:
REMARK  status: ('A' for Active; 'I' for Inactive)
REMARK    1  A    between atoms: C_2  and  C_3
REMARK    2  A    between atoms: C_8  and  N_9
REMARK    3  A    between atoms: C_19  and  C_20
REMARK    4  A    between atoms: C_20  and  C_21
REMARK    5  A    between atoms: C_23  and  N_24
REMARK                            x       y       z     vdW  Elec       q    Type
REMARK                         _______ _______ _______ _____ _____    ______ ____
ROOT
ATOM      1  O   UNL     1      -1.160  14.254  23.772  0.00  0.00    +0.000 OA
ATOM      2  C   UNL     1      -1.634  13.437  22.980  0.00  0.00    +0.000 C 
ATOM      3  N   UNL     1      -2.807  13.717  22.254  0.00  0.00    +0.000 N 
ATOM      4  C   UNL     1      -3.479  14.992  22.551  0.00  0.00    +0.000 C 
ATOM      5  C   UNL     1      -4.855  14.757  23.174  0.00  0.00    +0.000 C 
ATOM      6  O   UNL     1      -5.666  13.943  22.315  0.00  0.00    +0.000 OA
ATOM      7  C   UNL     1      -5.062  12.659  22.120  0.00  0.00    +0.000 C 
ATOM      8  C   UNL     1      -3.652  12.753  21.495  0.00  0.00    +0.000 C 
ENDROOT
BRANCH   2   9
ATOM      9  C   UNL     1      -0.818  12.205  22.731  0.00  0.00    +0.000 A 
ATOM     10  C   UNL     1      -1.323  10.984  23.208  0.00  0.00    +0.000 A 
ATOM     11  C   UNL     1      -0.760   9.755  22.855  0.00  0.00    +0.000 A 
ATOM     12  C   UNL     1       0.279   9.710  21.938  0.00  0.00    +0.000 A 
ATOM     13  C   UNL     1       0.753  10.897  21.384  0.00  0.00    +0.000 A 
ATOM     14  C   UNL     1       0.233  12.147  21.791  0.00  0.00    +0.000 A 
BRANCH  14  15
ATOM     15  N   UNL     1       0.778  13.302  21.177  0.00  0.00    +0.000 N 
ATOM     16  N   UNL     1       0.114  14.041  20.246  0.00  0.00    +0.000 NA
ATOM     17  C   UNL     1       1.038  14.944  19.906  0.00  0.00    +0.000 A 
ATOM     18  C   UNL     1       2.166  14.809  20.719  0.00  0.00    +0.000 A 
ATOM     19  N   UNL     1       1.959  13.842  21.612  0.00  0.00    +0.000 NA
ENDBRANCH  14  15
ENDBRANCH   2   9
BRANCH   8  20
ATOM     20  C   UNL     1      -3.682  12.973  19.953  0.00  0.00    +0.000 C 
BRANCH  20  21
ATOM     21  C   UNL     1      -3.138  11.961  18.967  0.00  0.00    +0.000 A 
ATOM     22  C   UNL     1      -1.759  11.718  18.882  0.00  0.00    +0.000 A 
ATOM     23  C   UNL     1      -1.260  10.659  18.103  0.00  0.00    +0.000 A 
ATOM     24  C   UNL     1      -2.149   9.839  17.392  0.00  0.00    +0.000 A 
ATOM     25  C   UNL     1      -3.521  10.093  17.454  0.00  0.00    +0.000 A 
ATOM     26  C   UNL     1      -4.002  11.145  18.234  0.00  0.00    +0.000 A 
ATOM     27  F   UNL     1      -5.328  11.320  18.327  0.00  0.00    +0.000 F 
BRANCH  23  28
ATOM     28  N   UNL     1       0.140  10.424  18.036  0.00  0.00    +0.000 N 
ATOM     29  N   UNL     1       1.056  11.425  18.152  0.00  0.00    +0.000 NA
ATOM     30  C   UNL     1       2.211  10.764  18.058  0.00  0.00    +0.000 A 
ATOM     31  C   UNL     1       1.966   9.399  17.898  0.00  0.00    +0.000 A 
ATOM     32  N   UNL     1       0.652   9.174  17.854  0.00  0.00    +0.000 NA
ENDBRANCH  23  28
ENDBRANCH  20  21
ENDBRANCH   8  20
TORSDOF 5
ENDMDL
MODEL 6
REMARK VINA RESULT:      -6.3      6.460     10.267
REMARK  Name = 
REMARK  5 active torsions:
REMARK  status: ('A' for Active; 'I' for Inactive)
REMARK    1  A    between atoms: C_2  and  C_3
REMARK    2  A    between atoms: C_8  and  N_9
REMARK    3  A    between atoms: C_19  and  C_20
REMARK    4  A    between atoms: C_20  and  C_21
REMARK    5  A    between atoms: C_23  and  N_24
REMARK                            x       y       z     vdW  Elec       q    Type
REMARK                         _______ _______ _______ _____ _____    ______ ____
ROOT
ATOM      1  O   UNL     1       5.067   2.214  19.215  0.00  0.00    +0.000 OA
ATOM      2  C   UNL     1       4.537   3.246  18.801  0.00  0.00    +0.000 C 
ATOM      3  N   UNL     1       3.623   3.968  19.592  0.00  0.00    +0.000 N 
ATOM      4  C   UNL     1       3.272   3.385  20.896  0.00  0.00    +0.000 C 
ATOM      5  C   UNL     1       1.798   2.985  20.941  0.00  0.00    +0.000 C 
ATOM      6  O   UNL     1       0.960   4.112  20.648  0.00  0.00    +0.000 OA
ATOM      7  C   UNL     1       1.225   4.607  19.331  0.00  0.00    +0.000 C 
ATOM      8  C   UNL     1       2.695   5.046  19.145  0.00  0.00    +0.000 C 
ENDROOT
BRANCH   2   9
ATOM      9  C   UNL     1       5.027   3.759  17.481  0.00  0.00    +0.000 A 
ATOM     10  C   UNL     1       4.180   3.609  16.370  0.00  0.00    +0.000 A 
ATOM     11  C   UNL     1       4.438   4.231  15.146  0.00  0.00    +0.000 A 
ATOM     12  C   UNL     1       5.514   5.096  15.024  0.00  0.00    +0.000 A 
ATOM     13  C   UNL     1       6.330   5.331  16.129  0.00  0.00    +0.000 A 
ATOM     14  C   UNL     1       6.113   4.650  17.349  0.00  0.00    +0.000 A 
BRANCH  14  15
ATOM     15  N   UNL     1       6.995   4.947  18.417  0.00  0.00    +0.000 N 
ATOM     16  N   UNL     1       8.319   4.627  18.410  0.00  0.00    +0.000 NA
ATOM     17  C   UNL     1       8.699   5.014  19.631  0.00  0.00    +0.000 A 
ATOM     18  C   UNL     1       7.647   5.663  20.281  0.00  0.00    +0.000 A 
ATOM     19  N   UNL     1       6.593   5.730  19.467  0.00  0.00    +0.000 NA
ENDBRANCH  14  15
ENDBRANCH   2   9
BRANCH   8  20
ATOM     20  C   UNL     1       2.990   6.458  19.736  0.00  0.00    +0.000 C 
BRANCH  20  21
ATOM     21  C   UNL     1       2.125   7.666  19.450  0.00  0.00    +0.000 A 
ATOM     22  C   UNL     1       1.388   8.275  20.478  0.00  0.00    +0.000 A 
ATOM     23  C   UNL     1       0.727   9.498  20.264  0.00  0.00    +0.000 A 
ATOM     24  C   UNL     1       0.795  10.115  19.007  0.00  0.00    +0.000 A 
ATOM     25  C   UNL     1       1.506   9.500  17.974  0.00  0.00    +0.000 A 
ATOM     26  C   UNL     1       2.161   8.289  18.202  0.00  0.00    +0.000 A 
ATOM     27  F   UNL     1       2.891   7.760  17.210  0.00  0.00    +0.000 F 
BRANCH  23  28
ATOM     28  N   UNL     1      -0.007  10.102  21.320  0.00  0.00    +0.000 N 
ATOM     29  N   UNL     1      -0.576  11.334  21.205  0.00  0.00    +0.000 NA
ATOM     30  C   UNL     1      -1.167  11.485  22.391  0.00  0.00    +0.000 A 
ATOM     31  C   UNL     1      -0.950  10.353  23.179  0.00  0.00    +0.000 A 
ATOM     32  N   UNL     1      -0.189   9.479  22.519  0.00  0.00    +0.000 NA
ENDBRANCH  23  28
ENDBRANCH  20  21
ENDBRANCH   8  20
TORSDOF 5
ENDMDL
MODEL 7
REMARK VINA RESULT:      -6.2      6.534     10.270
REMARK  Name = 
REMARK  5 active torsions:
REMARK  status: ('A' for Active; 'I' for Inactive)
REMARK    1  A    between atoms: C_2  and  C_3
REMARK    2  A    between atoms: C_8  and  N_9
REMARK    3  A    between atoms: C_19  and  C_20
REMARK    4  A    between atoms: C_20  and  C_21
REMARK    5  A    between atoms: C_23  and  N_24
REMARK                            x       y       z     vdW  Elec       q    Type
REMARK                         _______ _______ _______ _____ _____    ______ ____
ROOT
ATOM      1  O   UNL     1       5.130   2.163  19.348  0.00  0.00    +0.000 OA
ATOM      2  C   UNL     1       4.513   3.160  18.970  0.00  0.00    +0.000 C 
ATOM      3  N   UNL     1       3.557   3.785  19.793  0.00  0.00    +0.000 N 
ATOM      4  C   UNL     1       3.274   3.139  21.085  0.00  0.00    +0.000 C 
ATOM      5  C   UNL     1       1.837   2.622  21.138  0.00  0.00    +0.000 C 
ATOM      6  O   UNL     1       0.907   3.687  20.888  0.00  0.00    +0.000 OA
ATOM      7  C   UNL     1       1.113   4.238  19.582  0.00  0.00    +0.000 C 
ATOM      8  C   UNL     1       2.540   4.797  19.390  0.00  0.00    +0.000 C 
ENDROOT
BRANCH   2   9
ATOM      9  C   UNL     1       4.941   3.747  17.659  0.00  0.00    +0.000 A 
ATOM     10  C   UNL     1       4.054   3.631  16.576  0.00  0.00    +0.000 A 
ATOM     11  C   UNL     1       4.252   4.317  15.374  0.00  0.00    +0.000 A 
ATOM     12  C   UNL     1       5.304   5.211  15.254  0.00  0.00    +0.000 A 
ATOM     13  C   UNL     1       6.158   5.410  16.337  0.00  0.00    +0.000 A 
ATOM     14  C   UNL     1       6.003   4.667  17.530  0.00  0.00    +0.000 A 
BRANCH  14  15
ATOM     15  N   UNL     1       6.920   4.932  18.578  0.00  0.00    +0.000 N 
ATOM     16  N   UNL     1       6.555   5.463  19.777  0.00  0.00    +0.000 NA
ATOM     17  C   UNL     1       7.738   5.610  20.381  0.00  0.00    +0.000 A 
ATOM     18  C   UNL     1       8.751   5.054  19.597  0.00  0.00    +0.000 A 
ATOM     19  N   UNL     1       8.221   4.512  18.500  0.00  0.00    +0.000 NA
ENDBRANCH  14  15
ENDBRANCH   2   9
BRANCH   8  20
ATOM     20  C   UNL     1       2.732   6.211  20.017  0.00  0.00    +0.000 C 
BRANCH  20  21
ATOM     21  C   UNL     1       2.195   7.474  19.379  0.00  0.00    +0.000 A 
ATOM     22  C   UNL     1       1.453   8.395  20.134  0.00  0.00    +0.000 A 
ATOM     23  C   UNL     1       1.105   9.650  19.601  0.00  0.00    +0.000 A 
ATOM     24  C   UNL     1       1.495   9.984  18.296  0.00  0.00    +0.000 A 
ATOM     25  C   UNL     1       2.212   9.061  17.533  0.00  0.00    +0.000 A 
ATOM     26  C   UNL     1       2.554   7.822  18.076  0.00  0.00    +0.000 A 
ATOM     27  F   UNL     1       3.302   6.985  17.342  0.00  0.00    +0.000 F 
BRANCH  23  28
ATOM     28  N   UNL     1       0.360  10.572  20.385  0.00  0.00    +0.000 N 
ATOM     29  N   UNL     1      -0.997  10.665  20.311  0.00  0.00    +0.000 NA
ATOM     30  C   UNL     1      -1.264  11.613  21.211  0.00  0.00    +0.000 A 
ATOM     31  C   UNL     1      -0.080  12.057  21.802  0.00  0.00    +0.000 A 
ATOM     32  N   UNL     1       0.962  11.421  21.264  0.00  0.00    +0.000 NA
ENDBRANCH  23  28
ENDBRANCH  20  21
ENDBRANCH   8  20
TORSDOF 5
ENDMDL
MODEL 8
REMARK VINA RESULT:      -6.2      3.217      7.066
REMARK  Name = 
REMARK  5 active torsions:
REMARK  status: ('A' for Active; 'I' for Inactive)
REMARK    1  A    between atoms: C_2  and  C_3
REMARK    2  A    between atoms: C_8  and  N_9
REMARK    3  A    between atoms: C_19  and  C_20
REMARK    4  A    between atoms: C_20  and  C_21
REMARK    5  A    between atoms: C_23  and  N_24
REMARK                            x       y       z     vdW  Elec       q    Type
REMARK                         _______ _______ _______ _____ _____    ______ ____
ROOT
ATOM      1  O   UNL     1      -3.589  12.107  23.442  0.00  0.00    +0.000 OA
ATOM      2  C   UNL     1      -3.344  12.981  22.609  0.00  0.00    +0.000 C 
ATOM      3  N   UNL     1      -2.369  13.969  22.849  0.00  0.00    +0.000 N 
ATOM      4  C   UNL     1      -1.724  13.952  24.172  0.00  0.00    +0.000 C 
ATOM      5  C   UNL     1      -2.071  15.210  24.968  0.00  0.00    +0.000 C 
ATOM      6  O   UNL     1      -1.700  16.389  24.238  0.00  0.00    +0.000 OA
ATOM      7  C   UNL     1      -2.417  16.458  23.000  0.00  0.00    +0.000 C 
ATOM      8  C   UNL     1      -2.159  15.235  22.092  0.00  0.00    +0.000 C 
ENDROOT
BRANCH   2   9
ATOM      9  C   UNL     1      -4.030  12.846  21.284  0.00  0.00    +0.000 A 
ATOM     10  C   UNL     1      -3.258  12.418  20.192  0.00  0.00    +0.000 A 
ATOM     11  C   UNL     1      -3.830  12.056  18.969  0.00  0.00    +0.000 A 
ATOM     12  C   UNL     1      -5.209  12.032  18.833  0.00  0.00    +0.000 A 
ATOM     13  C   UNL     1      -6.010  12.375  19.921  0.00  0.00    +0.000 A 
ATOM     14  C   UNL     1      -5.434  12.808  21.138  0.00  0.00    +0.000 A 
BRANCH  14  15
ATOM     15  N   UNL     1      -6.324  13.141  22.189  0.00  0.00    +0.000 N 
ATOM     16  N   UNL     1      -6.642  14.420  22.526  0.00  0.00    +0.000 NA
ATOM     17  C   UNL     1      -7.417  14.235  23.599  0.00  0.00    +0.000 A 
ATOM     18  C   UNL     1      -7.647  12.872  23.797  0.00  0.00    +0.000 A 
ATOM     19  N   UNL     1      -7.051  12.173  22.830  0.00  0.00    +0.000 NA
ENDBRANCH  14  15
ENDBRANCH   2   9
BRANCH   8  20
ATOM     20  C   UNL     1      -0.810  15.325  21.317  0.00  0.00    +0.000 C 
BRANCH  20  21
ATOM     21  C   UNL     1      -0.286  14.203  20.445  0.00  0.00    +0.000 A 
ATOM     22  C   UNL     1       0.062  12.965  21.008  0.00  0.00    +0.000 A 
ATOM     23  C   UNL     1       0.376  11.865  20.190  0.00  0.00    +0.000 A 
ATOM     24  C   UNL     1       0.353  12.005  18.795  0.00  0.00    +0.000 A 
ATOM     25  C   UNL     1       0.032  13.242  18.231  0.00  0.00    +0.000 A 
ATOM     26  C   UNL     1      -0.283  14.324  19.055  0.00  0.00    +0.000 A 
ATOM     27  F   UNL     1      -0.654  15.478  18.482  0.00  0.00    +0.000 F 
BRANCH  23  28
ATOM     28  N   UNL     1       0.718  10.618  20.779  0.00  0.00    +0.000 N 
ATOM     29  N   UNL     1       0.925   9.492  20.041  0.00  0.00    +0.000 NA
ATOM     30  C   UNL     1       1.238   8.594  20.977  0.00  0.00    +0.000 A 
ATOM     31  C   UNL     1       1.221   9.194  22.237  0.00  0.00    +0.000 A 
ATOM     32  N   UNL     1       0.864  10.474  22.127  0.00  0.00    +0.000 NA
ENDBRANCH  23  28
ENDBRANCH  20  21
ENDBRANCH   8  20
TORSDOF 5
ENDMDL
MODEL 9
REMARK VINA RESULT:      -6.2      2.900      5.835
REMARK  Name = 
REMARK  5 active torsions:
REMARK  status: ('A' for Active; 'I' for Inactive)
REMARK    1  A    between atoms: C_2  and  C_3
REMARK    2  A    between atoms: C_8  and  N_9
REMARK    3  A    between atoms: C_19  and  C_20
REMARK    4  A    between atoms: C_20  and  C_21
REMARK    5  A    between atoms: C_23  and  N_24
REMARK                            x       y       z     vdW  Elec       q    Type
REMARK                         _______ _______ _______ _____ _____    ______ ____
ROOT
ATOM      1  O   UNL     1      -1.172  12.855  18.094  0.00  0.00    +0.000 OA
ATOM      2  C   UNL     1      -1.559  12.223  19.078  0.00  0.00    +0.000 C 
ATOM      3  N   UNL     1      -0.647  11.650  19.985  0.00  0.00    +0.000 N 
ATOM      4  C   UNL     1       0.781  11.774  19.653  0.00  0.00    +0.000 C 
ATOM      5  C   UNL     1       1.402  10.406  19.374  0.00  0.00    +0.000 C 
ATOM      6  O   UNL     1       1.215   9.528  20.494  0.00  0.00    +0.000 OA
ATOM      7  C   UNL     1      -0.180   9.319  20.742  0.00  0.00    +0.000 C 
ATOM      8  C   UNL     1      -0.935  10.635  21.037  0.00  0.00    +0.000 C 
ENDROOT
BRANCH   2   9
ATOM      9  C   UNL     1      -3.036  12.223  19.327  0.00  0.00    +0.000 A 
ATOM     10  C   UNL     1      -3.519  13.033  20.368  0.00  0.00    +0.000 A 
ATOM     11  C   UNL     1      -4.883  13.274  20.555  0.00  0.00    +0.000 A 
ATOM     12  C   UNL     1      -5.803  12.777  19.644  0.00  0.00    +0.000 A 
ATOM     13  C   UNL     1      -5.352  12.035  18.554  0.00  0.00    +0.000 A 
ATOM     14  C   UNL     1      -3.980  11.731  18.401  0.00  0.00    +0.000 A 
BRANCH  14  15
ATOM     15  N   UNL     1      -3.613  10.968  17.264  0.00  0.00    +0.000 N 
ATOM     16  N   UNL     1      -3.074   9.720  17.340  0.00  0.00    +0.000 NA
ATOM     17  C   UNL     1      -2.819   9.455  16.055  0.00  0.00    +0.000 A 
ATOM     18  C   UNL     1      -3.320  10.475  15.244  0.00  0.00    +0.000 A 
ATOM     19  N   UNL     1      -3.935  11.386  16.000  0.00  0.00    +0.000 NA
ENDBRANCH  14  15
ENDBRANCH   2   9
BRANCH   8  20
ATOM     20  C   UNL     1      -0.748  11.131  22.503  0.00  0.00    +0.000 C 
BRANCH  20  21
ATOM     21  C   UNL     1      -1.213  12.491  22.976  0.00  0.00    +0.000 A 
ATOM     22  C   UNL     1      -0.457  13.640  22.696  0.00  0.00    +0.000 A 
ATOM     23  C   UNL     1      -0.966  14.922  22.973  0.00  0.00    +0.000 A 
ATOM     24  C   UNL     1      -2.240  15.057  23.544  0.00  0.00    +0.000 A 
ATOM     25  C   UNL     1      -2.984  13.915  23.847  0.00  0.00    +0.000 A 
ATOM     26  C   UNL     1      -2.469  12.650  23.563  0.00  0.00    +0.000 A 
ATOM     27  F   UNL     1      -3.236  11.577  23.803  0.00  0.00    +0.000 F 
BRANCH  23  28
ATOM     28  N   UNL     1      -0.189  16.074  22.675  0.00  0.00    +0.000 N 
ATOM     29  N   UNL     1       1.013  16.319  23.266  0.00  0.00    +0.000 NA
ATOM     30  C   UNL     1       1.387  17.460  22.686  0.00  0.00    +0.000 A 
ATOM     31  C   UNL     1       0.418  17.866  21.766  0.00  0.00    +0.000 A 
ATOM     32  N   UNL     1      -0.602  17.007  21.771  0.00  0.00    +0.000 NA
ENDBRANCH  23  28
ENDBRANCH  20  21
ENDBRANCH   8  20
TORSDOF 5
ENDMDL
