MODEL 1
REMARK VINA RESULT:      -7.0      0.000      0.000
REMARK  Name = 
REMARK  6 active torsions:
REMARK  status: ('A' for Active; 'I' for Inactive)
REMARK    1  A    between atoms: N_1  and  C_2
REMARK    2  A    between atoms: C_2  and  C_3
REMARK    3  A    between atoms: C_2  and  C_9
REMARK    4  A    between atoms: C_3  and  C_4
REMARK    5  A    between atoms: C_9  and  C_11
REMARK    6  A    between atoms: C_11  and  C_12
REMARK                            x       y       z     vdW  Elec       q    Type
REMARK                         _______ _______ _______ _____ _____    ______ ____
ROOT
ATOM      1  C   UNL     1       6.975   5.570  18.379  0.00  0.00    +0.000 C 
ENDROOT
BRANCH   1   2
ATOM      2  N   UNL     1       7.947   4.525  18.028  0.00  0.00    +0.000 NA
ATOM      3  H   UNL     1       7.920   3.759  18.738  0.00  0.00    +0.000 HD
ATOM      4  H   UNL     1       8.918   4.912  18.004  0.00  0.00    +0.000 HD
ENDBRANCH   1   2
BRANCH   1   5
ATOM      5  C   UNL     1       5.740   4.961  19.026  0.00  0.00    +0.000 C 
ATOM      6  O   UNL     1       5.761   3.801  19.417  0.00  0.00    +0.000 OA
BRANCH   5   7
ATOM      7  C   UNL     1       4.476   5.764  19.206  0.00  0.00    +0.000 C 
BRANCH   7   8
ATOM      8  C   UNL     1       3.264   4.871  19.191  0.00  0.00    +0.000 A 
ATOM      9  C   UNL     1       2.813   4.312  17.984  0.00  0.00    +0.000 A 
ATOM     10  C   UNL     1       1.690   3.480  17.965  0.00  0.00    +0.000 A 
ATOM     11  C   UNL     1       1.009   3.197  19.153  0.00  0.00    +0.000 A 
ATOM     12  F   UNL     1      -0.078   2.388  19.134  0.00  0.00    +0.000 F 
ATOM     13  C   UNL     1       1.452   3.744  20.360  0.00  0.00    +0.000 A 
ATOM     14  C   UNL     1       2.575   4.578  20.383  0.00  0.00    +0.000 A 
ENDBRANCH   7   8
ENDBRANCH   5   7
ENDBRANCH   1   5
BRANCH   1  15
ATOM     15  C   UNL     1       6.631   6.433  17.142  0.00  0.00    +0.000 C 
BRANCH  15  16
ATOM     16  C   UNL     1       6.490   5.600  15.903  0.00  0.00    +0.000 A 
ATOM     17  C   UNL     1       5.337   4.996  15.456  0.00  0.00    +0.000 A 
ATOM     18  N   UNL     1       5.621   4.376  14.301  0.00  0.00    +0.000 N 
ATOM     19  C   UNL     1       6.926   4.608  14.068  0.00  0.00    +0.000 A 
ATOM     20  N   UNL     1       7.494   5.353  15.036  0.00  0.00    +0.000 NA
ATOM     21  H   UNL     1       4.962   3.830  13.703  0.00  0.00    +0.000 HD
ENDBRANCH  15  16
ENDBRANCH   1  15
TORSDOF 6
ENDMDL
MODEL 2
REMARK VINA RESULT:      -7.0      0.290      1.178
REMARK  Name = 
REMARK  6 active torsions:
REMARK  status: ('A' for Active; 'I' for Inactive)
REMARK    1  A    between atoms: N_1  and  C_2
REMARK    2  A    between atoms: C_2  and  C_3
REMARK    3  A    between atoms: C_2  and  C_9
REMARK    4  A    between atoms: C_3  and  C_4
REMARK    5  A    between atoms: C_9  and  C_11
REMARK    6  A    between atoms: C_11  and  C_12
REMARK                            x       y       z     vdW  Elec       q    Type
REMARK                         _______ _______ _______ _____ _____    ______ ____
ROOT
ATOM      1  C   UNL     1       7.026   5.640  18.652  0.00  0.00    +0.000 C 
ENDROOT
BRANCH   1   2
ATOM      2  N   UNL     1       8.061   4.624  18.415  0.00  0.00    +0.000 NA
ATOM      3  H   UNL     1       8.306   4.593  17.400  0.00  0.00    +0.000 HD
ATOM      4  H   UNL     1       7.723   3.675  18.696  0.00  0.00    +0.000 HD
ENDBRANCH   1   2
BRANCH   1   5
ATOM      5  C   UNL     1       5.740   4.992  19.142  0.00  0.00    +0.000 C 
ATOM      6  O   UNL     1       5.733   3.812  19.471  0.00  0.00    +0.000 OA
BRANCH   5   7
ATOM      7  C   UNL     1       4.457   5.779  19.241  0.00  0.00    +0.000 C 
BRANCH   7   8
ATOM      8  C   UNL     1       3.259   4.868  19.178  0.00  0.00    +0.000 A 
ATOM      9  C   UNL     1       2.561   4.538  20.352  0.00  0.00    +0.000 A 
ATOM     10  C   UNL     1       1.448   3.694  20.299  0.00  0.00    +0.000 A 
ATOM     11  C   UNL     1       1.020   3.176  19.074  0.00  0.00    +0.000 A 
ATOM     12  F   UNL     1      -0.061   2.361  19.023  0.00  0.00    +0.000 F 
ATOM     13  C   UNL     1       1.705   3.503  17.899  0.00  0.00    +0.000 A 
ATOM     14  C   UNL     1       2.820   4.345  17.948  0.00  0.00    +0.000 A 
ENDBRANCH   7   8
ENDBRANCH   5   7
ENDBRANCH   1   5
BRANCH   1  15
ATOM     15  C   UNL     1       6.809   6.504  17.387  0.00  0.00    +0.000 C 
BRANCH  15  16
ATOM     16  C   UNL     1       6.544   5.662  16.175  0.00  0.00    +0.000 A 
ATOM     17  C   UNL     1       5.330   5.498  15.548  0.00  0.00    +0.000 A 
ATOM     18  N   UNL     1       5.521   4.699  14.488  0.00  0.00    +0.000 N 
ATOM     19  C   UNL     1       6.830   4.391  14.489  0.00  0.00    +0.000 A 
ATOM     20  N   UNL     1       7.490   4.961  15.516  0.00  0.00    +0.000 NA
ATOM     21  H   UNL     1       4.801   4.385  13.800  0.00  0.00    +0.000 HD
ENDBRANCH  15  16
ENDBRANCH   1  15
TORSDOF 6
ENDMDL
MODEL 3
REMARK VINA RESULT:      -6.9      1.000      1.340
REMARK  Name = 
REMARK  6 active torsions:
REMARK  status: ('A' for Active; 'I' for Inactive)
REMARK    1  A    between atoms: N_1  and  C_2
REMARK    2  A    between atoms: C_2  and  C_3
REMARK    3  A    between atoms: C_2  and  C_9
REMARK    4  A    between atoms: C_3  and  C_4
REMARK    5  A    between atoms: C_9  and  C_11
REMARK    6  A    between atoms: C_11  and  C_12
REMARK                            x       y       z     vdW  Elec       q    Type
REMARK                         _______ _______ _______ _____ _____    ______ ____
ROOT
ATOM      1  C   UNL     1       6.641   5.133  16.870  0.00  0.00    +0.000 C 
ENDROOT
BRANCH   1   2
ATOM      2  N   UNL     1       7.771   4.193  16.852  0.00  0.00    +0.000 NA
ATOM      3  H   UNL     1       8.157   4.115  15.884  0.00  0.00    +0.000 HD
ATOM      4  H   UNL     1       7.468   3.240  17.158  0.00  0.00    +0.000 HD
ENDBRANCH   1   2
BRANCH   1   5
ATOM      5  C   UNL     1       5.891   5.047  18.190  0.00  0.00    +0.000 C 
ATOM      6  O   UNL     1       6.277   4.283  19.066  0.00  0.00    +0.000 OA
BRANCH   5   7
ATOM      7  C   UNL     1       4.673   5.896  18.453  0.00  0.00    +0.000 C 
BRANCH   7   8
ATOM      8  C   UNL     1       3.472   5.037  18.751  0.00  0.00    +0.000 A 
ATOM      9  C   UNL     1       2.889   4.261  17.735  0.00  0.00    +0.000 A 
ATOM     10  C   UNL     1       1.775   3.461  18.007  0.00  0.00    +0.000 A 
ATOM     11  C   UNL     1       1.237   3.426  19.296  0.00  0.00    +0.000 A 
ATOM     12  F   UNL     1       0.160   2.647  19.560  0.00  0.00    +0.000 F 
ATOM     13  C   UNL     1       1.813   4.190  20.315  0.00  0.00    +0.000 A 
ATOM     14  C   UNL     1       2.926   4.993  20.047  0.00  0.00    +0.000 A 
ENDBRANCH   7   8
ENDBRANCH   5   7
ENDBRANCH   1   5
BRANCH   1  15
ATOM     15  C   UNL     1       5.720   4.902  15.649  0.00  0.00    +0.000 C 
BRANCH  15  16
ATOM     16  C   UNL     1       6.504   4.744  14.380  0.00  0.00    +0.000 A 
ATOM     17  C   UNL     1       6.237   3.856  13.364  0.00  0.00    +0.000 A 
ATOM     18  N   UNL     1       7.147   4.053  12.399  0.00  0.00    +0.000 N 
ATOM     19  C   UNL     1       7.944   5.043  12.838  0.00  0.00    +0.000 A 
ATOM     20  N   UNL     1       7.581   5.490  14.057  0.00  0.00    +0.000 NA
ATOM     21  H   UNL     1       7.217   3.545  11.489  0.00  0.00    +0.000 HD
ENDBRANCH  15  16
ENDBRANCH   1  15
TORSDOF 6
ENDMDL
MODEL 4
REMARK VINA RESULT:      -6.9      1.029      1.116
REMARK  Name = 
REMARK  6 active torsions:
REMARK  status: ('A' for Active; 'I' for Inactive)
REMARK    1  A    between atoms: N_1  and  C_2
REMARK    2  A    between atoms: C_2  and  C_3
REMARK    3  A    between atoms: C_2  and  C_9
REMARK    4  A    between atoms: C_3  and  C_4
REMARK    5  A    between atoms: C_9  and  C_11
REMARK    6  A    between atoms: C_11  and  C_12
REMARK                            x       y       z     vdW  Elec       q    Type
REMARK                         _______ _______ _______ _____ _____    ______ ____
ROOT
ATOM      1  C   UNL     1       6.944   5.619  19.047  0.00  0.00    +0.000 C 
ENDROOT
BRANCH   1   2
ATOM      2  N   UNL     1       7.849   5.547  20.203  0.00  0.00    +0.000 NA
ATOM      3  H   UNL     1       7.381   5.051  20.994  0.00  0.00    +0.000 HD
ATOM      4  H   UNL     1       8.112   6.505  20.530  0.00  0.00    +0.000 HD
ENDBRANCH   1   2
BRANCH   1   5
ATOM      5  C   UNL     1       5.632   4.910  19.348  0.00  0.00    +0.000 C 
ATOM      6  O   UNL     1       5.625   3.710  19.593  0.00  0.00    +0.000 OA
BRANCH   5   7
ATOM      7  C   UNL     1       4.324   5.660  19.360  0.00  0.00    +0.000 C 
BRANCH   7   8
ATOM      8  C   UNL     1       3.162   4.721  19.167  0.00  0.00    +0.000 A 
ATOM      9  C   UNL     1       2.878   4.202  17.892  0.00  0.00    +0.000 A 
ATOM     10  C   UNL     1       1.802   3.328  17.709  0.00  0.00    +0.000 A 
ATOM     11  C   UNL     1       1.004   2.962  18.796  0.00  0.00    +0.000 A 
ATOM     12  F   UNL     1      -0.036   2.112  18.617  0.00  0.00    +0.000 F 
ATOM     13  C   UNL     1       1.282   3.469  20.069  0.00  0.00    +0.000 A 
ATOM     14  C   UNL     1       2.356   4.344  20.257  0.00  0.00    +0.000 A 
ENDBRANCH   7   8
ENDBRANCH   5   7
ENDBRANCH   1   5
BRANCH   1  15
ATOM     15  C   UNL     1       7.635   5.071  17.777  0.00  0.00    +0.000 C 
BRANCH  15  16
ATOM     16  C   UNL     1       6.721   5.097  16.589  0.00  0.00    +0.000 A 
ATOM     17  C   UNL     1       6.320   4.010  15.847  0.00  0.00    +0.000 A 
ATOM     18  N   UNL     1       5.481   4.449  14.897  0.00  0.00    +0.000 N 
ATOM     19  C   UNL     1       5.388   5.779  15.073  0.00  0.00    +0.000 A 
ATOM     20  N   UNL     1       6.141   6.214  16.102  0.00  0.00    +0.000 NA
ATOM     21  H   UNL     1       4.994   3.874  14.174  0.00  0.00    +0.000 HD
ENDBRANCH  15  16
ENDBRANCH   1  15
TORSDOF 6
ENDMDL
MODEL 5
REMARK VINA RESULT:      -6.9      1.056      1.615
REMARK  Name = 
REMARK  6 active torsions:
REMARK  status: ('A' for Active; 'I' for Inactive)
REMARK    1  A    between atoms: N_1  and  C_2
REMARK    2  A    between atoms: C_2  and  C_3
REMARK    3  A    between atoms: C_2  and  C_9
REMARK    4  A    between atoms: C_3  and  C_4
REMARK    5  A    between atoms: C_9  and  C_11
REMARK    6  A    between atoms: C_11  and  C_12
REMARK                            x       y       z     vdW  Elec       q    Type
REMARK                         _______ _______ _______ _____ _____    ______ ____
ROOT
ATOM      1  C   UNL     1       6.978   5.651  19.141  0.00  0.00    +0.000 C 
ENDROOT
BRANCH   1   2
ATOM      2  N   UNL     1       7.876   5.464  20.290  0.00  0.00    +0.000 NA
ATOM      3  H   UNL     1       8.651   6.163  20.256  0.00  0.00    +0.000 HD
ATOM      4  H   UNL     1       8.301   4.507  20.279  0.00  0.00    +0.000 HD
ENDBRANCH   1   2
BRANCH   1   5
ATOM      5  C   UNL     1       5.660   4.925  19.366  0.00  0.00    +0.000 C 
ATOM      6  O   UNL     1       5.650   3.717  19.562  0.00  0.00    +0.000 OA
BRANCH   5   7
ATOM      7  C   UNL     1       4.349   5.670  19.362  0.00  0.00    +0.000 C 
BRANCH   7   8
ATOM      8  C   UNL     1       3.194   4.726  19.154  0.00  0.00    +0.000 A 
ATOM      9  C   UNL     1       2.379   4.358  20.237  0.00  0.00    +0.000 A 
ATOM     10  C   UNL     1       1.304   3.483  20.049  0.00  0.00    +0.000 A 
ATOM     11  C   UNL     1       1.033   2.972  18.777  0.00  0.00    +0.000 A 
ATOM     12  F   UNL     1      -0.011   2.127  18.595  0.00  0.00    +0.000 F 
ATOM     13  C   UNL     1       1.835   3.336  17.691  0.00  0.00    +0.000 A 
ATOM     14  C   UNL     1       2.911   4.210  17.875  0.00  0.00    +0.000 A 
ENDBRANCH   7   8
ENDBRANCH   5   7
ENDBRANCH   1   5
BRANCH   1  15
ATOM     15  C   UNL     1       7.674   5.220  17.829  0.00  0.00    +0.000 C 
BRANCH  15  16
ATOM     16  C   UNL     1       6.723   5.214  16.670  0.00  0.00    +0.000 A 
ATOM     17  C   UNL     1       6.307   4.107  15.965  0.00  0.00    +0.000 A 
ATOM     18  N   UNL     1       5.435   4.519  15.033  0.00  0.00    +0.000 N 
ATOM     19  C   UNL     1       5.339   5.853  15.181  0.00  0.00    +0.000 A 
ATOM     20  N   UNL     1       6.121   6.315  16.175  0.00  0.00    +0.000 NA
ATOM     21  H   UNL     1       4.931   3.925  14.339  0.00  0.00    +0.000 HD
ENDBRANCH  15  16
ENDBRANCH   1  15
TORSDOF 6
ENDMDL
MODEL 6
REMARK VINA RESULT:      -6.8      2.199      3.033
REMARK  Name = 
REMARK  6 active torsions:
REMARK  status: ('A' for Active; 'I' for Inactive)
REMARK    1  A    between atoms: N_1  and  C_2
REMARK    2  A    between atoms: C_2  and  C_3
REMARK    3  A    between atoms: C_2  and  C_9
REMARK    4  A    between atoms: C_3  and  C_4
REMARK    5  A    between atoms: C_9  and  C_11
REMARK    6  A    between atoms: C_11  and  C_12
REMARK                            x       y       z     vdW  Elec       q    Type
REMARK                         _______ _______ _______ _____ _____    ______ ____
ROOT
ATOM      1  C   UNL     1       5.465   4.822  18.107  0.00  0.00    +0.000 C 
ENDROOT
BRANCH   1   2
ATOM      2  N   UNL     1       5.743   3.623  18.910  0.00  0.00    +0.000 NA
ATOM      3  H   UNL     1       5.165   2.823  18.569  0.00  0.00    +0.000 HD
ATOM      4  H   UNL     1       5.509   3.787  19.917  0.00  0.00    +0.000 HD
ENDBRANCH   1   2
BRANCH   1   5
ATOM      5  C   UNL     1       4.197   4.638  17.287  0.00  0.00    +0.000 C 
ATOM      6  O   UNL     1       4.228   4.002  16.242  0.00  0.00    +0.000 OA
BRANCH   5   7
ATOM      7  C   UNL     1       2.882   5.222  17.742  0.00  0.00    +0.000 C 
BRANCH   7   8
ATOM      8  C   UNL     1       2.345   4.474  18.934  0.00  0.00    +0.000 A 
ATOM      9  C   UNL     1       1.633   3.277  18.755  0.00  0.00    +0.000 A 
ATOM     10  C   UNL     1       1.134   2.578  19.858  0.00  0.00    +0.000 A 
ATOM     11  C   UNL     1       1.345   3.068  21.150  0.00  0.00    +0.000 A 
ATOM     12  F   UNL     1       0.864   2.388  22.219  0.00  0.00    +0.000 F 
ATOM     13  C   UNL     1       2.057   4.256  21.339  0.00  0.00    +0.000 A 
ATOM     14  C   UNL     1       2.556   4.959  20.238  0.00  0.00    +0.000 A 
ENDBRANCH   7   8
ENDBRANCH   5   7
ENDBRANCH   1   5
BRANCH   1  15
ATOM     15  C   UNL     1       6.687   5.188  17.232  0.00  0.00    +0.000 C 
BRANCH  15  16
ATOM     16  C   UNL     1       7.334   6.464  17.683  0.00  0.00    +0.000 A 
ATOM     17  C   UNL     1       8.122   6.625  18.799  0.00  0.00    +0.000 A 
ATOM     18  N   UNL     1       8.532   7.902  18.831  0.00  0.00    +0.000 N 
ATOM     19  C   UNL     1       7.991   8.490  17.748  0.00  0.00    +0.000 A 
ATOM     20  N   UNL     1       7.243   7.636  17.022  0.00  0.00    +0.000 NA
ATOM     21  H   UNL     1       9.149   8.346  19.545  0.00  0.00    +0.000 HD
ENDBRANCH  15  16
ENDBRANCH   1  15
TORSDOF 6
ENDMDL
MODEL 7
REMARK VINA RESULT:      -6.8      1.641      2.880
REMARK  Name = 
REMARK  6 active torsions:
REMARK  status: ('A' for Active; 'I' for Inactive)
REMARK    1  A    between atoms: N_1  and  C_2
REMARK    2  A    between atoms: C_2  and  C_3
REMARK    3  A    between atoms: C_2  and  C_9
REMARK    4  A    between atoms: C_3  and  C_4
REMARK    5  A    between atoms: C_9  and  C_11
REMARK    6  A    between atoms: C_11  and  C_12
REMARK                            x       y       z     vdW  Elec       q    Type
REMARK                         _______ _______ _______ _____ _____    ______ ____
ROOT
ATOM      1  C   UNL     1       5.352   5.153  15.741  0.00  0.00    +0.000 C 
ENDROOT
BRANCH   1   2
ATOM      2  N   UNL     1       5.120   6.588  15.525  0.00  0.00    +0.000 NA
ATOM      3  H   UNL     1       4.533   6.731  14.673  0.00  0.00    +0.000 HD
ATOM      4  H   UNL     1       6.024   7.095  15.386  0.00  0.00    +0.000 HD
ENDBRANCH   1   2
BRANCH   1   5
ATOM      5  C   UNL     1       4.421   4.614  16.816  0.00  0.00    +0.000 C 
ATOM      6  O   UNL     1       4.447   3.426  17.112  0.00  0.00    +0.000 OA
BRANCH   5   7
ATOM      7  C   UNL     1       3.460   5.521  17.543  0.00  0.00    +0.000 C 
BRANCH   7   8
ATOM      8  C   UNL     1       2.735   4.775  18.632  0.00  0.00    +0.000 A 
ATOM      9  C   UNL     1       1.682   3.902  18.310  0.00  0.00    +0.000 A 
ATOM     10  C   UNL     1       1.007   3.206  19.318  0.00  0.00    +0.000 A 
ATOM     11  C   UNL     1       1.381   3.373  20.654  0.00  0.00    +0.000 A 
ATOM     12  F   UNL     1       0.728   2.695  21.630  0.00  0.00    +0.000 F 
ATOM     13  C   UNL     1       2.431   4.235  20.984  0.00  0.00    +0.000 A 
ATOM     14  C   UNL     1       3.107   4.935  19.980  0.00  0.00    +0.000 A 
ENDBRANCH   7   8
ENDBRANCH   5   7
ENDBRANCH   1   5
BRANCH   1  15
ATOM     15  C   UNL     1       6.842   4.883  16.057  0.00  0.00    +0.000 C 
BRANCH  15  16
ATOM     16  C   UNL     1       7.353   5.782  17.143  0.00  0.00    +0.000 A 
ATOM     17  C   UNL     1       7.638   5.413  18.437  0.00  0.00    +0.000 A 
ATOM     18  N   UNL     1       8.102   6.495  19.079  0.00  0.00    +0.000 N 
ATOM     19  C   UNL     1       8.089   7.493  18.177  0.00  0.00    +0.000 A 
ATOM     20  N   UNL     1       7.629   7.092  16.976  0.00  0.00    +0.000 NA
ATOM     21  H   UNL     1       8.414   6.550  20.074  0.00  0.00    +0.000 HD
ENDBRANCH  15  16
ENDBRANCH   1  15
TORSDOF 6
ENDMDL
MODEL 8
REMARK VINA RESULT:      -6.8      2.197      3.132
REMARK  Name = 
REMARK  6 active torsions:
REMARK  status: ('A' for Active; 'I' for Inactive)
REMARK    1  A    between atoms: N_1  and  C_2
REMARK    2  A    between atoms: C_2  and  C_3
REMARK    3  A    between atoms: C_2  and  C_9
REMARK    4  A    between atoms: C_3  and  C_4
REMARK    5  A    between atoms: C_9  and  C_11
REMARK    6  A    between atoms: C_11  and  C_12
REMARK                            x       y       z     vdW  Elec       q    Type
REMARK                         _______ _______ _______ _____ _____    ______ ____
ROOT
ATOM      1  C   UNL     1       5.477   4.562  18.235  0.00  0.00    +0.000 C 
ENDROOT
BRANCH   1   2
ATOM      2  N   UNL     1       5.491   3.277  18.948  0.00  0.00    +0.000 NA
ATOM      3  H   UNL     1       6.446   2.856  18.909  0.00  0.00    +0.000 HD
ATOM      4  H   UNL     1       4.820   2.602  18.513  0.00  0.00    +0.000 HD
ENDBRANCH   1   2
BRANCH   1   5
ATOM      5  C   UNL     1       4.291   4.638  17.286  0.00  0.00    +0.000 C 
ATOM      6  O   UNL     1       4.387   4.199  16.147  0.00  0.00    +0.000 OA
BRANCH   5   7
ATOM      7  C   UNL     1       2.980   5.242  17.723  0.00  0.00    +0.000 C 
BRANCH   7   8
ATOM      8  C   UNL     1       2.406   4.493  18.897  0.00  0.00    +0.000 A 
ATOM      9  C   UNL     1       2.537   5.010  20.197  0.00  0.00    +0.000 A 
ATOM     10  C   UNL     1       2.005   4.320  21.290  0.00  0.00    +0.000 A 
ATOM     11  C   UNL     1       1.334   3.110  21.094  0.00  0.00    +0.000 A 
ATOM     12  F   UNL     1       0.816   2.443  22.154  0.00  0.00    +0.000 F 
ATOM     13  C   UNL     1       1.194   2.589  19.804  0.00  0.00    +0.000 A 
ATOM     14  C   UNL     1       1.726   3.275  18.708  0.00  0.00    +0.000 A 
ENDBRANCH   7   8
ENDBRANCH   5   7
ENDBRANCH   1   5
BRANCH   1  15
ATOM     15  C   UNL     1       6.826   4.802  17.517  0.00  0.00    +0.000 C 
BRANCH  15  16
ATOM     16  C   UNL     1       7.373   6.170  17.799  0.00  0.00    +0.000 A 
ATOM     17  C   UNL     1       8.136   6.533  18.884  0.00  0.00    +0.000 A 
ATOM     18  N   UNL     1       8.449   7.830  18.750  0.00  0.00    +0.000 N 
ATOM     19  C   UNL     1       7.877   8.231  17.600  0.00  0.00    +0.000 A 
ATOM     20  N   UNL     1       7.201   7.237  16.991  0.00  0.00    +0.000 NA
ATOM     21  H   UNL     1       9.025   8.408  19.401  0.00  0.00    +0.000 HD
ENDBRANCH  15  16
ENDBRANCH   1  15
TORSDOF 6
ENDMDL
MODEL 9
REMARK VINA RESULT:      -6.8      1.548      1.908
REMARK  Name = 
REMARK  6 active torsions:
REMARK  status: ('A' for Active; 'I' for Inactive)
REMARK    1  A    between atoms: N_1  and  C_2
REMARK    2  A    between atoms: C_2  and  C_3
REMARK    3  A    between atoms: C_2  and  C_9
REMARK    4  A    between atoms: C_3  and  C_4
REMARK    5  A    between atoms: C_9  and  C_11
REMARK    6  A    between atoms: C_11  and  C_12
REMARK                            x       y       z     vdW  Elec       q    Type
REMARK                         _______ _______ _______ _____ _____    ______ ____
ROOT
ATOM      1  C   UNL     1       6.686   5.040  16.837  0.00  0.00    +0.000 C 
ENDROOT
BRANCH   1   2
ATOM      2  N   UNL     1       7.876   4.256  17.200  0.00  0.00    +0.000 NA
ATOM      3  H   UNL     1       7.820   3.303  16.776  0.00  0.00    +0.000 HD
ATOM      4  H   UNL     1       7.947   4.146  18.238  0.00  0.00    +0.000 HD
ENDBRANCH   1   2
BRANCH   1   5
ATOM      5  C   UNL     1       5.838   5.329  18.065  0.00  0.00    +0.000 C 
ATOM      6  O   UNL     1       6.364   5.420  19.168  0.00  0.00    +0.000 OA
BRANCH   5   7
ATOM      7  C   UNL     1       4.346   5.519  17.957  0.00  0.00    +0.000 C 
BRANCH   7   8
ATOM      8  C   UNL     1       3.624   4.729  19.018  0.00  0.00    +0.000 A 
ATOM      9  C   UNL     1       3.732   3.329  19.052  0.00  0.00    +0.000 A 
ATOM     10  C   UNL     1       3.066   2.592  20.036  0.00  0.00    +0.000 A 
ATOM     11  C   UNL     1       2.290   3.248  20.996  0.00  0.00    +0.000 A 
ATOM     12  F   UNL     1       1.648   2.533  21.951  0.00  0.00    +0.000 F 
ATOM     13  C   UNL     1       2.181   4.641  20.974  0.00  0.00    +0.000 A 
ATOM     14  C   UNL     1       2.844   5.382  19.991  0.00  0.00    +0.000 A 
ENDBRANCH   7   8
ENDBRANCH   5   7
ENDBRANCH   1   5
BRANCH   1  15
ATOM     15  C   UNL     1       5.886   4.331  15.718  0.00  0.00    +0.000 C 
BRANCH  15  16
ATOM     16  C   UNL     1       6.561   4.456  14.385  0.00  0.00    +0.000 A 
ATOM     17  C   UNL     1       6.242   3.758  13.243  0.00  0.00    +0.000 A 
ATOM     18  N   UNL     1       7.054   4.182  12.263  0.00  0.00    +0.000 N 
ATOM     19  C   UNL     1       7.845   5.118  12.818  0.00  0.00    +0.000 A 
ATOM     20  N   UNL     1       7.574   5.309  14.124  0.00  0.00    +0.000 NA
ATOM     21  H   UNL     1       7.064   3.857  11.272  0.00  0.00    +0.000 HD
ENDBRANCH  15  16
ENDBRANCH   1  15
TORSDOF 6
ENDMDL
