MODEL 1
REMARK VINA RESULT:      -8.2      0.000      0.000
REMARK  Name = 
REMARK  5 active torsions:
REMARK  status: ('A' for Active; 'I' for Inactive)
REMARK    1  A    between atoms: C_2  and  C_3
REMARK    2  A    between atoms: N_5  and  C_6
REMARK    3  A    between atoms: C_9  and  C_10
REMARK    4  A    between atoms: C_15  and  C_16
REMARK    5  A    between atoms: C_19  and  C_20
REMARK                            x       y       z     vdW  Elec       q    Type
REMARK                         _______ _______ _______ _____ _____    ______ ____
ROOT
ATOM      1  C   UNL     1      -1.922  11.048  18.915  0.00  0.00    +0.000 C 
ATOM      2  O   UNL     1      -2.567  11.614  19.798  0.00  0.00    +0.000 OA
ATOM      3  N   UNL     1      -0.621  10.600  19.116  0.00  0.00    +0.000 N 
ATOM      4  C   UNL     1      -0.005  10.670  20.431  0.00  0.00    +0.000 C 
ATOM      5  C   UNL     1       1.491  10.759  20.155  0.00  0.00    +0.000 C 
ATOM      6  C   UNL     1       1.680   9.965  18.864  0.00  0.00    +0.000 C 
ATOM      7  C   UNL     1       0.363  10.199  18.109  0.00  0.00    +0.000 C 
ENDROOT
BRANCH   6   8
ATOM      8  C   UNL     1       1.939   8.503  19.127  0.00  0.00    +0.000 A 
ATOM      9  C   UNL     1       2.648   7.553  18.410  0.00  0.00    +0.000 A 
ATOM     10  C   UNL     1       2.631   6.325  19.133  0.00  0.00    +0.000 A 
ATOM     11  C   UNL     1       3.159   5.025  18.975  0.00  0.00    +0.000 A 
ATOM     12  C   UNL     1       2.872   4.093  19.980  0.00  0.00    +0.000 A 
ATOM     13  C   UNL     1       2.065   4.468  21.046  0.00  0.00    +0.000 A 
ATOM     14  N   UNL     1       1.534   5.693  21.237  0.00  0.00    +0.000 NA
ATOM     15  C   UNL     1       1.857   6.564  20.265  0.00  0.00    +0.000 A 
ATOM     16  N   UNL     1       1.455   7.870  20.248  0.00  0.00    +0.000 N 
ATOM     17  H   UNL     1       0.888   8.282  20.977  0.00  0.00    +0.000 HD
BRANCH  11  18
ATOM     18  C   UNL     1       3.983   4.709  17.820  0.00  0.00    +0.000 A 
ATOM     19  C   UNL     1       3.740   3.812  16.750  0.00  0.00    +0.000 A 
ATOM     20  N   UNL     1       4.730   3.774  15.859  0.00  0.00    +0.000 NA
ATOM     21  N   UNL     1       5.624   4.652  16.334  0.00  0.00    +0.000 N 
ATOM     22  N   UNL     1       6.759   4.884  15.638  0.00  0.00    +0.000 NA
ATOM     23  C   UNL     1       7.524   5.758  16.203  0.00  0.00    +0.000 A 
ATOM     24  C   UNL     1       7.267   6.456  17.487  0.00  0.00    +0.000 A 
ATOM     25  C   UNL     1       6.121   6.166  18.113  0.00  0.00    +0.000 A 
ATOM     26  C   UNL     1       5.226   5.239  17.524  0.00  0.00    +0.000 A 
ENDBRANCH  11  18
ENDBRANCH   6   8
BRANCH   1  30
ATOM     27  C   UNL     1      -3.891  10.394  15.140  0.00  0.00    +0.000 A 
ATOM     28  C   UNL     1      -4.371  11.364  16.027  0.00  0.00    +0.000 A 
ATOM     29  C   UNL     1      -3.710  11.595  17.243  0.00  0.00    +0.000 A 
ATOM     30  C   UNL     1      -2.581  10.842  17.593  0.00  0.00    +0.000 A 
ATOM     31  C   UNL     1      -2.160   9.831  16.729  0.00  0.00    +0.000 A 
ATOM     32  C   UNL     1      -2.773   9.642  15.496  0.00  0.00    +0.000 A 
BRANCH  27  35
ATOM     33  O   UNL     1      -2.726   9.537  12.552  0.00  0.00    +0.000 OA
ATOM     34  C   UNL     1      -3.931   9.705  12.730  0.00  0.00    +0.000 C 
ATOM     35  N   UNL     1      -4.515  10.026  13.936  0.00  0.00    +0.000 N 
ATOM     36  H   UNL     1      -5.533  10.017  13.938  0.00  0.00    +0.000 HD
BRANCH  34  37
ATOM     37  C   UNL     1      -4.895   9.544  11.561  0.00  0.00    +0.000 C 
ATOM     38 CL   UNL     1      -6.478   8.873  12.031  0.00  0.00    +0.000 Cl
ENDBRANCH  34  37
ENDBRANCH  27  35
ENDBRANCH   1  30
TORSDOF 5
ENDMDL
MODEL 2
REMARK VINA RESULT:      -8.2      5.621     10.999
REMARK  Name = 
REMARK  5 active torsions:
REMARK  status: ('A' for Active; 'I' for Inactive)
REMARK    1  A    between atoms: C_2  and  C_3
REMARK    2  A    between atoms: N_5  and  C_6
REMARK    3  A    between atoms: C_9  and  C_10
REMARK    4  A    between atoms: C_15  and  C_16
REMARK    5  A    between atoms: C_19  and  C_20
REMARK                            x       y       z     vdW  Elec       q    Type
REMARK                         _______ _______ _______ _____ _____    ______ ____
ROOT
ATOM      1  C   UNL     1      -0.203  10.988  18.689  0.00  0.00    +0.000 C 
ATOM      2  O   UNL     1      -0.932  10.812  17.713  0.00  0.00    +0.000 OA
ATOM      3  N   UNL     1      -0.016  12.241  19.262  0.00  0.00    +0.000 N 
ATOM      4  C   UNL     1      -0.781  13.389  18.805  0.00  0.00    +0.000 C 
ATOM      5  C   UNL     1       0.100  14.593  19.115  0.00  0.00    +0.000 C 
ATOM      6  C   UNL     1       0.868  14.178  20.369  0.00  0.00    +0.000 C 
ATOM      7  C   UNL     1       1.026  12.660  20.201  0.00  0.00    +0.000 C 
ENDROOT
BRANCH   6   8
ATOM      8  C   UNL     1       0.134  14.544  21.634  0.00  0.00    +0.000 A 
ATOM      9  C   UNL     1      -1.095  14.140  22.132  0.00  0.00    +0.000 A 
ATOM     10  C   UNL     1      -1.295  14.747  23.405  0.00  0.00    +0.000 A 
ATOM     11  C   UNL     1      -2.286  14.735  24.411  0.00  0.00    +0.000 A 
ATOM     12  C   UNL     1      -2.054  15.523  25.546  0.00  0.00    +0.000 A 
ATOM     13  C   UNL     1      -0.902  16.294  25.614  0.00  0.00    +0.000 A 
ATOM     14  N   UNL     1       0.070  16.342  24.680  0.00  0.00    +0.000 NA
ATOM     15  C   UNL     1      -0.180  15.552  23.621  0.00  0.00    +0.000 A 
ATOM     16  N   UNL     1       0.665  15.416  22.555  0.00  0.00    +0.000 N 
ATOM     17  H   UNL     1       1.551  15.898  22.490  0.00  0.00    +0.000 HD
BRANCH  11  18
ATOM     18  C   UNL     1      -3.473  13.911  24.254  0.00  0.00    +0.000 A 
ATOM     19  C   UNL     1      -3.608  12.500  24.271  0.00  0.00    +0.000 A 
ATOM     20  N   UNL     1      -4.861  12.088  24.087  0.00  0.00    +0.000 NA
ATOM     21  N   UNL     1      -5.558  13.225  23.959  0.00  0.00    +0.000 N 
ATOM     22  N   UNL     1      -6.898  13.166  23.786  0.00  0.00    +0.000 NA
ATOM     23  C   UNL     1      -7.442  14.333  23.687  0.00  0.00    +0.000 A 
ATOM     24  C   UNL     1      -6.741  15.640  23.723  0.00  0.00    +0.000 A 
ATOM     25  C   UNL     1      -5.414  15.608  23.893  0.00  0.00    +0.000 A 
ATOM     26  C   UNL     1      -4.765  14.358  24.041  0.00  0.00    +0.000 A 
ENDBRANCH  11  18
ENDBRANCH   6   8
BRANCH   1  30
ATOM     27  C   UNL     1       1.739   7.496  20.302  0.00  0.00    +0.000 A 
ATOM     28  C   UNL     1       2.069   7.960  19.023  0.00  0.00    +0.000 A 
ATOM     29  C   UNL     1       1.456   9.115  18.512  0.00  0.00    +0.000 A 
ATOM     30  C   UNL     1       0.492   9.799  19.264  0.00  0.00    +0.000 A 
ATOM     31  C   UNL     1       0.123   9.282  20.506  0.00  0.00    +0.000 A 
ATOM     32  C   UNL     1       0.773   8.176  21.042  0.00  0.00    +0.000 A 
BRANCH  27  35
ATOM     33  O   UNL     1       1.327   4.664  19.532  0.00  0.00    +0.000 OA
ATOM     34  C   UNL     1       1.951   5.009  20.532  0.00  0.00    +0.000 C 
ATOM     35  N   UNL     1       2.230   6.314  20.880  0.00  0.00    +0.000 N 
ATOM     36  H   UNL     1       2.854   6.424  21.677  0.00  0.00    +0.000 HD
BRANCH  34  37
ATOM     37  C   UNL     1       2.491   3.951  21.487  0.00  0.00    +0.000 C 
ATOM     38 CL   UNL     1       1.361   2.601  21.765  0.00  0.00    +0.000 Cl
ENDBRANCH  34  37
ENDBRANCH  27  35
ENDBRANCH   1  30
TORSDOF 5
ENDMDL
MODEL 3
REMARK VINA RESULT:      -8.1      1.102      1.690
REMARK  Name = 
REMARK  5 active torsions:
REMARK  status: ('A' for Active; 'I' for Inactive)
REMARK    1  A    between atoms: C_2  and  C_3
REMARK    2  A    between atoms: N_5  and  C_6
REMARK    3  A    between atoms: C_9  and  C_10
REMARK    4  A    between atoms: C_15  and  C_16
REMARK    5  A    between atoms: C_19  and  C_20
REMARK                            x       y       z     vdW  Elec       q    Type
REMARK                         _______ _______ _______ _____ _____    ______ ____
ROOT
ATOM      1  C   UNL     1      -1.931  10.900  18.616  0.00  0.00    +0.000 C 
ATOM      2  O   UNL     1      -2.614  11.289  19.563  0.00  0.00    +0.000 OA
ATOM      3  N   UNL     1      -0.567  10.655  18.735  0.00  0.00    +0.000 N 
ATOM      4  C   UNL     1       0.091  10.727  20.030  0.00  0.00    +0.000 C 
ATOM      5  C   UNL     1       1.540  11.076  19.711  0.00  0.00    +0.000 C 
ATOM      6  C   UNL     1       1.791  10.420  18.354  0.00  0.00    +0.000 C 
ATOM      7  C   UNL     1       0.420  10.493  17.666  0.00  0.00    +0.000 C 
ENDROOT
BRANCH   6   8
ATOM      8  C   UNL     1       2.291   9.004  18.490  0.00  0.00    +0.000 A 
ATOM      9  C   UNL     1       3.381   8.357  17.930  0.00  0.00    +0.000 A 
ATOM     10  C   UNL     1       3.433   7.026  18.434  0.00  0.00    +0.000 A 
ATOM     11  C   UNL     1       4.270   5.898  18.290  0.00  0.00    +0.000 A 
ATOM     12  C   UNL     1       3.920   4.746  19.006  0.00  0.00    +0.000 A 
ATOM     13  C   UNL     1       2.769   4.752  19.782  0.00  0.00    +0.000 A 
ATOM     14  N   UNL     1       1.936   5.801  19.948  0.00  0.00    +0.000 NA
ATOM     15  C   UNL     1       2.324   6.892  19.264  0.00  0.00    +0.000 A 
ATOM     16  N   UNL     1       1.654   8.083  19.290  0.00  0.00    +0.000 N 
ATOM     17  H   UNL     1       0.817   8.234  19.836  0.00  0.00    +0.000 HD
BRANCH  11  18
ATOM     18  C   UNL     1       5.450   5.970  17.444  0.00  0.00    +0.000 A 
ATOM     19  C   UNL     1       6.652   6.699  17.624  0.00  0.00    +0.000 A 
ATOM     20  N   UNL     1       7.525   6.530  16.632  0.00  0.00    +0.000 NA
ATOM     21  N   UNL     1       6.905   5.681  15.800  0.00  0.00    +0.000 N 
ATOM     22  N   UNL     1       7.540   5.268  14.680  0.00  0.00    +0.000 NA
ATOM     23  C   UNL     1       6.833   4.447  13.978  0.00  0.00    +0.000 A 
ATOM     24  C   UNL     1       5.458   3.980  14.284  0.00  0.00    +0.000 A 
ATOM     25  C   UNL     1       4.901   4.442  15.410  0.00  0.00    +0.000 A 
ATOM     26  C   UNL     1       5.642   5.320  16.239  0.00  0.00    +0.000 A 
ENDBRANCH  11  18
ENDBRANCH   6   8
BRANCH   1  30
ATOM     27  C   UNL     1      -3.962  10.234  14.876  0.00  0.00    +0.000 A 
ATOM     28  C   UNL     1      -4.380  11.257  15.733  0.00  0.00    +0.000 A 
ATOM     29  C   UNL     1      -3.698  11.491  16.937  0.00  0.00    +0.000 A 
ATOM     30  C   UNL     1      -2.610  10.688  17.305  0.00  0.00    +0.000 A 
ATOM     31  C   UNL     1      -2.252   9.628  16.473  0.00  0.00    +0.000 A 
ATOM     32  C   UNL     1      -2.885   9.433  15.250  0.00  0.00    +0.000 A 
BRANCH  27  35
ATOM     33  O   UNL     1      -2.866   9.596  12.196  0.00  0.00    +0.000 OA
ATOM     34  C   UNL     1      -4.069   9.646  12.441  0.00  0.00    +0.000 C 
ATOM     35  N   UNL     1      -4.614   9.862  13.689  0.00  0.00    +0.000 N 
ATOM     36  H   UNL     1      -5.626   9.760  13.740  0.00  0.00    +0.000 HD
BRANCH  34  37
ATOM     37  C   UNL     1      -5.077   9.448  11.315  0.00  0.00    +0.000 C 
ATOM     38 CL   UNL     1      -6.589  10.362  11.545  0.00  0.00    +0.000 Cl
ENDBRANCH  34  37
ENDBRANCH  27  35
ENDBRANCH   1  30
TORSDOF 5
ENDMDL
MODEL 4
REMARK VINA RESULT:      -8.0      4.705      6.185
REMARK  Name = 
REMARK  5 active torsions:
REMARK  status: ('A' for Active; 'I' for Inactive)
REMARK    1  A    between atoms: C_2  and  C_3
REMARK    2  A    between atoms: N_5  and  C_6
REMARK    3  A    between atoms: C_9  and  C_10
REMARK    4  A    between atoms: C_15  and  C_16
REMARK    5  A    between atoms: C_19  and  C_20
REMARK                            x       y       z     vdW  Elec       q    Type
REMARK                         _______ _______ _______ _____ _____    ______ ____
ROOT
ATOM      1  C   UNL     1       0.093  11.731  19.940  0.00  0.00    +0.000 C 
ATOM      2  O   UNL     1      -1.014  12.191  19.664  0.00  0.00    +0.000 OA
ATOM      3  N   UNL     1       0.257  10.455  20.470  0.00  0.00    +0.000 N 
ATOM      4  C   UNL     1      -0.876   9.555  20.604  0.00  0.00    +0.000 C 
ATOM      5  C   UNL     1      -0.503   8.630  21.756  0.00  0.00    +0.000 C 
ATOM      6  C   UNL     1       1.018   8.521  21.669  0.00  0.00    +0.000 C 
ATOM      7  C   UNL     1       1.440   9.893  21.123  0.00  0.00    +0.000 C 
ENDROOT
BRANCH   6   8
ATOM      8  C   UNL     1       1.457   7.387  20.777  0.00  0.00    +0.000 A 
ATOM      9  C   UNL     1       2.464   7.302  19.828  0.00  0.00    +0.000 A 
ATOM     10  C   UNL     1       2.492   5.976  19.308  0.00  0.00    +0.000 A 
ATOM     11  C   UNL     1       3.257   5.250  18.369  0.00  0.00    +0.000 A 
ATOM     12  C   UNL     1       2.912   3.909  18.163  0.00  0.00    +0.000 A 
ATOM     13  C   UNL     1       1.831   3.372  18.849  0.00  0.00    +0.000 A 
ATOM     14  N   UNL     1       1.068   4.024  19.751  0.00  0.00    +0.000 NA
ATOM     15  C   UNL     1       1.450   5.300  19.937  0.00  0.00    +0.000 A 
ATOM     16  N   UNL     1       0.845   6.156  20.814  0.00  0.00    +0.000 N 
ATOM     17  H   UNL     1       0.065   5.886  21.398  0.00  0.00    +0.000 HD
BRANCH  11  18
ATOM     18  C   UNL     1       4.364   5.892  17.681  0.00  0.00    +0.000 A 
ATOM     19  C   UNL     1       4.396   6.544  16.423  0.00  0.00    +0.000 A 
ATOM     20  N   UNL     1       5.601   7.017  16.104  0.00  0.00    +0.000 NA
ATOM     21  N   UNL     1       6.364   6.685  17.154  0.00  0.00    +0.000 N 
ATOM     22  N   UNL     1       7.666   7.050  17.169  0.00  0.00    +0.000 NA
ATOM     23  C   UNL     1       8.279   6.676  18.242  0.00  0.00    +0.000 A 
ATOM     24  C   UNL     1       7.697   5.906  19.368  0.00  0.00    +0.000 A 
ATOM     25  C   UNL     1       6.402   5.582  19.272  0.00  0.00    +0.000 A 
ATOM     26  C   UNL     1       5.668   5.994  18.132  0.00  0.00    +0.000 A 
ENDBRANCH  11  18
ENDBRANCH   6   8
BRANCH   1  30
ATOM     27  C   UNL     1       3.602  14.127  19.226  0.00  0.00    +0.000 A 
ATOM     28  C   UNL     1       3.111  13.280  18.227  0.00  0.00    +0.000 A 
ATOM     29  C   UNL     1       1.951  12.523  18.451  0.00  0.00    +0.000 A 
ATOM     30  C   UNL     1       1.288  12.587  19.685  0.00  0.00    +0.000 A 
ATOM     31  C   UNL     1       1.832  13.381  20.694  0.00  0.00    +0.000 A 
ATOM     32  C   UNL     1       2.945  14.181  20.454  0.00  0.00    +0.000 A 
BRANCH  27  35
ATOM     33  O   UNL     1       4.046  16.986  18.585  0.00  0.00    +0.000 OA
ATOM     34  C   UNL     1       4.959  16.183  18.764  0.00  0.00    +0.000 C 
ATOM     35  N   UNL     1       4.793  14.867  19.140  0.00  0.00    +0.000 N 
ATOM     36  H   UNL     1       5.654  14.369  19.356  0.00  0.00    +0.000 HD
BRANCH  34  37
ATOM     37  C   UNL     1       6.404  16.630  18.581  0.00  0.00    +0.000 C 
ATOM     38 CL   UNL     1       7.430  15.414  17.779  0.00  0.00    +0.000 Cl
ENDBRANCH  34  37
ENDBRANCH  27  35
ENDBRANCH   1  30
TORSDOF 5
ENDMDL
MODEL 5
REMARK VINA RESULT:      -8.0      5.303      9.962
REMARK  Name = 
REMARK  5 active torsions:
REMARK  status: ('A' for Active; 'I' for Inactive)
REMARK    1  A    between atoms: C_2  and  C_3
REMARK    2  A    between atoms: N_5  and  C_6
REMARK    3  A    between atoms: C_9  and  C_10
REMARK    4  A    between atoms: C_15  and  C_16
REMARK    5  A    between atoms: C_19  and  C_20
REMARK                            x       y       z     vdW  Elec       q    Type
REMARK                         _______ _______ _______ _____ _____    ______ ____
ROOT
ATOM      1  C   UNL     1       1.496   7.663  20.242  0.00  0.00    +0.000 C 
ATOM      2  O   UNL     1       1.090   6.999  21.195  0.00  0.00    +0.000 OA
ATOM      3  N   UNL     1       1.020   8.941  19.968  0.00  0.00    +0.000 N 
ATOM      4  C   UNL     1       0.103   9.603  20.881  0.00  0.00    +0.000 C 
ATOM      5  C   UNL     1      -0.683  10.572  20.007  0.00  0.00    +0.000 C 
ATOM      6  C   UNL     1       0.306  10.975  18.915  0.00  0.00    +0.000 C 
ATOM      7  C   UNL     1       1.167   9.717  18.736  0.00  0.00    +0.000 C 
ENDROOT
BRANCH   6   8
ATOM      8  C   UNL     1       1.123  12.181  19.304  0.00  0.00    +0.000 A 
ATOM      9  C   UNL     1       1.309  13.405  18.680  0.00  0.00    +0.000 A 
ATOM     10  C   UNL     1       2.141  14.217  19.503  0.00  0.00    +0.000 A 
ATOM     11  C   UNL     1       2.672  15.525  19.464  0.00  0.00    +0.000 A 
ATOM     12  C   UNL     1       3.479  15.919  20.538  0.00  0.00    +0.000 A 
ATOM     13  C   UNL     1       3.747  15.014  21.556  0.00  0.00    +0.000 A 
ATOM     14  N   UNL     1       3.267  13.755  21.636  0.00  0.00    +0.000 NA
ATOM     15  C   UNL     1       2.476  13.428  20.599  0.00  0.00    +0.000 A 
ATOM     16  N   UNL     1       1.858  12.216  20.466  0.00  0.00    +0.000 N 
ATOM     17  H   UNL     1       1.943  11.476  21.149  0.00  0.00    +0.000 HD
BRANCH  11  18
ATOM     18  C   UNL     1       2.356  16.406  18.353  0.00  0.00    +0.000 A 
ATOM     19  C   UNL     1       3.151  16.792  17.244  0.00  0.00    +0.000 A 
ATOM     20  N   UNL     1       2.529  17.628  16.414  0.00  0.00    +0.000 NA
ATOM     21  N   UNL     1       1.319  17.789  16.967  0.00  0.00    +0.000 N 
ATOM     22  N   UNL     1       0.407  18.572  16.349  0.00  0.00    +0.000 NA
ATOM     23  C   UNL     1      -0.716  18.630  16.985  0.00  0.00    +0.000 A 
ATOM     24  C   UNL     1      -1.038  17.963  18.270  0.00  0.00    +0.000 A 
ATOM     25  C   UNL     1      -0.077  17.210  18.817  0.00  0.00    +0.000 A 
ATOM     26  C   UNL     1       1.165  17.081  18.148  0.00  0.00    +0.000 A 
ENDBRANCH  11  18
ENDBRANCH   6   8
BRANCH   1  30
ATOM     27  C   UNL     1       4.440   5.877  17.652  0.00  0.00    +0.000 A 
ATOM     28  C   UNL     1       3.866   7.110  17.323  0.00  0.00    +0.000 A 
ATOM     29  C   UNL     1       2.929   7.703  18.183  0.00  0.00    +0.000 A 
ATOM     30  C   UNL     1       2.541   7.058  19.364  0.00  0.00    +0.000 A 
ATOM     31  C   UNL     1       3.069   5.797  19.641  0.00  0.00    +0.000 A 
ATOM     32  C   UNL     1       4.045   5.236  18.824  0.00  0.00    +0.000 A 
BRANCH  27  35
ATOM     33  O   UNL     1       7.215   6.493  16.811  0.00  0.00    +0.000 OA
ATOM     34  C   UNL     1       6.585   5.519  16.405  0.00  0.00    +0.000 C 
ATOM     35  N   UNL     1       5.325   5.158  16.832  0.00  0.00    +0.000 N 
ATOM     36  H   UNL     1       4.992   4.262  16.481  0.00  0.00    +0.000 HD
BRANCH  34  37
ATOM     37  C   UNL     1       7.206   4.601  15.359  0.00  0.00    +0.000 C 
ATOM     38 CL   UNL     1       7.182   5.282  13.712  0.00  0.00    +0.000 Cl
ENDBRANCH  34  37
ENDBRANCH  27  35
ENDBRANCH   1  30
TORSDOF 5
ENDMDL
MODEL 6
REMARK VINA RESULT:      -7.9      5.043     10.142
REMARK  Name = 
REMARK  5 active torsions:
REMARK  status: ('A' for Active; 'I' for Inactive)
REMARK    1  A    between atoms: C_2  and  C_3
REMARK    2  A    between atoms: N_5  and  C_6
REMARK    3  A    between atoms: C_9  and  C_10
REMARK    4  A    between atoms: C_15  and  C_16
REMARK    5  A    between atoms: C_19  and  C_20
REMARK                            x       y       z     vdW  Elec       q    Type
REMARK                         _______ _______ _______ _____ _____    ______ ____
ROOT
ATOM      1  C   UNL     1       2.150   7.366  19.728  0.00  0.00    +0.000 C 
ATOM      2  O   UNL     1       2.130   6.812  20.827  0.00  0.00    +0.000 OA
ATOM      3  N   UNL     1       1.403   8.507  19.455  0.00  0.00    +0.000 N 
ATOM      4  C   UNL     1       0.655   9.174  20.508  0.00  0.00    +0.000 C 
ATOM      5  C   UNL     1      -0.490   9.874  19.787  0.00  0.00    +0.000 C 
ATOM      6  C   UNL     1       0.092  10.230  18.420  0.00  0.00    +0.000 C 
ATOM      7  C   UNL     1       1.084   9.089  18.151  0.00  0.00    +0.000 C 
ENDROOT
BRANCH   6   8
ATOM      8  C   UNL     1       0.758  11.583  18.420  0.00  0.00    +0.000 A 
ATOM      9  C   UNL     1       0.256  12.854  18.650  0.00  0.00    +0.000 A 
ATOM     10  C   UNL     1       1.328  13.790  18.584  0.00  0.00    +0.000 A 
ATOM     11  C   UNL     1       1.495  15.183  18.741  0.00  0.00    +0.000 A 
ATOM     12  C   UNL     1       2.788  15.694  18.574  0.00  0.00    +0.000 A 
ATOM     13  C   UNL     1       3.822  14.833  18.232  0.00  0.00    +0.000 A 
ATOM     14  N   UNL     1       3.711  13.498  18.067  0.00  0.00    +0.000 NA
ATOM     15  C   UNL     1       2.460  13.046  18.262  0.00  0.00    +0.000 A 
ATOM     16  N   UNL     1       2.103  11.730  18.171  0.00  0.00    +0.000 N 
ATOM     17  H   UNL     1       2.762  10.994  17.958  0.00  0.00    +0.000 HD
BRANCH  11  18
ATOM     18  C   UNL     1       0.357  16.018  19.084  0.00  0.00    +0.000 A 
ATOM     19  C   UNL     1      -0.413  16.885  18.268  0.00  0.00    +0.000 A 
ATOM     20  N   UNL     1      -1.390  17.503  18.930  0.00  0.00    +0.000 NA
ATOM     21  N   UNL     1      -1.274  17.039  20.182  0.00  0.00    +0.000 N 
ATOM     22  N   UNL     1      -2.151  17.450  21.125  0.00  0.00    +0.000 NA
ATOM     23  C   UNL     1      -1.929  16.918  22.281  0.00  0.00    +0.000 A 
ATOM     24  C   UNL     1      -0.839  15.972  22.622  0.00  0.00    +0.000 A 
ATOM     25  C   UNL     1      -0.013  15.619  21.630  0.00  0.00    +0.000 A 
ATOM     26  C   UNL     1      -0.226  16.146  20.332  0.00  0.00    +0.000 A 
ENDBRANCH  11  18
ENDBRANCH   6   8
BRANCH   1  30
ATOM     27  C   UNL     1       4.585   5.684  16.596  0.00  0.00    +0.000 A 
ATOM     28  C   UNL     1       4.560   7.067  16.804  0.00  0.00    +0.000 A 
ATOM     29  C   UNL     1       3.789   7.610  17.844  0.00  0.00    +0.000 A 
ATOM     30  C   UNL     1       3.018   6.777  18.666  0.00  0.00    +0.000 A 
ATOM     31  C   UNL     1       2.999   5.408  18.399  0.00  0.00    +0.000 A 
ATOM     32  C   UNL     1       3.811   4.861  17.412  0.00  0.00    +0.000 A 
BRANCH  27  35
ATOM     33  O   UNL     1       7.460   5.667  15.872  0.00  0.00    +0.000 OA
ATOM     34  C   UNL     1       6.588   5.121  15.199  0.00  0.00    +0.000 C 
ATOM     35  N   UNL     1       5.256   5.041  15.543  0.00  0.00    +0.000 N 
ATOM     36  H   UNL     1       4.688   4.457  14.933  0.00  0.00    +0.000 HD
BRANCH  34  37
ATOM     37  C   UNL     1       6.962   4.456  13.879  0.00  0.00    +0.000 C 
ATOM     38 CL   UNL     1       7.978   5.477  12.831  0.00  0.00    +0.000 Cl
ENDBRANCH  34  37
ENDBRANCH  27  35
ENDBRANCH   1  30
TORSDOF 5
ENDMDL
MODEL 7
REMARK VINA RESULT:      -7.9      5.813      9.219
REMARK  Name = 
REMARK  5 active torsions:
REMARK  status: ('A' for Active; 'I' for Inactive)
REMARK    1  A    between atoms: C_2  and  C_3
REMARK    2  A    between atoms: N_5  and  C_6
REMARK    3  A    between atoms: C_9  and  C_10
REMARK    4  A    between atoms: C_15  and  C_16
REMARK    5  A    between atoms: C_19  and  C_20
REMARK                            x       y       z     vdW  Elec       q    Type
REMARK                         _______ _______ _______ _____ _____    ______ ____
ROOT
ATOM      1  C   UNL     1       0.551  10.712  19.793  0.00  0.00    +0.000 C 
ATOM      2  O   UNL     1      -0.449  10.685  20.510  0.00  0.00    +0.000 OA
ATOM      3  N   UNL     1       1.102  11.903  19.330  0.00  0.00    +0.000 N 
ATOM      4  C   UNL     1       0.587  13.185  19.783  0.00  0.00    +0.000 C 
ATOM      5  C   UNL     1       0.905  14.153  18.650  0.00  0.00    +0.000 C 
ATOM      6  C   UNL     1       2.198  13.608  18.046  0.00  0.00    +0.000 C 
ATOM      7  C   UNL     1       2.072  12.092  18.252  0.00  0.00    +0.000 C 
ENDROOT
BRANCH   6   8
ATOM      8  C   UNL     1       3.423  14.179  18.714  0.00  0.00    +0.000 A 
ATOM      9  C   UNL     1       3.753  14.332  20.052  0.00  0.00    +0.000 A 
ATOM     10  C   UNL     1       5.065  14.880  20.141  0.00  0.00    +0.000 A 
ATOM     11  C   UNL     1       5.966  15.244  21.165  0.00  0.00    +0.000 A 
ATOM     12  C   UNL     1       7.202  15.772  20.772  0.00  0.00    +0.000 A 
ATOM     13  C   UNL     1       7.469  15.945  19.420  0.00  0.00    +0.000 A 
ATOM     14  N   UNL     1       6.641  15.617  18.407  0.00  0.00    +0.000 NA
ATOM     15  C   UNL     1       5.478  15.091  18.828  0.00  0.00    +0.000 A 
ATOM     16  N   UNL     1       4.487  14.663  17.988  0.00  0.00    +0.000 N 
ATOM     17  H   UNL     1       4.562  14.705  16.982  0.00  0.00    +0.000 HD
BRANCH  11  18
ATOM     18  C   UNL     1       5.603  15.045  22.558  0.00  0.00    +0.000 A 
ATOM     19  C   UNL     1       4.960  15.925  23.464  0.00  0.00    +0.000 A 
ATOM     20  N   UNL     1       4.791  15.402  24.678  0.00  0.00    +0.000 NA
ATOM     21  N   UNL     1       5.313  14.172  24.573  0.00  0.00    +0.000 N 
ATOM     22  N   UNL     1       5.276  13.343  25.641  0.00  0.00    +0.000 NA
ATOM     23  C   UNL     1       5.804  12.190  25.398  0.00  0.00    +0.000 A 
ATOM     24  C   UNL     1       6.425  11.754  24.123  0.00  0.00    +0.000 A 
ATOM     25  C   UNL     1       6.423  12.638  23.117  0.00  0.00    +0.000 A 
ATOM     26  C   UNL     1       5.828  13.908  23.315  0.00  0.00    +0.000 A 
ENDBRANCH  11  18
ENDBRANCH   6   8
BRANCH   1  30
ATOM     27  C   UNL     1       2.457   6.992  18.751  0.00  0.00    +0.000 A 
ATOM     28  C   UNL     1       2.092   7.251  20.077  0.00  0.00    +0.000 A 
ATOM     29  C   UNL     1       1.444   8.451  20.408  0.00  0.00    +0.000 A 
ATOM     30  C   UNL     1       1.181   9.411  19.423  0.00  0.00    +0.000 A 
ATOM     31  C   UNL     1       1.616   9.168  18.121  0.00  0.00    +0.000 A 
ATOM     32  C   UNL     1       2.200   7.954  17.776  0.00  0.00    +0.000 A 
BRANCH  27  35
ATOM     33  O   UNL     1       1.506   4.413  17.641  0.00  0.00    +0.000 OA
ATOM     34  C   UNL     1       2.688   4.653  17.879  0.00  0.00    +0.000 C 
ATOM     35  N   UNL     1       3.176   5.864  18.320  0.00  0.00    +0.000 N 
ATOM     36  H   UNL     1       4.191   5.932  18.359  0.00  0.00    +0.000 HD
BRANCH  34  37
ATOM     37  C   UNL     1       3.735   3.565  17.673  0.00  0.00    +0.000 C 
ATOM     38 CL   UNL     1       4.437   2.957  19.194  0.00  0.00    +0.000 Cl
ENDBRANCH  34  37
ENDBRANCH  27  35
ENDBRANCH   1  30
TORSDOF 5
ENDMDL
MODEL 8
REMARK VINA RESULT:      -7.8      5.067     10.209
REMARK  Name = 
REMARK  5 active torsions:
REMARK  status: ('A' for Active; 'I' for Inactive)
REMARK    1  A    between atoms: C_2  and  C_3
REMARK    2  A    between atoms: N_5  and  C_6
REMARK    3  A    between atoms: C_9  and  C_10
REMARK    4  A    between atoms: C_15  and  C_16
REMARK    5  A    between atoms: C_19  and  C_20
REMARK                            x       y       z     vdW  Elec       q    Type
REMARK                         _______ _______ _______ _____ _____    ______ ____
ROOT
ATOM      1  C   UNL     1       1.777   7.732  20.039  0.00  0.00    +0.000 C 
ATOM      2  O   UNL     1       1.754   7.241  21.167  0.00  0.00    +0.000 OA
ATOM      3  N   UNL     1       1.079   8.892  19.718  0.00  0.00    +0.000 N 
ATOM      4  C   UNL     1       0.386   9.651  20.747  0.00  0.00    +0.000 C 
ATOM      5  C   UNL     1      -0.740  10.366  20.010  0.00  0.00    +0.000 C 
ATOM      6  C   UNL     1      -0.170  10.618  18.615  0.00  0.00    +0.000 C 
ATOM      7  C   UNL     1       0.760   9.417  18.390  0.00  0.00    +0.000 C 
ENDROOT
BRANCH   6   8
ATOM      8  C   UNL     1       0.559  11.935  18.527  0.00  0.00    +0.000 A 
ATOM      9  C   UNL     1       0.112  13.242  18.640  0.00  0.00    +0.000 A 
ATOM     10  C   UNL     1       1.229  14.120  18.532  0.00  0.00    +0.000 A 
ATOM     11  C   UNL     1       1.457  15.512  18.583  0.00  0.00    +0.000 A 
ATOM     12  C   UNL     1       2.777  15.949  18.416  0.00  0.00    +0.000 A 
ATOM     13  C   UNL     1       3.777  15.017  18.176  0.00  0.00    +0.000 A 
ATOM     14  N   UNL     1       3.608  13.680  18.114  0.00  0.00    +0.000 NA
ATOM     15  C   UNL     1       2.332  13.302  18.306  0.00  0.00    +0.000 A 
ATOM     16  N   UNL     1       1.916  12.000  18.309  0.00  0.00    +0.000 N 
ATOM     17  H   UNL     1       2.544  11.220  18.175  0.00  0.00    +0.000 HD
BRANCH  11  18
ATOM     18  C   UNL     1       0.351  16.423  18.823  0.00  0.00    +0.000 A 
ATOM     19  C   UNL     1      -0.344  17.267  17.921  0.00  0.00    +0.000 A 
ATOM     20  N   UNL     1      -1.312  17.976  18.500  0.00  0.00    +0.000 NA
ATOM     21  N   UNL     1      -1.264  17.596  19.784  0.00  0.00    +0.000 N 
ATOM     22  N   UNL     1      -2.152  18.114  20.662  0.00  0.00    +0.000 NA
ATOM     23  C   UNL     1      -1.999  17.655  21.859  0.00  0.00    +0.000 A 
ATOM     24  C   UNL     1      -0.971  16.683  22.307  0.00  0.00    +0.000 A 
ATOM     25  C   UNL     1      -0.128  16.223  21.375  0.00  0.00    +0.000 A 
ATOM     26  C   UNL     1      -0.269  16.666  20.036  0.00  0.00    +0.000 A 
ENDBRANCH  11  18
ENDBRANCH   6   8
BRANCH   1  30
ATOM     27  C   UNL     1       4.208   5.749  17.086  0.00  0.00    +0.000 A 
ATOM     28  C   UNL     1       3.571   5.009  18.088  0.00  0.00    +0.000 A 
ATOM     29  C   UNL     1       2.755   5.654  19.031  0.00  0.00    +0.000 A 
ATOM     30  C   UNL     1       2.592   7.045  18.995  0.00  0.00    +0.000 A 
ATOM     31  C   UNL     1       3.291   7.775  18.034  0.00  0.00    +0.000 A 
ATOM     32  C   UNL     1       4.049   7.133  17.060  0.00  0.00    +0.000 A 
BRANCH  27  35
ATOM     33  O   UNL     1       7.079   6.327  16.625  0.00  0.00    +0.000 OA
ATOM     34  C   UNL     1       6.417   5.574  15.914  0.00  0.00    +0.000 C 
ATOM     35  N   UNL     1       5.104   5.221  16.142  0.00  0.00    +0.000 N 
ATOM     36  H   UNL     1       4.739   4.499  15.524  0.00  0.00    +0.000 HD
BRANCH  34  37
ATOM     37  C   UNL     1       7.056   4.947  14.681  0.00  0.00    +0.000 C 
ATOM     38 CL   UNL     1       5.937   3.926  13.741  0.00  0.00    +0.000 Cl
ENDBRANCH  34  37
ENDBRANCH  27  35
ENDBRANCH   1  30
TORSDOF 5
ENDMDL
MODEL 9
REMARK VINA RESULT:      -7.8      5.151     10.269
REMARK  Name = 
REMARK  5 active torsions:
REMARK  status: ('A' for Active; 'I' for Inactive)
REMARK    1  A    between atoms: C_2  and  C_3
REMARK    2  A    between atoms: N_5  and  C_6
REMARK    3  A    between atoms: C_9  and  C_10
REMARK    4  A    between atoms: C_15  and  C_16
REMARK    5  A    between atoms: C_19  and  C_20
REMARK                            x       y       z     vdW  Elec       q    Type
REMARK                         _______ _______ _______ _____ _____    ______ ____
ROOT
ATOM      1  C   UNL     1       1.716   7.579  20.083  0.00  0.00    +0.000 C 
ATOM      2  O   UNL     1       1.624   7.029  21.180  0.00  0.00    +0.000 OA
ATOM      3  N   UNL     1       1.093   8.791  19.803  0.00  0.00    +0.000 N 
ATOM      4  C   UNL     1       0.401   9.529  20.848  0.00  0.00    +0.000 C 
ATOM      5  C   UNL     1      -0.656  10.344  20.112  0.00  0.00    +0.000 C 
ATOM      6  C   UNL     1      -0.020  10.641  18.755  0.00  0.00    +0.000 C 
ATOM      7  C   UNL     1       0.855   9.406  18.497  0.00  0.00    +0.000 C 
ENDROOT
BRANCH   6   8
ATOM      8  C   UNL     1       0.780  11.919  18.769  0.00  0.00    +0.000 A 
ATOM      9  C   UNL     1       0.516  13.162  19.322  0.00  0.00    +0.000 A 
ATOM     10  C   UNL     1       1.636  14.013  19.095  0.00  0.00    +0.000 A 
ATOM     11  C   UNL     1       2.006  15.340  19.405  0.00  0.00    +0.000 A 
ATOM     12  C   UNL     1       3.259  15.775  18.957  0.00  0.00    +0.000 A 
ATOM     13  C   UNL     1       4.051  14.913  18.210  0.00  0.00    +0.000 A 
ATOM     14  N   UNL     1       3.741  13.642  17.884  0.00  0.00    +0.000 NA
ATOM     15  C   UNL     1       2.542  13.257  18.357  0.00  0.00    +0.000 A 
ATOM     16  N   UNL     1       2.017  12.007  18.174  0.00  0.00    +0.000 N 
ATOM     17  H   UNL     1       2.501  11.274  17.674  0.00  0.00    +0.000 HD
BRANCH  11  18
ATOM     18  C   UNL     1       1.111  16.183  20.179  0.00  0.00    +0.000 A 
ATOM     19  C   UNL     1       1.087  16.444  21.572  0.00  0.00    +0.000 A 
ATOM     20  N   UNL     1       0.110  17.273  21.937  0.00  0.00    +0.000 NA
ATOM     21  N   UNL     1      -0.508  17.568  20.785  0.00  0.00    +0.000 N 
ATOM     22  N   UNL     1      -1.550  18.428  20.794  0.00  0.00    +0.000 NA
ATOM     23  C   UNL     1      -2.044  18.629  19.617  0.00  0.00    +0.000 A 
ATOM     24  C   UNL     1      -1.590  18.004  18.351  0.00  0.00    +0.000 A 
ATOM     25  C   UNL     1      -0.553  17.160  18.432  0.00  0.00    +0.000 A 
ATOM     26  C   UNL     1       0.051  16.926  19.692  0.00  0.00    +0.000 A 
ENDBRANCH  11  18
ENDBRANCH   6   8
BRANCH   1  30
ATOM     27  C   UNL     1       4.153   5.628  17.113  0.00  0.00    +0.000 A 
ATOM     28  C   UNL     1       3.392   4.870  18.011  0.00  0.00    +0.000 A 
ATOM     29  C   UNL     1       2.576   5.509  18.958  0.00  0.00    +0.000 A 
ATOM     30  C   UNL     1       2.535   6.908  19.032  0.00  0.00    +0.000 A 
ATOM     31  C   UNL     1       3.354   7.645  18.178  0.00  0.00    +0.000 A 
ATOM     32  C   UNL     1       4.114   7.018  17.196  0.00  0.00    +0.000 A 
BRANCH  27  35
ATOM     33  O   UNL     1       6.967   4.758  17.445  0.00  0.00    +0.000 OA
ATOM     34  C   UNL     1       6.387   4.775  16.362  0.00  0.00    +0.000 C 
ATOM     35  N   UNL     1       5.059   5.098  16.180  0.00  0.00    +0.000 N 
ATOM     36  H   UNL     1       4.706   4.953  15.237  0.00  0.00    +0.000 HD
BRANCH  34  37
ATOM     37  C   UNL     1       7.147   4.407  15.093  0.00  0.00    +0.000 C 
ATOM     38 CL   UNL     1       6.090   3.893  13.754  0.00  0.00    +0.000 Cl
ENDBRANCH  34  37
ENDBRANCH  27  35
ENDBRANCH   1  30
TORSDOF 5
ENDMDL
