MODEL 1
REMARK VINA RESULT:      -8.4      0.000      0.000
REMARK  Name = 
REMARK  7 active torsions:
REMARK  status: ('A' for Active; 'I' for Inactive)
REMARK    1  A    between atoms: C_1  and  C_2
REMARK    2  A    between atoms: C_2  and  C_3
REMARK    3  A    between atoms: C_2  and  C_4
REMARK    4  A    between atoms: C_2  and  O_5
REMARK    5  A    between atoms: O_5  and  C_6
REMARK    6  A    between atoms: N_11  and  C_12
REMARK    7  A    between atoms: N_20  and  C_21
REMARK                            x       y       z     vdW  Elec       q    Type
REMARK                         _______ _______ _______ _____ _____    ______ ____
ROOT
ATOM      1  C   UNL     1       1.304   8.793  19.665  0.00  0.00    +0.000 A 
ATOM      2  C   UNL     1       0.998   9.471  18.469  0.00  0.00    +0.000 A 
ATOM      3  C   UNL     1       0.288  10.665  18.457  0.00  0.00    +0.000 A 
ATOM      4  C   UNL     1      -0.163  11.231  19.643  0.00  0.00    +0.000 A 
ATOM      5  C   UNL     1       0.102  10.556  20.848  0.00  0.00    +0.000 A 
ATOM      6  C   UNL     1       0.855   9.377  20.878  0.00  0.00    +0.000 A 
ATOM      7  C   UNL     1       1.029   9.133  22.258  0.00  0.00    +0.000 A 
ATOM      8  N   UNL     1       0.457  10.045  23.039  0.00  0.00    +0.000 NA
ATOM      9  N   UNL     1      -0.206  10.856  22.174  0.00  0.00    +0.000 N 
ENDROOT
BRANCH   1  15
ATOM     10  C   UNL     1       4.309   5.126  18.273  0.00  0.00    +0.000 C 
ATOM     11  O   UNL     1       4.303   3.901  18.330  0.00  0.00    +0.000 OA
ATOM     12  N   UNL     1       3.385   5.893  18.938  0.00  0.00    +0.000 N 
ATOM     13  C   UNL     1       2.444   5.313  19.858  0.00  0.00    +0.000 C 
ATOM     14  C   UNL     1       1.898   6.519  20.590  0.00  0.00    +0.000 C 
ATOM     15  N   UNL     1       2.020   7.575  19.615  0.00  0.00    +0.000 N 
ATOM     16  C   UNL     1       3.006   7.223  18.655  0.00  0.00    +0.000 C 
ATOM     17  O   UNL     1       3.449   7.930  17.763  0.00  0.00    +0.000 OA
BRANCH  10  18
ATOM     18  O   UNL     1       5.218   5.872  17.595  0.00  0.00    +0.000 OA
BRANCH  18  20
ATOM     19  C   UNL     1       7.235   4.634  16.979  0.00  0.00    +0.000 C 
ATOM     20  C   UNL     1       6.633   5.731  17.862  0.00  0.00    +0.000 C 
ATOM     21  C   UNL     1       6.886   5.501  19.357  0.00  0.00    +0.000 C 
ATOM     22  C   UNL     1       7.268   7.073  17.466  0.00  0.00    +0.000 C 
ENDBRANCH  18  20
ENDBRANCH  10  18
ENDBRANCH   1  15
BRANCH   9  23
ATOM     23  C   UNL     1      -1.039  11.878  22.688  0.00  0.00    +0.000 A 
ATOM     24  C   UNL     1      -2.309  11.542  23.185  0.00  0.00    +0.000 A 
ATOM     25  C   UNL     1      -3.130  12.533  23.730  0.00  0.00    +0.000 A 
ATOM     26  C   UNL     1      -2.703  13.861  23.758  0.00  0.00    +0.000 A 
ATOM     27  C   UNL     1      -1.462  14.201  23.227  0.00  0.00    +0.000 A 
ATOM     28  C   UNL     1      -0.641  13.214  22.689  0.00  0.00    +0.000 A 
ATOM     29  F   UNL     1       0.491  13.613  22.093  0.00  0.00    +0.000 F 
ENDBRANCH   9  23
TORSDOF 4
ENDMDL
MODEL 2
REMARK VINA RESULT:      -8.1      0.993      1.330
REMARK  Name = 
REMARK  7 active torsions:
REMARK  status: ('A' for Active; 'I' for Inactive)
REMARK    1  A    between atoms: C_1  and  C_2
REMARK    2  A    between atoms: C_2  and  C_3
REMARK    3  A    between atoms: C_2  and  C_4
REMARK    4  A    between atoms: C_2  and  O_5
REMARK    5  A    between atoms: O_5  and  C_6
REMARK    6  A    between atoms: N_11  and  C_12
REMARK    7  A    between atoms: N_20  and  C_21
REMARK                            x       y       z     vdW  Elec       q    Type
REMARK                         _______ _______ _______ _____ _____    ______ ____
ROOT
ATOM      1  C   UNL     1       1.531   8.458  19.276  0.00  0.00    +0.000 A 
ATOM      2  C   UNL     1       1.136   9.044  18.056  0.00  0.00    +0.000 A 
ATOM      3  C   UNL     1       0.439  10.244  18.004  0.00  0.00    +0.000 A 
ATOM      4  C   UNL     1       0.090  10.910  19.173  0.00  0.00    +0.000 A 
ATOM      5  C   UNL     1       0.444  10.329  20.403  0.00  0.00    +0.000 A 
ATOM      6  C   UNL     1       1.186   9.145  20.469  0.00  0.00    +0.000 A 
ATOM      7  C   UNL     1       1.468   9.008  21.846  0.00  0.00    +0.000 A 
ATOM      8  N   UNL     1       0.969   9.989  22.594  0.00  0.00    +0.000 NA
ATOM      9  N   UNL     1       0.246  10.738  21.721  0.00  0.00    +0.000 N 
ENDROOT
BRANCH   1  15
ATOM     10  C   UNL     1       4.520   4.724  18.039  0.00  0.00    +0.000 C 
ATOM     11  O   UNL     1       4.493   3.501  18.114  0.00  0.00    +0.000 OA
ATOM     12  N   UNL     1       3.587   5.516  18.661  0.00  0.00    +0.000 N 
ATOM     13  C   UNL     1       2.609   4.965  19.560  0.00  0.00    +0.000 C 
ATOM     14  C   UNL     1       2.059   6.190  20.254  0.00  0.00    +0.000 C 
ATOM     15  N   UNL     1       2.228   7.229  19.268  0.00  0.00    +0.000 N 
ATOM     16  C   UNL     1       3.239   6.846  18.345  0.00  0.00    +0.000 C 
ATOM     17  O   UNL     1       3.721   7.532  17.456  0.00  0.00    +0.000 OA
BRANCH  10  18
ATOM     18  O   UNL     1       5.462   5.445  17.378  0.00  0.00    +0.000 OA
BRANCH  18  20
ATOM     19  C   UNL     1       7.707   4.482  17.262  0.00  0.00    +0.000 C 
ATOM     20  C   UNL     1       6.808   5.548  17.897  0.00  0.00    +0.000 C 
ATOM     21  C   UNL     1       6.808   5.495  19.430  0.00  0.00    +0.000 C 
ATOM     22  C   UNL     1       7.319   6.931  17.462  0.00  0.00    +0.000 C 
ENDBRANCH  18  20
ENDBRANCH  10  18
ENDBRANCH   1  15
BRANCH   9  23
ATOM     23  C   UNL     1      -0.533  11.812  22.215  0.00  0.00    +0.000 A 
ATOM     24  C   UNL     1      -0.167  13.129  21.895  0.00  0.00    +0.000 A 
ATOM     25  C   UNL     1      -0.946  14.199  22.343  0.00  0.00    +0.000 A 
ATOM     26  C   UNL     1      -2.074  13.964  23.130  0.00  0.00    +0.000 A 
ATOM     27  C   UNL     1      -2.413  12.661  23.484  0.00  0.00    +0.000 A 
ATOM     28  C   UNL     1      -1.641  11.594  23.033  0.00  0.00    +0.000 A 
ATOM     29  F   UNL     1      -1.948  10.374  23.494  0.00  0.00    +0.000 F 
ENDBRANCH   9  23
TORSDOF 4
ENDMDL
MODEL 3
REMARK VINA RESULT:      -8.1      3.939      8.729
REMARK  Name = 
REMARK  7 active torsions:
REMARK  status: ('A' for Active; 'I' for Inactive)
REMARK    1  A    between atoms: C_1  and  C_2
REMARK    2  A    between atoms: C_2  and  C_3
REMARK    3  A    between atoms: C_2  and  C_4
REMARK    4  A    between atoms: C_2  and  O_5
REMARK    5  A    between atoms: O_5  and  C_6
REMARK    6  A    between atoms: N_11  and  C_12
REMARK    7  A    between atoms: N_20  and  C_21
REMARK                            x       y       z     vdW  Elec       q    Type
REMARK                         _______ _______ _______ _____ _____    ______ ____
ROOT
ATOM      1  C   UNL     1       0.703   9.958  19.849  0.00  0.00    +0.000 A 
ATOM      2  C   UNL     1       0.427   9.525  21.161  0.00  0.00    +0.000 A 
ATOM      3  C   UNL     1       0.872   8.301  21.646  0.00  0.00    +0.000 A 
ATOM      4  C   UNL     1       1.605   7.444  20.833  0.00  0.00    +0.000 A 
ATOM      5  C   UNL     1       1.866   7.840  19.510  0.00  0.00    +0.000 A 
ATOM      6  C   UNL     1       1.463   9.089  19.024  0.00  0.00    +0.000 A 
ATOM      7  C   UNL     1       2.060   9.153  17.746  0.00  0.00    +0.000 A 
ATOM      8  N   UNL     1       2.771   8.074  17.432  0.00  0.00    +0.000 NA
ATOM      9  N   UNL     1       2.558   7.222  18.469  0.00  0.00    +0.000 N 
ENDROOT
BRANCH   1  15
ATOM     10  C   UNL     1       0.266  14.771  18.824  0.00  0.00    +0.000 C 
ATOM     11  O   UNL     1      -0.639  15.598  18.807  0.00  0.00    +0.000 OA
ATOM     12  N   UNL     1       0.026  13.428  18.975  0.00  0.00    +0.000 N 
ATOM     13  C   UNL     1      -1.310  12.895  18.974  0.00  0.00    +0.000 C 
ATOM     14  C   UNL     1      -1.081  11.409  18.807  0.00  0.00    +0.000 C 
ATOM     15  N   UNL     1       0.214  11.208  19.408  0.00  0.00    +0.000 N 
ATOM     16  C   UNL     1       0.927  12.437  19.420  0.00  0.00    +0.000 C 
ATOM     17  O   UNL     1       2.093  12.608  19.745  0.00  0.00    +0.000 OA
BRANCH  10  18
ATOM     18  O   UNL     1       1.584  15.053  18.670  0.00  0.00    +0.000 OA
BRANCH  18  20
ATOM     19  C   UNL     1       1.811  15.852  20.971  0.00  0.00    +0.000 C 
ATOM     20  C   UNL     1       2.228  16.042  19.509  0.00  0.00    +0.000 C 
ATOM     21  C   UNL     1       1.958  17.458  18.988  0.00  0.00    +0.000 C 
ATOM     22  C   UNL     1       3.736  15.766  19.397  0.00  0.00    +0.000 C 
ENDBRANCH  18  20
ENDBRANCH  10  18
ENDBRANCH   1  15
BRANCH   9  23
ATOM     23  C   UNL     1       3.076   5.906  18.398  0.00  0.00    +0.000 A 
ATOM     24  C   UNL     1       4.390   5.663  18.829  0.00  0.00    +0.000 A 
ATOM     25  C   UNL     1       4.906   4.365  18.801  0.00  0.00    +0.000 A 
ATOM     26  C   UNL     1       4.127   3.311  18.322  0.00  0.00    +0.000 A 
ATOM     27  C   UNL     1       2.838   3.559  17.855  0.00  0.00    +0.000 A 
ATOM     28  C   UNL     1       2.322   4.851  17.887  0.00  0.00    +0.000 A 
ATOM     29  F   UNL     1       1.123   5.049  17.324  0.00  0.00    +0.000 F 
ENDBRANCH   9  23
TORSDOF 4
ENDMDL
MODEL 4
REMARK VINA RESULT:      -8.0      4.012      8.551
REMARK  Name = 
REMARK  7 active torsions:
REMARK  status: ('A' for Active; 'I' for Inactive)
REMARK    1  A    between atoms: C_1  and  C_2
REMARK    2  A    between atoms: C_2  and  C_3
REMARK    3  A    between atoms: C_2  and  C_4
REMARK    4  A    between atoms: C_2  and  O_5
REMARK    5  A    between atoms: O_5  and  C_6
REMARK    6  A    between atoms: N_11  and  C_12
REMARK    7  A    between atoms: N_20  and  C_21
REMARK                            x       y       z     vdW  Elec       q    Type
REMARK                         _______ _______ _______ _____ _____    ______ ____
ROOT
ATOM      1  C   UNL     1       0.886   9.827  19.865  0.00  0.00    +0.000 A 
ATOM      2  C   UNL     1       0.491   9.399  21.148  0.00  0.00    +0.000 A 
ATOM      3  C   UNL     1       0.776   8.124  21.623  0.00  0.00    +0.000 A 
ATOM      4  C   UNL     1       1.459   7.211  20.828  0.00  0.00    +0.000 A 
ATOM      5  C   UNL     1       1.834   7.604  19.532  0.00  0.00    +0.000 A 
ATOM      6  C   UNL     1       1.594   8.899  19.059  0.00  0.00    +0.000 A 
ATOM      7  C   UNL     1       2.266   8.925  17.817  0.00  0.00    +0.000 A 
ATOM      8  N   UNL     1       2.874   7.783  17.513  0.00  0.00    +0.000 NA
ATOM      9  N   UNL     1       2.515   6.937  18.514  0.00  0.00    +0.000 N 
ENDROOT
BRANCH   1  15
ATOM     10  C   UNL     1       0.579  14.742  19.468  0.00  0.00    +0.000 C 
ATOM     11  O   UNL     1      -0.278  15.556  19.143  0.00  0.00    +0.000 OA
ATOM     12  N   UNL     1       0.410  13.392  19.289  0.00  0.00    +0.000 N 
ATOM     13  C   UNL     1      -0.720  12.860  18.575  0.00  0.00    +0.000 C 
ATOM     14  C   UNL     1      -0.317  11.425  18.323  0.00  0.00    +0.000 C 
ATOM     15  N   UNL     1       0.558  11.132  19.431  0.00  0.00    +0.000 N 
ATOM     16  C   UNL     1       1.076  12.344  19.960  0.00  0.00    +0.000 C 
ATOM     17  O   UNL     1       1.935  12.463  20.821  0.00  0.00    +0.000 OA
BRANCH  10  18
ATOM     18  O   UNL     1       1.787  15.052  20.003  0.00  0.00    +0.000 OA
BRANCH  18  20
ATOM     19  C   UNL     1       2.633  17.107  18.982  0.00  0.00    +0.000 C 
ATOM     20  C   UNL     1       2.839  15.601  19.176  0.00  0.00    +0.000 C 
ATOM     21  C   UNL     1       2.948  14.837  17.851  0.00  0.00    +0.000 C 
ATOM     22  C   UNL     1       4.143  15.390  19.964  0.00  0.00    +0.000 C 
ENDBRANCH  18  20
ENDBRANCH  10  18
ENDBRANCH   1  15
BRANCH   9  23
ATOM     23  C   UNL     1       2.893   5.575  18.436  0.00  0.00    +0.000 A 
ATOM     24  C   UNL     1       2.025   4.656  17.825  0.00  0.00    +0.000 A 
ATOM     25  C   UNL     1       2.399   3.315  17.707  0.00  0.00    +0.000 A 
ATOM     26  C   UNL     1       3.622   2.880  18.217  0.00  0.00    +0.000 A 
ATOM     27  C   UNL     1       4.465   3.782  18.861  0.00  0.00    +0.000 A 
ATOM     28  C   UNL     1       4.096   5.120  18.975  0.00  0.00    +0.000 A 
ATOM     29  F   UNL     1       4.892   5.917  19.699  0.00  0.00    +0.000 F 
ENDBRANCH   9  23
TORSDOF 4
ENDMDL
MODEL 5
REMARK VINA RESULT:      -8.0      2.239      3.455
REMARK  Name = 
REMARK  7 active torsions:
REMARK  status: ('A' for Active; 'I' for Inactive)
REMARK    1  A    between atoms: C_1  and  C_2
REMARK    2  A    between atoms: C_2  and  C_3
REMARK    3  A    between atoms: C_2  and  C_4
REMARK    4  A    between atoms: C_2  and  O_5
REMARK    5  A    between atoms: O_5  and  C_6
REMARK    6  A    between atoms: N_11  and  C_12
REMARK    7  A    between atoms: N_20  and  C_21
REMARK                            x       y       z     vdW  Elec       q    Type
REMARK                         _______ _______ _______ _____ _____    ______ ____
ROOT
ATOM      1  C   UNL     1       0.993   8.980  20.326  0.00  0.00    +0.000 A 
ATOM      2  C   UNL     1       1.089   8.875  21.727  0.00  0.00    +0.000 A 
ATOM      3  C   UNL     1       0.350   9.684  22.582  0.00  0.00    +0.000 A 
ATOM      4  C   UNL     1      -0.513  10.647  22.073  0.00  0.00    +0.000 A 
ATOM      5  C   UNL     1      -0.602  10.793  20.678  0.00  0.00    +0.000 A 
ATOM      6  C   UNL     1       0.102   9.955  19.806  0.00  0.00    +0.000 A 
ATOM      7  C   UNL     1      -0.392  10.315  18.533  0.00  0.00    +0.000 A 
ATOM      8  N   UNL     1      -1.311  11.275  18.567  0.00  0.00    +0.000 NA
ATOM      9  N   UNL     1      -1.358  11.645  19.874  0.00  0.00    +0.000 N 
ENDROOT
BRANCH   1  15
ATOM     10  C   UNL     1       3.644   5.179  18.614  0.00  0.00    +0.000 C 
ATOM     11  O   UNL     1       4.628   5.032  17.898  0.00  0.00    +0.000 OA
ATOM     12  N   UNL     1       3.017   6.392  18.755  0.00  0.00    +0.000 N 
ATOM     13  C   UNL     1       3.387   7.529  17.957  0.00  0.00    +0.000 C 
ATOM     14  C   UNL     1       2.241   8.490  18.186  0.00  0.00    +0.000 C 
ATOM     15  N   UNL     1       1.779   8.139  19.506  0.00  0.00    +0.000 N 
ATOM     16  C   UNL     1       2.179   6.810  19.811  0.00  0.00    +0.000 C 
ATOM     17  O   UNL     1       1.859   6.152  20.789  0.00  0.00    +0.000 OA
BRANCH  10  18
ATOM     18  O   UNL     1       3.038   4.191  19.320  0.00  0.00    +0.000 OA
BRANCH  18  20
ATOM     19  C   UNL     1       2.870   2.019  18.207  0.00  0.00    +0.000 C 
ATOM     20  C   UNL     1       2.125   3.275  18.670  0.00  0.00    +0.000 C 
ATOM     21  C   UNL     1       1.367   3.974  17.536  0.00  0.00    +0.000 C 
ATOM     22  C   UNL     1       1.109   2.864  19.748  0.00  0.00    +0.000 C 
ENDBRANCH  18  20
ENDBRANCH  10  18
ENDBRANCH   1  15
BRANCH   9  23
ATOM     23  C   UNL     1      -2.158  12.751  20.249  0.00  0.00    +0.000 A 
ATOM     24  C   UNL     1      -3.554  12.604  20.291  0.00  0.00    +0.000 A 
ATOM     25  C   UNL     1      -4.357  13.674  20.695  0.00  0.00    +0.000 A 
ATOM     26  C   UNL     1      -3.777  14.897  21.033  0.00  0.00    +0.000 A 
ATOM     27  C   UNL     1      -2.396  15.056  20.952  0.00  0.00    +0.000 A 
ATOM     28  C   UNL     1      -1.595  13.989  20.555  0.00  0.00    +0.000 A 
ATOM     29  F   UNL     1      -0.288  14.231  20.387  0.00  0.00    +0.000 F 
ENDBRANCH   9  23
TORSDOF 4
ENDMDL
MODEL 6
REMARK VINA RESULT:      -8.0      1.819      2.809
REMARK  Name = 
REMARK  7 active torsions:
REMARK  status: ('A' for Active; 'I' for Inactive)
REMARK    1  A    between atoms: C_1  and  C_2
REMARK    2  A    between atoms: C_2  and  C_3
REMARK    3  A    between atoms: C_2  and  C_4
REMARK    4  A    between atoms: C_2  and  O_5
REMARK    5  A    between atoms: O_5  and  C_6
REMARK    6  A    between atoms: N_11  and  C_12
REMARK    7  A    between atoms: N_20  and  C_21
REMARK                            x       y       z     vdW  Elec       q    Type
REMARK                         _______ _______ _______ _____ _____    ______ ____
ROOT
ATOM      1  C   UNL     1       0.521   9.632  19.126  0.00  0.00    +0.000 A 
ATOM      2  C   UNL     1      -0.355  10.062  18.110  0.00  0.00    +0.000 A 
ATOM      3  C   UNL     1      -1.345  11.010  18.339  0.00  0.00    +0.000 A 
ATOM      4  C   UNL     1      -1.514  11.564  19.603  0.00  0.00    +0.000 A 
ATOM      5  C   UNL     1      -0.673  11.126  20.641  0.00  0.00    +0.000 A 
ATOM      6  C   UNL     1       0.357  10.207  20.413  0.00  0.00    +0.000 A 
ATOM      7  C   UNL     1       1.050  10.176  21.643  0.00  0.00    +0.000 A 
ATOM      8  N   UNL     1       0.535  10.981  22.568  0.00  0.00    +0.000 NA
ATOM      9  N   UNL     1      -0.589  11.479  21.987  0.00  0.00    +0.000 N 
ENDROOT
BRANCH   1  15
ATOM     10  C   UNL     1       3.561   5.749  19.423  0.00  0.00    +0.000 C 
ATOM     11  O   UNL     1       4.700   5.481  19.055  0.00  0.00    +0.000 OA
ATOM     12  N   UNL     1       2.908   6.884  19.011  0.00  0.00    +0.000 N 
ATOM     13  C   UNL     1       3.464   7.752  18.008  0.00  0.00    +0.000 C 
ATOM     14  C   UNL     1       2.290   8.627  17.629  0.00  0.00    +0.000 C 
ATOM     15  N   UNL     1       1.501   8.656  18.836  0.00  0.00    +0.000 N 
ATOM     16  C   UNL     1       1.820   7.527  19.638  0.00  0.00    +0.000 C 
ATOM     17  O   UNL     1       1.261   7.173  20.665  0.00  0.00    +0.000 OA
BRANCH  10  18
ATOM     18  O   UNL     1       2.800   4.973  20.236  0.00  0.00    +0.000 OA
BRANCH  18  20
ATOM     19  C   UNL     1       3.185   2.581  19.906  0.00  0.00    +0.000 C 
ATOM     20  C   UNL     1       2.208   3.749  19.742  0.00  0.00    +0.000 C 
ATOM     21  C   UNL     1       1.719   3.923  18.299  0.00  0.00    +0.000 C 
ATOM     22  C   UNL     1       0.986   3.486  20.637  0.00  0.00    +0.000 C 
ENDBRANCH  18  20
ENDBRANCH  10  18
ENDBRANCH   1  15
BRANCH   9  23
ATOM     23  C   UNL     1      -1.461  12.289  22.754  0.00  0.00    +0.000 A 
ATOM     24  C   UNL     1      -2.717  11.783  23.125  0.00  0.00    +0.000 A 
ATOM     25  C   UNL     1      -3.575  12.554  23.913  0.00  0.00    +0.000 A 
ATOM     26  C   UNL     1      -3.199  13.837  24.311  0.00  0.00    +0.000 A 
ATOM     27  C   UNL     1      -1.971  14.356  23.908  0.00  0.00    +0.000 A 
ATOM     28  C   UNL     1      -1.113  13.586  23.127  0.00  0.00    +0.000 A 
ATOM     29  F   UNL     1       0.003  14.175  22.677  0.00  0.00    +0.000 F 
ENDBRANCH   9  23
TORSDOF 4
ENDMDL
MODEL 7
REMARK VINA RESULT:      -8.0      3.953      8.718
REMARK  Name = 
REMARK  7 active torsions:
REMARK  status: ('A' for Active; 'I' for Inactive)
REMARK    1  A    between atoms: C_1  and  C_2
REMARK    2  A    between atoms: C_2  and  C_3
REMARK    3  A    between atoms: C_2  and  C_4
REMARK    4  A    between atoms: C_2  and  O_5
REMARK    5  A    between atoms: O_5  and  C_6
REMARK    6  A    between atoms: N_11  and  C_12
REMARK    7  A    between atoms: N_20  and  C_21
REMARK                            x       y       z     vdW  Elec       q    Type
REMARK                         _______ _______ _______ _____ _____    ______ ____
ROOT
ATOM      1  C   UNL     1       0.658  10.098  20.089  0.00  0.00    +0.000 A 
ATOM      2  C   UNL     1       0.576   9.536  21.378  0.00  0.00    +0.000 A 
ATOM      3  C   UNL     1       1.120   8.294  21.680  0.00  0.00    +0.000 A 
ATOM      4  C   UNL     1       1.762   7.547  20.699  0.00  0.00    +0.000 A 
ATOM      5  C   UNL     1       1.828   8.072  19.397  0.00  0.00    +0.000 A 
ATOM      6  C   UNL     1       1.325   9.341  19.091  0.00  0.00    +0.000 A 
ATOM      7  C   UNL     1       1.741   9.548  17.757  0.00  0.00    +0.000 A 
ATOM      8  N   UNL     1       2.435   8.533  17.250  0.00  0.00    +0.000 NA
ATOM      9  N   UNL     1       2.392   7.582  18.220  0.00  0.00    +0.000 N 
ENDROOT
BRANCH   1  15
ATOM     10  C   UNL     1       0.007  14.915  19.203  0.00  0.00    +0.000 C 
ATOM     11  O   UNL     1      -0.813  15.773  19.510  0.00  0.00    +0.000 OA
ATOM     12  N   UNL     1      -0.197  13.582  19.461  0.00  0.00    +0.000 N 
ATOM     13  C   UNL     1      -1.450  13.096  19.973  0.00  0.00    +0.000 C 
ATOM     14  C   UNL     1      -1.345  11.602  19.764  0.00  0.00    +0.000 C 
ATOM     15  N   UNL     1       0.075  11.361  19.838  0.00  0.00    +0.000 N 
ATOM     16  C   UNL     1       0.776  12.564  19.556  0.00  0.00    +0.000 C 
ATOM     17  O   UNL     1       1.982  12.697  19.414  0.00  0.00    +0.000 OA
BRANCH  10  18
ATOM     18  O   UNL     1       1.179  15.150  18.559  0.00  0.00    +0.000 OA
BRANCH  18  20
ATOM     19  C   UNL     1       2.327  16.051  20.522  0.00  0.00    +0.000 C 
ATOM     20  C   UNL     1       2.075  16.190  19.017  0.00  0.00    +0.000 C 
ATOM     21  C   UNL     1       1.549  17.576  18.623  0.00  0.00    +0.000 C 
ATOM     22  C   UNL     1       3.403  15.950  18.281  0.00  0.00    +0.000 C 
ENDBRANCH  18  20
ENDBRANCH  10  18
ENDBRANCH   1  15
BRANCH   9  23
ATOM     23  C   UNL     1       2.936   6.302  17.956  0.00  0.00    +0.000 A 
ATOM     24  C   UNL     1       2.110   5.171  18.060  0.00  0.00    +0.000 A 
ATOM     25  C   UNL     1       2.620   3.904  17.768  0.00  0.00    +0.000 A 
ATOM     26  C   UNL     1       3.956   3.755  17.396  0.00  0.00    +0.000 A 
ATOM     27  C   UNL     1       4.787   4.870  17.333  0.00  0.00    +0.000 A 
ATOM     28  C   UNL     1       4.278   6.134  17.619  0.00  0.00    +0.000 A 
ATOM     29  F   UNL     1       5.147   7.154  17.652  0.00  0.00    +0.000 F 
ENDBRANCH   9  23
TORSDOF 4
ENDMDL
MODEL 8
REMARK VINA RESULT:      -7.9      3.834      9.016
REMARK  Name = 
REMARK  7 active torsions:
REMARK  status: ('A' for Active; 'I' for Inactive)
REMARK    1  A    between atoms: C_1  and  C_2
REMARK    2  A    between atoms: C_2  and  C_3
REMARK    3  A    between atoms: C_2  and  C_4
REMARK    4  A    between atoms: C_2  and  O_5
REMARK    5  A    between atoms: O_5  and  C_6
REMARK    6  A    between atoms: N_11  and  C_12
REMARK    7  A    between atoms: N_20  and  C_21
REMARK                            x       y       z     vdW  Elec       q    Type
REMARK                         _______ _______ _______ _____ _____    ______ ____
ROOT
ATOM      1  C   UNL     1       0.465   9.688  20.142  0.00  0.00    +0.000 A 
ATOM      2  C   UNL     1       0.363   8.950  21.338  0.00  0.00    +0.000 A 
ATOM      3  C   UNL     1       1.053   7.760  21.534  0.00  0.00    +0.000 A 
ATOM      4  C   UNL     1       1.869   7.244  20.534  0.00  0.00    +0.000 A 
ATOM      5  C   UNL     1       1.961   7.945  19.319  0.00  0.00    +0.000 A 
ATOM      6  C   UNL     1       1.308   9.168  19.126  0.00  0.00    +0.000 A 
ATOM      7  C   UNL     1       1.792   9.606  17.874  0.00  0.00    +0.000 A 
ATOM      8  N   UNL     1       2.660   8.769  17.313  0.00  0.00    +0.000 NA
ATOM      9  N   UNL     1       2.677   7.698  18.149  0.00  0.00    +0.000 N 
ENDROOT
BRANCH   1  15
ATOM     10  C   UNL     1      -1.132  14.343  20.588  0.00  0.00    +0.000 C 
ATOM     11  O   UNL     1      -2.216  14.915  20.581  0.00  0.00    +0.000 OA
ATOM     12  N   UNL     1      -1.001  13.021  20.241  0.00  0.00    +0.000 N 
ATOM     13  C   UNL     1      -2.103  12.269  19.705  0.00  0.00    +0.000 C 
ATOM     14  C   UNL     1      -1.433  11.031  19.154  0.00  0.00    +0.000 C 
ATOM     15  N   UNL     1      -0.270  10.887  19.995  0.00  0.00    +0.000 N 
ATOM     16  C   UNL     1       0.045  12.139  20.586  0.00  0.00    +0.000 C 
ATOM     17  O   UNL     1       1.031  12.409  21.256  0.00  0.00    +0.000 OA
BRANCH  10  18
ATOM     18  O   UNL     1       0.055  14.922  20.901  0.00  0.00    +0.000 OA
BRANCH  18  20
ATOM     19  C   UNL     1       0.430  17.336  20.780  0.00  0.00    +0.000 C 
ATOM     20  C   UNL     1       0.595  15.983  20.079  0.00  0.00    +0.000 C 
ATOM     21  C   UNL     1      -0.024  15.957  18.677  0.00  0.00    +0.000 C 
ATOM     22  C   UNL     1       2.098  15.687  19.949  0.00  0.00    +0.000 C 
ENDBRANCH  18  20
ENDBRANCH  10  18
ENDBRANCH   1  15
BRANCH   9  23
ATOM     23  C   UNL     1       3.416   6.547  17.781  0.00  0.00    +0.000 A 
ATOM     24  C   UNL     1       4.763   6.688  17.410  0.00  0.00    +0.000 A 
ATOM     25  C   UNL     1       5.517   5.559  17.080  0.00  0.00    +0.000 A 
ATOM     26  C   UNL     1       4.929   4.294  17.092  0.00  0.00    +0.000 A 
ATOM     27  C   UNL     1       3.583   4.159  17.420  0.00  0.00    +0.000 A 
ATOM     28  C   UNL     1       2.832   5.282  17.754  0.00  0.00    +0.000 A 
ATOM     29  F   UNL     1       1.518   5.107  17.951  0.00  0.00    +0.000 F 
ENDBRANCH   9  23
TORSDOF 4
ENDMDL
MODEL 9
REMARK VINA RESULT:      -7.8      2.041      3.068
REMARK  Name = 
REMARK  7 active torsions:
REMARK  status: ('A' for Active; 'I' for Inactive)
REMARK    1  A    between atoms: C_1  and  C_2
REMARK    2  A    between atoms: C_2  and  C_3
REMARK    3  A    between atoms: C_2  and  C_4
REMARK    4  A    between atoms: C_2  and  O_5
REMARK    5  A    between atoms: O_5  and  C_6
REMARK    6  A    between atoms: N_11  and  C_12
REMARK    7  A    between atoms: N_20  and  C_21
REMARK                            x       y       z     vdW  Elec       q    Type
REMARK                         _______ _______ _______ _____ _____    ______ ____
ROOT
ATOM      1  C   UNL     1       0.504   9.515  18.834  0.00  0.00    +0.000 A 
ATOM      2  C   UNL     1      -0.443   9.708  17.809  0.00  0.00    +0.000 A 
ATOM      3  C   UNL     1      -1.486  10.620  17.927  0.00  0.00    +0.000 A 
ATOM      4  C   UNL     1      -1.638  11.372  19.086  0.00  0.00    +0.000 A 
ATOM      5  C   UNL     1      -0.725  11.173  20.136  0.00  0.00    +0.000 A 
ATOM      6  C   UNL     1       0.356  10.293  20.012  0.00  0.00    +0.000 A 
ATOM      7  C   UNL     1       1.101  10.518  21.190  0.00  0.00    +0.000 A 
ATOM      8  N   UNL     1       0.572  11.438  21.991  0.00  0.00    +0.000 NA
ATOM      9  N   UNL     1      -0.607  11.758  21.396  0.00  0.00    +0.000 N 
ENDROOT
BRANCH   1  15
ATOM     10  C   UNL     1       3.664   5.784  19.542  0.00  0.00    +0.000 C 
ATOM     11  O   UNL     1       4.832   5.542  19.259  0.00  0.00    +0.000 OA
ATOM     12  N   UNL     1       2.995   6.865  19.025  0.00  0.00    +0.000 N 
ATOM     13  C   UNL     1       3.578   7.696  18.006  0.00  0.00    +0.000 C 
ATOM     14  C   UNL     1       2.397   8.499  17.507  0.00  0.00    +0.000 C 
ATOM     15  N   UNL     1       1.536   8.565  18.662  0.00  0.00    +0.000 N 
ATOM     16  C   UNL     1       1.847   7.498  19.547  0.00  0.00    +0.000 C 
ATOM     17  O   UNL     1       1.240   7.181  20.559  0.00  0.00    +0.000 OA
BRANCH  10  18
ATOM     18  O   UNL     1       2.885   5.026  20.354  0.00  0.00    +0.000 OA
BRANCH  18  20
ATOM     19  C   UNL     1       3.428   2.650  20.142  0.00  0.00    +0.000 C 
ATOM     20  C   UNL     1       2.382   3.745  19.906  0.00  0.00    +0.000 C 
ATOM     21  C   UNL     1       1.915   3.821  18.448  0.00  0.00    +0.000 C 
ATOM     22  C   UNL     1       1.161   3.443  20.790  0.00  0.00    +0.000 C 
ENDBRANCH  18  20
ENDBRANCH  10  18
ENDBRANCH   1  15
BRANCH   9  23
ATOM     23  C   UNL     1      -1.500  12.634  22.060  0.00  0.00    +0.000 A 
ATOM     24  C   UNL     1      -1.532  13.989  21.691  0.00  0.00    +0.000 A 
ATOM     25  C   UNL     1      -2.432  14.860  22.310  0.00  0.00    +0.000 A 
ATOM     26  C   UNL     1      -3.282  14.393  23.313  0.00  0.00    +0.000 A 
ATOM     27  C   UNL     1      -3.221  13.060  23.709  0.00  0.00    +0.000 A 
ATOM     28  C   UNL     1      -2.328  12.190  23.089  0.00  0.00    +0.000 A 
ATOM     29  F   UNL     1      -2.234  10.949  23.585  0.00  0.00    +0.000 F 
ENDBRANCH   9  23
TORSDOF 4
ENDMDL
