MODEL 1
REMARK VINA RESULT:      -5.5      0.000      0.000
REMARK  Name = 
REMARK  5 active torsions:
REMARK  status: ('A' for Active; 'I' for Inactive)
REMARK    1  A    between atoms: C_2  and  C_3
REMARK    2  A    between atoms: C_4  and  N_5
REMARK    3  A    between atoms: C_7  and  N_8
REMARK    4  A    between atoms: C_9  and  C_10
REMARK    5  A    between atoms: C_12  and  C_13
REMARK                            x       y       z     vdW  Elec       q    Type
REMARK                         _______ _______ _______ _____ _____    ______ ____
ROOT
ATOM      1  C   UNL     1       2.771   5.923  18.663  0.00  0.00    +0.000 C 
ATOM      2  C   UNL     1       2.260   6.207  19.887  0.00  0.00    +0.000 C 
ATOM      3  S   UNL     1       1.640   4.960  20.918  0.00  0.00    +0.000 S 
ATOM      4  C   UNL     1       2.473   3.553  20.343  0.00  0.00    +0.000 C 
ATOM      5  C   UNL     1       2.965   3.493  19.081  0.00  0.00    +0.000 C 
ATOM      6  C   UNL     1       3.095   4.589  18.071  0.00  0.00    +0.000 C 
ENDROOT
BRANCH   6   7
ATOM      7  C   UNL     1       4.473   4.614  17.448  0.00  0.00    +0.000 A 
ATOM      8  C   UNL     1       4.932   4.429  16.155  0.00  0.00    +0.000 A 
ATOM      9  C   UNL     1       6.342   4.506  16.223  0.00  0.00    +0.000 A 
ATOM     10  C   UNL     1       6.651   4.741  17.540  0.00  0.00    +0.000 A 
ATOM     11  O   UNL     1       5.521   4.812  18.292  0.00  0.00    +0.000 OA
ENDBRANCH   6   7
BRANCH   2  12
ATOM     12  N   UNL     1       2.147   7.491  20.399  0.00  0.00    +0.000 N 
ATOM     13  H   UNL     1       2.951   7.902  20.866  0.00  0.00    +0.000 HD
ATOM     14  H   UNL     1       1.660   8.127  19.774  0.00  0.00    +0.000 HD
ENDBRANCH   2  12
BRANCH   4  15
ATOM     15  N   UNL     1       2.551   2.511  21.253  0.00  0.00    +0.000 N 
ATOM     16  H   UNL     1       2.881   1.643  20.837  0.00  0.00    +0.000 HD
ATOM     17  H   UNL     1       2.926   2.696  22.179  0.00  0.00    +0.000 HD
ENDBRANCH   4  15
BRANCH   1  19
ATOM     18  N   UNL     1       3.368   8.206  17.192  0.00  0.00    +0.000 NA
ATOM     19  C   UNL     1       3.097   7.171  17.859  0.00  0.00    +0.000 C 
ENDBRANCH   1  19
BRANCH   5  20
ATOM     20  C   UNL     1       3.499   2.117  18.720  0.00  0.00    +0.000 C 
ATOM     21  N   UNL     1       3.942   0.975  18.421  0.00  0.00    +0.000 NA
ENDBRANCH   5  20
TORSDOF 5
ENDMDL
MODEL 2
REMARK VINA RESULT:      -5.5      2.114      3.882
REMARK  Name = 
REMARK  5 active torsions:
REMARK  status: ('A' for Active; 'I' for Inactive)
REMARK    1  A    between atoms: C_2  and  C_3
REMARK    2  A    between atoms: C_4  and  N_5
REMARK    3  A    between atoms: C_7  and  N_8
REMARK    4  A    between atoms: C_9  and  C_10
REMARK    5  A    between atoms: C_12  and  C_13
REMARK                            x       y       z     vdW  Elec       q    Type
REMARK                         _______ _______ _______ _____ _____    ______ ____
ROOT
ATOM      1  C   UNL     1       4.275   5.109  16.956  0.00  0.00    +0.000 C 
ATOM      2  C   UNL     1       4.665   6.405  17.043  0.00  0.00    +0.000 C 
ATOM      3  S   UNL     1       3.683   7.591  17.839  0.00  0.00    +0.000 S 
ATOM      4  C   UNL     1       2.732   6.624  18.918  0.00  0.00    +0.000 C 
ATOM      5  C   UNL     1       2.505   5.311  18.672  0.00  0.00    +0.000 C 
ATOM      6  C   UNL     1       3.139   4.424  17.647  0.00  0.00    +0.000 C 
ENDROOT
BRANCH   6   7
ATOM      7  C   UNL     1       3.604   3.118  18.249  0.00  0.00    +0.000 A 
ATOM      8  C   UNL     1       3.336   1.791  17.958  0.00  0.00    +0.000 A 
ATOM      9  C   UNL     1       4.023   1.028  18.931  0.00  0.00    +0.000 A 
ATOM     10  C   UNL     1       4.671   1.930  19.740  0.00  0.00    +0.000 A 
ATOM     11  O   UNL     1       4.425   3.202  19.332  0.00  0.00    +0.000 OA
ENDBRANCH   6   7
BRANCH   2  12
ATOM     12  N   UNL     1       5.832   6.901  16.484  0.00  0.00    +0.000 N 
ATOM     13  H   UNL     1       5.821   7.193  15.511  0.00  0.00    +0.000 HD
ATOM     14  H   UNL     1       6.331   7.536  17.102  0.00  0.00    +0.000 HD
ENDBRANCH   2  12
BRANCH   4  15
ATOM     15  N   UNL     1       2.207   7.309  20.002  0.00  0.00    +0.000 N 
ATOM     16  H   UNL     1       2.597   7.004  20.892  0.00  0.00    +0.000 HD
ATOM     17  H   UNL     1       2.073   8.313  19.930  0.00  0.00    +0.000 HD
ENDBRANCH   4  15
BRANCH   1  19
ATOM     18  N   UNL     1       5.955   3.589  15.343  0.00  0.00    +0.000 NA
ATOM     19  C   UNL     1       5.193   4.278  16.075  0.00  0.00    +0.000 C 
ENDBRANCH   1  19
BRANCH   5  20
ATOM     20  C   UNL     1       1.508   4.693  19.637  0.00  0.00    +0.000 C 
ATOM     21  N   UNL     1       0.680   4.179  20.439  0.00  0.00    +0.000 NA
ENDBRANCH   5  20
TORSDOF 5
ENDMDL
MODEL 3
REMARK VINA RESULT:      -5.3      1.182      1.469
REMARK  Name = 
REMARK  5 active torsions:
REMARK  status: ('A' for Active; 'I' for Inactive)
REMARK    1  A    between atoms: C_2  and  C_3
REMARK    2  A    between atoms: C_4  and  N_5
REMARK    3  A    between atoms: C_7  and  N_8
REMARK    4  A    between atoms: C_9  and  C_10
REMARK    5  A    between atoms: C_12  and  C_13
REMARK                            x       y       z     vdW  Elec       q    Type
REMARK                         _______ _______ _______ _____ _____    ______ ____
ROOT
ATOM      1  C   UNL     1       3.249   5.809  18.763  0.00  0.00    +0.000 C 
ATOM      2  C   UNL     1       2.288   6.188  19.641  0.00  0.00    +0.000 C 
ATOM      3  S   UNL     1       1.509   5.038  20.678  0.00  0.00    +0.000 S 
ATOM      4  C   UNL     1       2.681   3.765  20.770  0.00  0.00    +0.000 C 
ATOM      5  C   UNL     1       3.608   3.590  19.796  0.00  0.00    +0.000 C 
ATOM      6  C   UNL     1       3.950   4.492  18.652  0.00  0.00    +0.000 C 
ENDROOT
BRANCH   6   7
ATOM      7  C   UNL     1       5.443   4.703  18.534  0.00  0.00    +0.000 A 
ATOM      8  C   UNL     1       6.381   5.318  19.346  0.00  0.00    +0.000 A 
ATOM      9  C   UNL     1       7.610   5.249  18.650  0.00  0.00    +0.000 A 
ATOM     10  C   UNL     1       7.348   4.592  17.472  0.00  0.00    +0.000 A 
ATOM     11  O   UNL     1       6.035   4.253  17.394  0.00  0.00    +0.000 OA
ENDBRANCH   6   7
BRANCH   2  12
ATOM     12  N   UNL     1       1.818   7.487  19.761  0.00  0.00    +0.000 N 
ATOM     13  H   UNL     1       1.489   7.805  20.668  0.00  0.00    +0.000 HD
ATOM     14  H   UNL     1       2.393   8.164  19.266  0.00  0.00    +0.000 HD
ENDBRANCH   2  12
BRANCH   4  15
ATOM     15  N   UNL     1       2.561   2.942  21.878  0.00  0.00    +0.000 N 
ATOM     16  H   UNL     1       1.790   3.205  22.487  0.00  0.00    +0.000 HD
ATOM     17  H   UNL     1       2.672   1.940  21.758  0.00  0.00    +0.000 HD
ENDBRANCH   4  15
BRANCH   1  19
ATOM     18  N   UNL     1       4.027   7.870  17.065  0.00  0.00    +0.000 NA
ATOM     19  C   UNL     1       3.674   6.935  17.835  0.00  0.00    +0.000 C 
ENDBRANCH   1  19
BRANCH   5  20
ATOM     20  C   UNL     1       4.422   2.320  19.976  0.00  0.00    +0.000 C 
ATOM     21  N   UNL     1       5.097   1.265  20.126  0.00  0.00    +0.000 NA
ENDBRANCH   5  20
TORSDOF 5
ENDMDL
MODEL 4
REMARK VINA RESULT:      -4.9      2.171      4.151
REMARK  Name = 
REMARK  5 active torsions:
REMARK  status: ('A' for Active; 'I' for Inactive)
REMARK    1  A    between atoms: C_2  and  C_3
REMARK    2  A    between atoms: C_4  and  N_5
REMARK    3  A    between atoms: C_7  and  N_8
REMARK    4  A    between atoms: C_9  and  C_10
REMARK    5  A    between atoms: C_12  and  C_13
REMARK                            x       y       z     vdW  Elec       q    Type
REMARK                         _______ _______ _______ _____ _____    ______ ____
ROOT
ATOM      1  C   UNL     1       3.238   6.276  19.224  0.00  0.00    +0.000 C 
ATOM      2  C   UNL     1       3.557   6.813  18.020  0.00  0.00    +0.000 C 
ATOM      3  S   UNL     1       4.819   6.144  17.039  0.00  0.00    +0.000 S 
ATOM      4  C   UNL     1       4.897   4.506  17.599  0.00  0.00    +0.000 C 
ATOM      5  C   UNL     1       4.467   4.164  18.838  0.00  0.00    +0.000 C 
ATOM      6  C   UNL     1       3.695   4.984  19.823  0.00  0.00    +0.000 C 
ENDROOT
BRANCH   6   7
ATOM      7  C   UNL     1       2.515   4.221  20.382  0.00  0.00    +0.000 A 
ATOM      8  C   UNL     1       2.236   3.689  21.630  0.00  0.00    +0.000 A 
ATOM      9  C   UNL     1       0.993   3.026  21.506  0.00  0.00    +0.000 A 
ATOM     10  C   UNL     1       0.591   3.203  20.204  0.00  0.00    +0.000 A 
ATOM     11  O   UNL     1       1.508   3.931  19.515  0.00  0.00    +0.000 OA
ENDBRANCH   6   7
BRANCH   2  12
ATOM     12  N   UNL     1       2.951   7.942  17.492  0.00  0.00    +0.000 N 
ATOM     13  H   UNL     1       3.476   8.519  16.841  0.00  0.00    +0.000 HD
ATOM     14  H   UNL     1       1.984   7.784  17.220  0.00  0.00    +0.000 HD
ENDBRANCH   2  12
BRANCH   4  15
ATOM     15  N   UNL     1       5.462   3.611  16.704  0.00  0.00    +0.000 N 
ATOM     16  H   UNL     1       6.447   3.432  16.888  0.00  0.00    +0.000 HD
ATOM     17  H   UNL     1       4.933   2.787  16.435  0.00  0.00    +0.000 HD
ENDBRANCH   4  15
BRANCH   1  19
ATOM     18  N   UNL     1       1.391   7.807  20.629  0.00  0.00    +0.000 NA
ATOM     19  C   UNL     1       2.229   7.113  19.992  0.00  0.00    +0.000 C 
ENDBRANCH   1  19
BRANCH   5  20
ATOM     20  C   UNL     1       4.785   2.722  19.197  0.00  0.00    +0.000 C 
ATOM     21  N   UNL     1       5.049   1.525  19.495  0.00  0.00    +0.000 NA
ENDBRANCH   5  20
TORSDOF 5
ENDMDL
MODEL 5
REMARK VINA RESULT:      -4.9      2.455      4.062
REMARK  Name = 
REMARK  5 active torsions:
REMARK  status: ('A' for Active; 'I' for Inactive)
REMARK    1  A    between atoms: C_2  and  C_3
REMARK    2  A    between atoms: C_4  and  N_5
REMARK    3  A    between atoms: C_7  and  N_8
REMARK    4  A    between atoms: C_9  and  C_10
REMARK    5  A    between atoms: C_12  and  C_13
REMARK                            x       y       z     vdW  Elec       q    Type
REMARK                         _______ _______ _______ _____ _____    ______ ____
ROOT
ATOM      1  C   UNL     1       3.352   5.733  19.072  0.00  0.00    +0.000 C 
ATOM      2  C   UNL     1       3.000   6.807  18.322  0.00  0.00    +0.000 C 
ATOM      3  S   UNL     1       4.184   7.729  17.455  0.00  0.00    +0.000 S 
ATOM      4  C   UNL     1       5.472   6.587  17.255  0.00  0.00    +0.000 C 
ATOM      5  C   UNL     1       5.615   5.532  18.095  0.00  0.00    +0.000 C 
ATOM      6  C   UNL     1       4.669   5.029  19.139  0.00  0.00    +0.000 C 
ENDROOT
BRANCH   6   7
ATOM      7  C   UNL     1       4.469   3.533  19.037  0.00  0.00    +0.000 A 
ATOM      8  C   UNL     1       3.847   2.722  18.103  0.00  0.00    +0.000 A 
ATOM      9  C   UNL     1       3.934   1.404  18.607  0.00  0.00    +0.000 A 
ATOM     10  C   UNL     1       4.608   1.492  19.801  0.00  0.00    +0.000 A 
ATOM     11  O   UNL     1       4.941   2.782  20.068  0.00  0.00    +0.000 OA
ENDBRANCH   6   7
BRANCH   2  12
ATOM     12  N   UNL     1       1.703   7.283  18.214  0.00  0.00    +0.000 N 
ATOM     13  H   UNL     1       1.294   7.379  17.289  0.00  0.00    +0.000 HD
ATOM     14  H   UNL     1       1.074   6.885  18.907  0.00  0.00    +0.000 HD
ENDBRANCH   2  12
BRANCH   4  15
ATOM     15  N   UNL     1       6.339   6.866  16.211  0.00  0.00    +0.000 N 
ATOM     16  H   UNL     1       6.072   6.415  15.339  0.00  0.00    +0.000 HD
ATOM     17  H   UNL     1       6.682   7.816  16.099  0.00  0.00    +0.000 HD
ENDBRANCH   4  15
BRANCH   1  19
ATOM     18  N   UNL     1       1.229   4.714  20.552  0.00  0.00    +0.000 NA
ATOM     19  C   UNL     1       2.191   5.176  19.881  0.00  0.00    +0.000 C 
ENDBRANCH   1  19
BRANCH   5  20
ATOM     20  C   UNL     1       6.900   4.758  17.856  0.00  0.00    +0.000 C 
ATOM     21  N   UNL     1       7.967   4.115  17.659  0.00  0.00    +0.000 NA
ENDBRANCH   5  20
TORSDOF 5
ENDMDL
MODEL 6
REMARK VINA RESULT:      -4.9      2.290      4.056
REMARK  Name = 
REMARK  5 active torsions:
REMARK  status: ('A' for Active; 'I' for Inactive)
REMARK    1  A    between atoms: C_2  and  C_3
REMARK    2  A    between atoms: C_4  and  N_5
REMARK    3  A    between atoms: C_7  and  N_8
REMARK    4  A    between atoms: C_9  and  C_10
REMARK    5  A    between atoms: C_12  and  C_13
REMARK                            x       y       z     vdW  Elec       q    Type
REMARK                         _______ _______ _______ _____ _____    ______ ____
ROOT
ATOM      1  C   UNL     1       3.340   5.900  18.924  0.00  0.00    +0.000 C 
ATOM      2  C   UNL     1       3.045   7.158  18.513  0.00  0.00    +0.000 C 
ATOM      3  S   UNL     1       4.004   7.966  17.317  0.00  0.00    +0.000 S 
ATOM      4  C   UNL     1       4.727   6.642  16.464  0.00  0.00    +0.000 C 
ATOM      5  C   UNL     1       4.882   5.428  17.048  0.00  0.00    +0.000 C 
ATOM      6  C   UNL     1       4.319   4.931  18.342  0.00  0.00    +0.000 C 
ENDROOT
BRANCH   6   7
ATOM      7  C   UNL     1       3.679   3.570  18.187  0.00  0.00    +0.000 A 
ATOM      8  C   UNL     1       2.588   3.112  17.467  0.00  0.00    +0.000 A 
ATOM      9  C   UNL     1       2.450   1.743  17.790  0.00  0.00    +0.000 A 
ATOM     10  C   UNL     1       3.463   1.451  18.670  0.00  0.00    +0.000 A 
ATOM     11  O   UNL     1       4.218   2.554  18.915  0.00  0.00    +0.000 OA
ENDBRANCH   6   7
BRANCH   2  12
ATOM     12  N   UNL     1       2.003   7.915  19.027  0.00  0.00    +0.000 N 
ATOM     13  H   UNL     1       1.647   8.693  18.477  0.00  0.00    +0.000 HD
ATOM     14  H   UNL     1       1.279   7.350  19.464  0.00  0.00    +0.000 HD
ENDBRANCH   2  12
BRANCH   4  15
ATOM     15  N   UNL     1       5.157   6.942  15.182  0.00  0.00    +0.000 N 
ATOM     16  H   UNL     1       5.552   7.876  15.102  0.00  0.00    +0.000 HD
ATOM     17  H   UNL     1       5.660   6.233  14.655  0.00  0.00    +0.000 HD
ENDBRANCH   4  15
BRANCH   1  19
ATOM     18  N   UNL     1       1.772   5.074  21.067  0.00  0.00    +0.000 NA
ATOM     19  C   UNL     1       2.483   5.448  20.095  0.00  0.00    +0.000 C 
ENDBRANCH   1  19
BRANCH   5  20
ATOM     20  C   UNL     1       5.692   4.463  16.200  0.00  0.00    +0.000 C 
ATOM     21  N   UNL     1       6.366   3.662  15.496  0.00  0.00    +0.000 NA
ENDBRANCH   5  20
TORSDOF 5
ENDMDL
MODEL 7
REMARK VINA RESULT:      -4.8      1.580      1.944
REMARK  Name = 
REMARK  5 active torsions:
REMARK  status: ('A' for Active; 'I' for Inactive)
REMARK    1  A    between atoms: C_2  and  C_3
REMARK    2  A    between atoms: C_4  and  N_5
REMARK    3  A    between atoms: C_7  and  N_8
REMARK    4  A    between atoms: C_9  and  C_10
REMARK    5  A    between atoms: C_12  and  C_13
REMARK                            x       y       z     vdW  Elec       q    Type
REMARK                         _______ _______ _______ _____ _____    ______ ____
ROOT
ATOM      1  C   UNL     1       3.791   5.678  17.780  0.00  0.00    +0.000 C 
ATOM      2  C   UNL     1       2.626   6.186  18.252  0.00  0.00    +0.000 C 
ATOM      3  S   UNL     1       1.590   5.260  19.287  0.00  0.00    +0.000 S 
ATOM      4  C   UNL     1       2.690   4.121  19.992  0.00  0.00    +0.000 C 
ATOM      5  C   UNL     1       3.849   3.786  19.373  0.00  0.00    +0.000 C 
ATOM      6  C   UNL     1       4.494   4.419  18.181  0.00  0.00    +0.000 C 
ENDROOT
BRANCH   6   7
ATOM      7  C   UNL     1       5.961   4.693  18.419  0.00  0.00    +0.000 A 
ATOM      8  C   UNL     1       7.113   4.354  17.729  0.00  0.00    +0.000 A 
ATOM      9  C   UNL     1       8.193   4.844  18.499  0.00  0.00    +0.000 A 
ATOM     10  C   UNL     1       7.636   5.456  19.596  0.00  0.00    +0.000 A 
ATOM     11  O   UNL     1       6.280   5.372  19.554  0.00  0.00    +0.000 OA
ENDBRANCH   6   7
BRANCH   2  12
ATOM     12  N   UNL     1       2.143   7.445  17.926  0.00  0.00    +0.000 N 
ATOM     13  H   UNL     1       2.165   8.174  18.634  0.00  0.00    +0.000 HD
ATOM     14  H   UNL     1       2.432   7.754  17.002  0.00  0.00    +0.000 HD
ENDBRANCH   2  12
BRANCH   4  15
ATOM     15  N   UNL     1       2.268   3.570  21.191  0.00  0.00    +0.000 N 
ATOM     16  H   UNL     1       2.016   4.271  21.884  0.00  0.00    +0.000 HD
ATOM     17  H   UNL     1       1.648   2.766  21.170  0.00  0.00    +0.000 HD
ENDBRANCH   4  15
BRANCH   1  19
ATOM     18  N   UNL     1       5.009   7.336  15.910  0.00  0.00    +0.000 NA
ATOM     19  C   UNL     1       4.457   6.584  16.758  0.00  0.00    +0.000 C 
ENDBRANCH   1  19
BRANCH   5  20
ATOM     20  C   UNL     1       4.579   2.647  20.064  0.00  0.00    +0.000 C 
ATOM     21  N   UNL     1       5.185   1.701  20.638  0.00  0.00    +0.000 NA
ENDBRANCH   5  20
TORSDOF 5
ENDMDL
MODEL 8
REMARK VINA RESULT:      -4.7      1.851      2.609
REMARK  Name = 
REMARK  5 active torsions:
REMARK  status: ('A' for Active; 'I' for Inactive)
REMARK    1  A    between atoms: C_2  and  C_3
REMARK    2  A    between atoms: C_4  and  N_5
REMARK    3  A    between atoms: C_7  and  N_8
REMARK    4  A    between atoms: C_9  and  C_10
REMARK    5  A    between atoms: C_12  and  C_13
REMARK                            x       y       z     vdW  Elec       q    Type
REMARK                         _______ _______ _______ _____ _____    ______ ____
ROOT
ATOM      1  C   UNL     1       2.753   5.220  18.816  0.00  0.00    +0.000 C 
ATOM      2  C   UNL     1       2.241   4.245  19.607  0.00  0.00    +0.000 C 
ATOM      3  S   UNL     1       2.257   2.583  19.117  0.00  0.00    +0.000 S 
ATOM      4  C   UNL     1       3.567   2.542  17.984  0.00  0.00    +0.000 C 
ATOM      5  C   UNL     1       3.967   3.660  17.329  0.00  0.00    +0.000 C 
ATOM      6  C   UNL     1       3.570   5.082  17.571  0.00  0.00    +0.000 C 
ENDROOT
BRANCH   6   7
ATOM      7  C   UNL     1       4.774   5.995  17.631  0.00  0.00    +0.000 A 
ATOM      8  C   UNL     1       5.137   7.132  16.930  0.00  0.00    +0.000 A 
ATOM      9  C   UNL     1       6.421   7.492  17.400  0.00  0.00    +0.000 A 
ATOM     10  C   UNL     1       6.753   6.565  18.358  0.00  0.00    +0.000 A 
ATOM     11  O   UNL     1       5.757   5.653  18.508  0.00  0.00    +0.000 OA
ENDBRANCH   6   7
BRANCH   2  12
ATOM     12  N   UNL     1       1.632   4.482  20.830  0.00  0.00    +0.000 N 
ATOM     13  H   UNL     1       2.217   4.710  21.630  0.00  0.00    +0.000 HD
ATOM     14  H   UNL     1       0.793   5.051  20.753  0.00  0.00    +0.000 HD
ENDBRANCH   2  12
BRANCH   4  15
ATOM     15  N   UNL     1       4.125   1.289  17.784  0.00  0.00    +0.000 N 
ATOM     16  H   UNL     1       4.506   0.883  18.635  0.00  0.00    +0.000 HD
ATOM     17  H   UNL     1       3.638   0.625  17.189  0.00  0.00    +0.000 HD
ENDBRANCH   4  15
BRANCH   1  19
ATOM     18  N   UNL     1       2.259   7.774  19.799  0.00  0.00    +0.000 NA
ATOM     19  C   UNL     1       2.483   6.616  19.353  0.00  0.00    +0.000 C 
ENDBRANCH   1  19
BRANCH   5  20
ATOM     20  C   UNL     1       5.004   3.376  16.256  0.00  0.00    +0.000 C 
ATOM     21  N   UNL     1       5.866   3.141  15.365  0.00  0.00    +0.000 NA
ENDBRANCH   5  20
TORSDOF 5
ENDMDL
MODEL 9
REMARK VINA RESULT:      -4.7      5.639      8.221
REMARK  Name = 
REMARK  5 active torsions:
REMARK  status: ('A' for Active; 'I' for Inactive)
REMARK    1  A    between atoms: C_2  and  C_3
REMARK    2  A    between atoms: C_4  and  N_5
REMARK    3  A    between atoms: C_7  and  N_8
REMARK    4  A    between atoms: C_9  and  C_10
REMARK    5  A    between atoms: C_12  and  C_13
REMARK                            x       y       z     vdW  Elec       q    Type
REMARK                         _______ _______ _______ _____ _____    ______ ____
ROOT
ATOM      1  C   UNL     1       0.884   9.781  19.811  0.00  0.00    +0.000 C 
ATOM      2  C   UNL     1       1.224   8.913  20.795  0.00  0.00    +0.000 C 
ATOM      3  S   UNL     1       0.848   9.239  22.456  0.00  0.00    +0.000 S 
ATOM      4  C   UNL     1      -0.493  10.328  22.327  0.00  0.00    +0.000 C 
ATOM      5  C   UNL     1      -0.688  11.077  21.214  0.00  0.00    +0.000 C 
ATOM      6  C   UNL     1      -0.001  10.985  19.888  0.00  0.00    +0.000 C 
ENDROOT
BRANCH   6   7
ATOM      7  C   UNL     1      -0.991  10.981  18.745  0.00  0.00    +0.000 A 
ATOM      8  C   UNL     1      -1.349  11.926  17.798  0.00  0.00    +0.000 A 
ATOM      9  C   UNL     1      -2.391  11.345  17.038  0.00  0.00    +0.000 A 
ATOM     10  C   UNL     1      -2.592  10.090  17.558  0.00  0.00    +0.000 A 
ATOM     11  O   UNL     1      -1.744   9.858  18.593  0.00  0.00    +0.000 OA
ENDBRANCH   6   7
BRANCH   2  12
ATOM     12  N   UNL     1       1.924   7.736  20.581  0.00  0.00    +0.000 N 
ATOM     13  H   UNL     1       1.402   6.891  20.363  0.00  0.00    +0.000 HD
ATOM     14  H   UNL     1       2.757   7.866  20.014  0.00  0.00    +0.000 HD
ENDBRANCH   2  12
BRANCH   4  15
ATOM     15  N   UNL     1      -1.302  10.390  23.450  0.00  0.00    +0.000 N 
ATOM     16  H   UNL     1      -0.779  10.331  24.321  0.00  0.00    +0.000 HD
ATOM     17  H   UNL     1      -2.064  11.061  23.469  0.00  0.00    +0.000 HD
ENDBRANCH   4  15
BRANCH   1  19
ATOM     18  N   UNL     1       1.930   9.064  17.336  0.00  0.00    +0.000 NA
ATOM     19  C   UNL     1       1.456   9.389  18.458  0.00  0.00    +0.000 C 
ENDBRANCH   1  19
BRANCH   5  20
ATOM     20  C   UNL     1      -1.810  12.089  21.372  0.00  0.00    +0.000 C 
ATOM     21  N   UNL     1      -2.742  12.930  21.503  0.00  0.00    +0.000 NA
ENDBRANCH   5  20
TORSDOF 5
ENDMDL
