MODEL 1
REMARK VINA RESULT:      -8.0      0.000      0.000
REMARK  Name = 
REMARK  2 active torsions:
REMARK  status: ('A' for Active; 'I' for Inactive)
REMARK    1  A    between atoms: C_10  and  C_11
REMARK    2  A    between atoms: C_18  and  N_19
REMARK                            x       y       z     vdW  Elec       q    Type
REMARK                         _______ _______ _______ _____ _____    ______ ____
ROOT
ATOM      1  O   UNL     1      -0.741  10.330  23.468  0.00  0.00    +0.000 OA
ATOM      2  C   UNL     1      -0.299  10.382  22.317  0.00  0.00    +0.000 C 
ATOM      3  N   UNL     1       0.184   9.224  21.745  0.00  0.00    +0.000 N 
ATOM      4  C   UNL     1       0.684   9.090  20.441  0.00  0.00    +0.000 A 
ATOM      5  C   UNL     1       1.654   8.098  20.245  0.00  0.00    +0.000 A 
ATOM      6  C   UNL     1       2.264   7.936  18.998  0.00  0.00    +0.000 A 
ATOM      7  C   UNL     1       1.907   8.757  17.934  0.00  0.00    +0.000 A 
ATOM      8  C   UNL     1       0.917   9.724  18.108  0.00  0.00    +0.000 A 
ATOM      9  C   UNL     1       0.274   9.871  19.348  0.00  0.00    +0.000 A 
ATOM     10  C   UNL     1      -0.917  10.778  19.420  0.00  0.00    +0.000 C 
ATOM     11  N   UNL     1      -1.146  11.614  20.381  0.00  0.00    +0.000 NA
ATOM     12  C   UNL     1      -0.181  11.678  21.472  0.00  0.00    +0.000 C 
ATOM     13  H   UNL     1       0.310   8.477  22.413  0.00  0.00    +0.000 HD
ENDROOT
BRANCH  12  14
ATOM     14  N   UNL     1      -0.556  12.831  22.235  0.00  0.00    +0.000 N 
ATOM     15  C   UNL     1       0.091  14.018  22.108  0.00  0.00    +0.000 C 
ATOM     16  O   UNL     1       0.986  14.173  21.277  0.00  0.00    +0.000 OA
ATOM     17  N   UNL     1      -0.327  15.030  22.946  0.00  0.00    +0.000 N 
ATOM     18  C   UNL     1      -1.242  14.903  24.085  0.00  0.00    +0.000 C 
ATOM     19  C   UNL     1      -2.184  16.109  24.147  0.00  0.00    +0.000 C 
ATOM     20  O   UNL     1      -1.453  17.343  24.181  0.00  0.00    +0.000 OA
ATOM     21  C   UNL     1      -0.622  17.472  23.014  0.00  0.00    +0.000 C 
ATOM     22  C   UNL     1       0.375  16.315  22.912  0.00  0.00    +0.000 C 
ATOM     23  H   UNL     1      -1.395  12.715  22.764  0.00  0.00    +0.000 HD
ENDBRANCH  12  14
BRANCH  10  24
ATOM     24  C   UNL     1      -1.930  10.720  18.307  0.00  0.00    +0.000 A 
ATOM     25  C   UNL     1      -1.762   9.862  17.212  0.00  0.00    +0.000 A 
ATOM     26  C   UNL     1      -2.688   9.864  16.166  0.00  0.00    +0.000 A 
ATOM     27  C   UNL     1      -3.801  10.699  16.223  0.00  0.00    +0.000 A 
ATOM     28  C   UNL     1      -3.997  11.528  17.328  0.00  0.00    +0.000 A 
ATOM     29  C   UNL     1      -3.066  11.538  18.369  0.00  0.00    +0.000 A 
ENDBRANCH  10  24
TORSDOF 2
ENDMDL
MODEL 2
REMARK VINA RESULT:      -7.7      3.212      4.002
REMARK  Name = 
REMARK  2 active torsions:
REMARK  status: ('A' for Active; 'I' for Inactive)
REMARK    1  A    between atoms: C_10  and  C_11
REMARK    2  A    between atoms: C_18  and  N_19
REMARK                            x       y       z     vdW  Elec       q    Type
REMARK                         _______ _______ _______ _____ _____    ______ ____
ROOT
ATOM      1  O   UNL     1      -1.622  11.114  23.344  0.00  0.00    +0.000 OA
ATOM      2  C   UNL     1      -1.390  11.723  22.296  0.00  0.00    +0.000 C 
ATOM      3  N   UNL     1      -0.125  11.641  21.754  0.00  0.00    +0.000 N 
ATOM      4  C   UNL     1       0.303  12.232  20.555  0.00  0.00    +0.000 A 
ATOM      5  C   UNL     1       1.659  12.575  20.479  0.00  0.00    +0.000 A 
ATOM      6  C   UNL     1       2.166  13.233  19.355  0.00  0.00    +0.000 A 
ATOM      7  C   UNL     1       1.324  13.548  18.293  0.00  0.00    +0.000 A 
ATOM      8  C   UNL     1      -0.020  13.179  18.342  0.00  0.00    +0.000 A 
ATOM      9  C   UNL     1      -0.530  12.487  19.453  0.00  0.00    +0.000 A 
ATOM     10  C   UNL     1      -1.921  11.937  19.363  0.00  0.00    +0.000 C 
ATOM     11  N   UNL     1      -2.797  11.996  20.314  0.00  0.00    +0.000 NA
ATOM     12  C   UNL     1      -2.404  12.639  21.562  0.00  0.00    +0.000 C 
ATOM     13  H   UNL     1       0.552  11.243  22.389  0.00  0.00    +0.000 HD
ENDROOT
BRANCH  12  14
ATOM     14  N   UNL     1      -3.618  12.774  22.311  0.00  0.00    +0.000 N 
ATOM     15  C   UNL     1      -4.147  13.989  22.609  0.00  0.00    +0.000 C 
ATOM     16  O   UNL     1      -3.641  15.028  22.187  0.00  0.00    +0.000 OA
ATOM     17  N   UNL     1      -5.284  13.980  23.389  0.00  0.00    +0.000 N 
ATOM     18  C   UNL     1      -5.856  12.828  24.093  0.00  0.00    +0.000 C 
ATOM     19  C   UNL     1      -7.384  12.854  24.001  0.00  0.00    +0.000 C 
ATOM     20  O   UNL     1      -7.916  14.097  24.485  0.00  0.00    +0.000 OA
ATOM     21  C   UNL     1      -7.394  15.201  23.726  0.00  0.00    +0.000 C 
ATOM     22  C   UNL     1      -5.866  15.257  23.808  0.00  0.00    +0.000 C 
ATOM     23  H   UNL     1      -4.090  11.910  22.481  0.00  0.00    +0.000 HD
ENDBRANCH  12  14
BRANCH  10  24
ATOM     24  C   UNL     1      -2.342  11.261  18.084  0.00  0.00    +0.000 A 
ATOM     25  C   UNL     1      -3.502  11.649  17.402  0.00  0.00    +0.000 A 
ATOM     26  C   UNL     1      -3.901  10.972  16.247  0.00  0.00    +0.000 A 
ATOM     27  C   UNL     1      -3.126   9.926  15.750  0.00  0.00    +0.000 A 
ATOM     28  C   UNL     1      -1.948   9.559  16.401  0.00  0.00    +0.000 A 
ATOM     29  C   UNL     1      -1.554  10.225  17.564  0.00  0.00    +0.000 A 
ENDBRANCH  10  24
TORSDOF 2
ENDMDL
MODEL 3
REMARK VINA RESULT:      -7.6      7.004     10.890
REMARK  Name = 
REMARK  2 active torsions:
REMARK  status: ('A' for Active; 'I' for Inactive)
REMARK    1  A    between atoms: C_10  and  C_11
REMARK    2  A    between atoms: C_18  and  N_19
REMARK                            x       y       z     vdW  Elec       q    Type
REMARK                         _______ _______ _______ _____ _____    ______ ____
ROOT
ATOM      1  O   UNL     1       6.862   4.264  18.873  0.00  0.00    +0.000 OA
ATOM      2  C   UNL     1       5.628   4.272  18.823  0.00  0.00    +0.000 C 
ATOM      3  N   UNL     1       4.921   3.933  19.956  0.00  0.00    +0.000 N 
ATOM      4  C   UNL     1       3.525   3.926  20.091  0.00  0.00    +0.000 A 
ATOM      5  C   UNL     1       2.992   3.013  21.011  0.00  0.00    +0.000 A 
ATOM      6  C   UNL     1       1.609   2.881  21.163  0.00  0.00    +0.000 A 
ATOM      7  C   UNL     1       0.745   3.666  20.406  0.00  0.00    +0.000 A 
ATOM      8  C   UNL     1       1.265   4.604  19.514  0.00  0.00    +0.000 A 
ATOM      9  C   UNL     1       2.654   4.767  19.380  0.00  0.00    +0.000 A 
ATOM     10  C   UNL     1       3.151   5.924  18.567  0.00  0.00    +0.000 C 
ATOM     11  N   UNL     1       4.129   5.861  17.722  0.00  0.00    +0.000 NA
ATOM     12  C   UNL     1       4.797   4.577  17.549  0.00  0.00    +0.000 C 
ATOM     13  H   UNL     1       5.499   3.512  20.671  0.00  0.00    +0.000 HD
ENDROOT
BRANCH  12  14
ATOM     14  N   UNL     1       5.643   4.746  16.405  0.00  0.00    +0.000 N 
ATOM     15  C   UNL     1       5.470   4.023  15.269  0.00  0.00    +0.000 C 
ATOM     16  O   UNL     1       4.531   3.237  15.148  0.00  0.00    +0.000 OA
ATOM     17  N   UNL     1       6.391   4.238  14.266  0.00  0.00    +0.000 N 
ATOM     18  C   UNL     1       7.639   5.001  14.371  0.00  0.00    +0.000 C 
ATOM     19  C   UNL     1       7.870   5.820  13.098  0.00  0.00    +0.000 C 
ATOM     20  O   UNL     1       7.846   4.988  11.928  0.00  0.00    +0.000 OA
ATOM     21  C   UNL     1       6.582   4.312  11.814  0.00  0.00    +0.000 C 
ATOM     22  C   UNL     1       6.306   3.440  13.041  0.00  0.00    +0.000 C 
ATOM     23  H   UNL     1       6.277   5.515  16.477  0.00  0.00    +0.000 HD
ENDBRANCH  12  14
BRANCH  10  24
ATOM     24  C   UNL     1       2.479   7.261  18.739  0.00  0.00    +0.000 A 
ATOM     25  C   UNL     1       1.962   7.664  19.977  0.00  0.00    +0.000 A 
ATOM     26  C   UNL     1       1.297   8.886  20.099  0.00  0.00    +0.000 A 
ATOM     27  C   UNL     1       1.172   9.725  18.994  0.00  0.00    +0.000 A 
ATOM     28  C   UNL     1       1.718   9.349  17.767  0.00  0.00    +0.000 A 
ATOM     29  C   UNL     1       2.372   8.122  17.638  0.00  0.00    +0.000 A 
ENDBRANCH  10  24
TORSDOF 2
ENDMDL
MODEL 4
REMARK VINA RESULT:      -7.4      1.223      1.544
REMARK  Name = 
REMARK  2 active torsions:
REMARK  status: ('A' for Active; 'I' for Inactive)
REMARK    1  A    between atoms: C_10  and  C_11
REMARK    2  A    between atoms: C_18  and  N_19
REMARK                            x       y       z     vdW  Elec       q    Type
REMARK                         _______ _______ _______ _____ _____    ______ ____
ROOT
ATOM      1  O   UNL     1      -0.591  10.158  23.451  0.00  0.00    +0.000 OA
ATOM      2  C   UNL     1      -0.168  10.246  22.295  0.00  0.00    +0.000 C 
ATOM      3  N   UNL     1       0.298   9.105  21.677  0.00  0.00    +0.000 N 
ATOM      4  C   UNL     1       0.776   9.012  20.361  0.00  0.00    +0.000 A 
ATOM      5  C   UNL     1       1.737   8.022  20.115  0.00  0.00    +0.000 A 
ATOM      6  C   UNL     1       2.325   7.898  18.854  0.00  0.00    +0.000 A 
ATOM      7  C   UNL     1       1.952   8.755  17.823  0.00  0.00    +0.000 A 
ATOM      8  C   UNL     1       0.970   9.720  18.046  0.00  0.00    +0.000 A 
ATOM      9  C   UNL     1       0.350   9.829  19.301  0.00  0.00    +0.000 A 
ATOM     10  C   UNL     1      -0.835  10.738  19.424  0.00  0.00    +0.000 C 
ATOM     11  N   UNL     1      -1.044  11.543  20.415  0.00  0.00    +0.000 NA
ATOM     12  C   UNL     1      -0.060  11.568  21.490  0.00  0.00    +0.000 C 
ATOM     13  H   UNL     1       0.433   8.336  22.318  0.00  0.00    +0.000 HD
ENDROOT
BRANCH  12  14
ATOM     14  N   UNL     1      -0.415  12.697  22.297  0.00  0.00    +0.000 N 
ATOM     15  C   UNL     1      -1.710  13.051  22.507  0.00  0.00    +0.000 C 
ATOM     16  O   UNL     1      -2.638  12.372  22.068  0.00  0.00    +0.000 OA
ATOM     17  N   UNL     1      -1.913  14.194  23.250  0.00  0.00    +0.000 N 
ATOM     18  C   UNL     1      -0.895  15.168  23.657  0.00  0.00    +0.000 C 
ATOM     19  C   UNL     1      -1.161  15.648  25.086  0.00  0.00    +0.000 C 
ATOM     20  O   UNL     1      -2.490  16.172  25.225  0.00  0.00    +0.000 OA
ATOM     21  C   UNL     1      -3.466  15.170  24.891  0.00  0.00    +0.000 C 
ATOM     22  C   UNL     1      -3.282  14.673  23.455  0.00  0.00    +0.000 C 
ATOM     23  H   UNL     1       0.354  13.114  22.778  0.00  0.00    +0.000 HD
ENDBRANCH  12  14
BRANCH  10  24
ATOM     24  C   UNL     1      -1.868  10.720  18.327  0.00  0.00    +0.000 A 
ATOM     25  C   UNL     1      -1.762   9.843  17.239  0.00  0.00    +0.000 A 
ATOM     26  C   UNL     1      -2.703   9.882  16.208  0.00  0.00    +0.000 A 
ATOM     27  C   UNL     1      -3.771  10.774  16.273  0.00  0.00    +0.000 A 
ATOM     28  C   UNL     1      -3.906  11.624  17.371  0.00  0.00    +0.000 A 
ATOM     29  C   UNL     1      -2.959  11.597  18.397  0.00  0.00    +0.000 A 
ENDBRANCH  10  24
TORSDOF 2
ENDMDL
MODEL 5
REMARK VINA RESULT:      -7.3      4.196      7.766
REMARK  Name = 
REMARK  2 active torsions:
REMARK  status: ('A' for Active; 'I' for Inactive)
REMARK    1  A    between atoms: C_10  and  C_11
REMARK    2  A    between atoms: C_18  and  N_19
REMARK                            x       y       z     vdW  Elec       q    Type
REMARK                         _______ _______ _______ _____ _____    ______ ____
ROOT
ATOM      1  O   UNL     1       1.211   8.426  17.289  0.00  0.00    +0.000 OA
ATOM      2  C   UNL     1       1.451   9.275  18.152  0.00  0.00    +0.000 C 
ATOM      3  N   UNL     1       1.609  10.587  17.759  0.00  0.00    +0.000 N 
ATOM      4  C   UNL     1       1.844  11.683  18.603  0.00  0.00    +0.000 A 
ATOM      5  C   UNL     1       2.569  12.749  18.054  0.00  0.00    +0.000 A 
ATOM      6  C   UNL     1       2.916  13.853  18.836  0.00  0.00    +0.000 A 
ATOM      7  C   UNL     1       2.535  13.907  20.174  0.00  0.00    +0.000 A 
ATOM      8  C   UNL     1       1.782  12.869  20.722  0.00  0.00    +0.000 A 
ATOM      9  C   UNL     1       1.400  11.772  19.933  0.00  0.00    +0.000 A 
ATOM     10  C   UNL     1       0.424  10.794  20.513  0.00  0.00    +0.000 C 
ATOM     11  N   UNL     1       0.519   9.508  20.403  0.00  0.00    +0.000 NA
ATOM     12  C   UNL     1       1.653   8.971  19.660  0.00  0.00    +0.000 C 
ATOM     13  H   UNL     1       1.711  10.690  16.759  0.00  0.00    +0.000 HD
ENDROOT
BRANCH  12  14
ATOM     14  N   UNL     1       1.632   7.561  19.912  0.00  0.00    +0.000 N 
ATOM     15  C   UNL     1       2.563   6.723  19.389  0.00  0.00    +0.000 C 
ATOM     16  O   UNL     1       3.510   7.150  18.729  0.00  0.00    +0.000 OA
ATOM     17  N   UNL     1       2.391   5.382  19.657  0.00  0.00    +0.000 N 
ATOM     18  C   UNL     1       1.213   4.753  20.264  0.00  0.00    +0.000 C 
ATOM     19  C   UNL     1       1.642   3.650  21.237  0.00  0.00    +0.000 C 
ATOM     20  O   UNL     1       2.494   2.689  20.597  0.00  0.00    +0.000 OA
ATOM     21  C   UNL     1       3.675   3.324  20.078  0.00  0.00    +0.000 C 
ATOM     22  C   UNL     1       3.318   4.415  19.064  0.00  0.00    +0.000 C 
ATOM     23  H   UNL     1       0.956   7.279  20.593  0.00  0.00    +0.000 HD
ENDBRANCH  12  14
BRANCH  10  24
ATOM     24  C   UNL     1      -0.759  11.330  21.276  0.00  0.00    +0.000 A 
ATOM     25  C   UNL     1      -1.734  12.119  20.651  0.00  0.00    +0.000 A 
ATOM     26  C   UNL     1      -2.793  12.648  21.390  0.00  0.00    +0.000 A 
ATOM     27  C   UNL     1      -2.903  12.367  22.750  0.00  0.00    +0.000 A 
ATOM     28  C   UNL     1      -1.959  11.550  23.373  0.00  0.00    +0.000 A 
ATOM     29  C   UNL     1      -0.890  11.030  22.639  0.00  0.00    +0.000 A 
ENDBRANCH  10  24
TORSDOF 2
ENDMDL
MODEL 6
REMARK VINA RESULT:      -7.1      3.071      5.775
REMARK  Name = 
REMARK  2 active torsions:
REMARK  status: ('A' for Active; 'I' for Inactive)
REMARK    1  A    between atoms: C_10  and  C_11
REMARK    2  A    between atoms: C_18  and  N_19
REMARK                            x       y       z     vdW  Elec       q    Type
REMARK                         _______ _______ _______ _____ _____    ______ ____
ROOT
ATOM      1  O   UNL     1      -1.586  13.649  22.285  0.00  0.00    +0.000 OA
ATOM      2  C   UNL     1      -0.913  13.436  21.272  0.00  0.00    +0.000 C 
ATOM      3  N   UNL     1       0.400  13.855  21.255  0.00  0.00    +0.000 N 
ATOM      4  C   UNL     1       1.318  13.664  20.211  0.00  0.00    +0.000 A 
ATOM      5  C   UNL     1       2.324  14.630  20.081  0.00  0.00    +0.000 A 
ATOM      6  C   UNL     1       3.241  14.566  19.028  0.00  0.00    +0.000 A 
ATOM      7  C   UNL     1       3.168  13.531  18.101  0.00  0.00    +0.000 A 
ATOM      8  C   UNL     1       2.193  12.544  18.241  0.00  0.00    +0.000 A 
ATOM      9  C   UNL     1       1.289  12.582  19.316  0.00  0.00    +0.000 A 
ATOM     10  C   UNL     1       0.403  11.393  19.533  0.00  0.00    +0.000 C 
ATOM     11  N   UNL     1      -0.854  11.459  19.833  0.00  0.00    +0.000 NA
ATOM     12  C   UNL     1      -1.452  12.781  19.973  0.00  0.00    +0.000 C 
ATOM     13  H   UNL     1       0.625  14.484  22.014  0.00  0.00    +0.000 HD
ENDROOT
BRANCH  12  14
ATOM     14  N   UNL     1      -2.862  12.547  20.057  0.00  0.00    +0.000 N 
ATOM     15  C   UNL     1      -3.571  12.043  19.013  0.00  0.00    +0.000 C 
ATOM     16  O   UNL     1      -3.016  11.701  17.970  0.00  0.00    +0.000 OA
ATOM     17  N   UNL     1      -4.931  11.925  19.204  0.00  0.00    +0.000 N 
ATOM     18  C   UNL     1      -5.710  12.469  20.321  0.00  0.00    +0.000 C 
ATOM     19  C   UNL     1      -6.788  11.470  20.753  0.00  0.00    +0.000 C 
ATOM     20  O   UNL     1      -7.624  11.091  19.650  0.00  0.00    +0.000 OA
ATOM     21  C   UNL     1      -6.840  10.493  18.603  0.00  0.00    +0.000 C 
ATOM     22  C   UNL     1      -5.765  11.457  18.095  0.00  0.00    +0.000 C 
ATOM     23  H   UNL     1      -3.243  12.669  20.973  0.00  0.00    +0.000 HD
ENDBRANCH  12  14
BRANCH  10  24
ATOM     24  C   UNL     1       1.005  10.019  19.401  0.00  0.00    +0.000 A 
ATOM     25  C   UNL     1       1.129   9.167  20.507  0.00  0.00    +0.000 A 
ATOM     26  C   UNL     1       1.738   7.918  20.371  0.00  0.00    +0.000 A 
ATOM     27  C   UNL     1       2.198   7.500  19.124  0.00  0.00    +0.000 A 
ATOM     28  C   UNL     1       2.043   8.324  18.010  0.00  0.00    +0.000 A 
ATOM     29  C   UNL     1       1.447   9.580  18.145  0.00  0.00    +0.000 A 
ENDBRANCH  10  24
TORSDOF 2
ENDMDL
MODEL 7
REMARK VINA RESULT:      -7.1      2.999      4.311
REMARK  Name = 
REMARK  2 active torsions:
REMARK  status: ('A' for Active; 'I' for Inactive)
REMARK    1  A    between atoms: C_10  and  C_11
REMARK    2  A    between atoms: C_18  and  N_19
REMARK                            x       y       z     vdW  Elec       q    Type
REMARK                         _______ _______ _______ _____ _____    ______ ____
ROOT
ATOM      1  O   UNL     1       0.080  14.687  22.196  0.00  0.00    +0.000 OA
ATOM      2  C   UNL     1       0.168  13.518  21.811  0.00  0.00    +0.000 C 
ATOM      3  N   UNL     1      -0.502  12.540  22.515  0.00  0.00    +0.000 N 
ATOM      4  C   UNL     1      -0.546  11.174  22.200  0.00  0.00    +0.000 A 
ATOM      5  C   UNL     1      -0.707  10.291  23.275  0.00  0.00    +0.000 A 
ATOM      6  C   UNL     1      -0.690   8.909  23.071  0.00  0.00    +0.000 A 
ATOM      7  C   UNL     1      -0.520   8.395  21.789  0.00  0.00    +0.000 A 
ATOM      8  C   UNL     1      -0.395   9.264  20.706  0.00  0.00    +0.000 A 
ATOM      9  C   UNL     1      -0.446  10.655  20.898  0.00  0.00    +0.000 A 
ATOM     10  C   UNL     1      -0.514  11.531  19.685  0.00  0.00    +0.000 C 
ATOM     11  N   UNL     1       0.156  12.628  19.532  0.00  0.00    +0.000 NA
ATOM     12  C   UNL     1       1.037  13.043  20.616  0.00  0.00    +0.000 C 
ATOM     13  H   UNL     1      -0.844  12.862  23.410  0.00  0.00    +0.000 HD
ENDROOT
BRANCH  12  14
ATOM     14  N   UNL     1       1.811  14.121  20.077  0.00  0.00    +0.000 N 
ATOM     15  C   UNL     1       3.022  14.463  20.588  0.00  0.00    +0.000 C 
ATOM     16  O   UNL     1       3.539  13.813  21.497  0.00  0.00    +0.000 OA
ATOM     17  N   UNL     1       3.633  15.559  20.018  0.00  0.00    +0.000 N 
ATOM     18  C   UNL     1       3.033  16.506  19.073  0.00  0.00    +0.000 C 
ATOM     19  C   UNL     1       4.049  16.899  17.997  0.00  0.00    +0.000 C 
ATOM     20  O   UNL     1       5.255  17.414  18.578  0.00  0.00    +0.000 OA
ATOM     21  C   UNL     1       5.860  16.436  19.442  0.00  0.00    +0.000 C 
ATOM     22  C   UNL     1       4.908  16.026  20.569  0.00  0.00    +0.000 C 
ATOM     23  H   UNL     1       1.441  14.507  19.233  0.00  0.00    +0.000 HD
ENDBRANCH  12  14
BRANCH  10  24
ATOM     24  C   UNL     1      -1.426  11.123  18.557  0.00  0.00    +0.000 A 
ATOM     25  C   UNL     1      -2.690  11.704  18.395  0.00  0.00    +0.000 A 
ATOM     26  C   UNL     1      -3.539  11.272  17.374  0.00  0.00    +0.000 A 
ATOM     27  C   UNL     1      -3.118  10.281  16.490  0.00  0.00    +0.000 A 
ATOM     28  C   UNL     1      -1.846   9.724  16.620  0.00  0.00    +0.000 A 
ATOM     29  C   UNL     1      -0.999  10.145  17.649  0.00  0.00    +0.000 A 
ENDBRANCH  10  24
TORSDOF 2
ENDMDL
MODEL 8
REMARK VINA RESULT:      -7.0      3.316      7.063
REMARK  Name = 
REMARK  2 active torsions:
REMARK  status: ('A' for Active; 'I' for Inactive)
REMARK    1  A    between atoms: C_10  and  C_11
REMARK    2  A    between atoms: C_18  and  N_19
REMARK                            x       y       z     vdW  Elec       q    Type
REMARK                         _______ _______ _______ _____ _____    ______ ____
ROOT
ATOM      1  O   UNL     1       2.927  10.880  17.381  0.00  0.00    +0.000 OA
ATOM      2  C   UNL     1       2.010  11.253  18.118  0.00  0.00    +0.000 C 
ATOM      3  N   UNL     1       1.794  12.607  18.265  0.00  0.00    +0.000 N 
ATOM      4  C   UNL     1       0.778  13.206  19.026  0.00  0.00    +0.000 A 
ATOM      5  C   UNL     1       1.062  14.470  19.559  0.00  0.00    +0.000 A 
ATOM      6  C   UNL     1       0.143  15.116  20.390  0.00  0.00    +0.000 A 
ATOM      7  C   UNL     1      -1.073  14.509  20.689  0.00  0.00    +0.000 A 
ATOM      8  C   UNL     1      -1.382  13.267  20.136  0.00  0.00    +0.000 A 
ATOM      9  C   UNL     1      -0.477  12.627  19.272  0.00  0.00    +0.000 A 
ATOM     10  C   UNL     1      -0.944  11.401  18.548  0.00  0.00    +0.000 C 
ATOM     11  N   UNL     1      -0.238  10.328  18.390  0.00  0.00    +0.000 NA
ATOM     12  C   UNL     1       1.106  10.309  18.953  0.00  0.00    +0.000 C 
ATOM     13  H   UNL     1       2.551  13.170  17.903  0.00  0.00    +0.000 HD
ENDROOT
BRANCH  12  14
ATOM     14  N   UNL     1       1.538   8.947  18.844  0.00  0.00    +0.000 N 
ATOM     15  C   UNL     1       1.548   8.108  19.912  0.00  0.00    +0.000 C 
ATOM     16  O   UNL     1       1.119   8.465  21.010  0.00  0.00    +0.000 OA
ATOM     17  N   UNL     1       2.046   6.843  19.686  0.00  0.00    +0.000 N 
ATOM     18  C   UNL     1       2.746   6.379  18.484  0.00  0.00    +0.000 C 
ATOM     19  C   UNL     1       2.310   4.954  18.132  0.00  0.00    +0.000 C 
ATOM     20  O   UNL     1       2.495   4.060  19.239  0.00  0.00    +0.000 OA
ATOM     21  C   UNL     1       1.737   4.502  20.379  0.00  0.00    +0.000 C 
ATOM     22  C   UNL     1       2.153   5.911  20.810  0.00  0.00    +0.000 C 
ATOM     23  H   UNL     1       1.708   8.647  17.907  0.00  0.00    +0.000 HD
ENDBRANCH  12  14
BRANCH  10  24
ATOM     24  C   UNL     1      -2.327  11.405  17.951  0.00  0.00    +0.000 A 
ATOM     25  C   UNL     1      -3.454  11.714  18.723  0.00  0.00    +0.000 A 
ATOM     26  C   UNL     1      -4.731  11.660  18.161  0.00  0.00    +0.000 A 
ATOM     27  C   UNL     1      -4.887  11.328  16.817  0.00  0.00    +0.000 A 
ATOM     28  C   UNL     1      -3.767  11.057  16.030  0.00  0.00    +0.000 A 
ATOM     29  C   UNL     1      -2.490  11.097  16.593  0.00  0.00    +0.000 A 
ENDBRANCH  10  24
TORSDOF 2
ENDMDL
MODEL 9
REMARK VINA RESULT:      -6.9      3.508      7.124
REMARK  Name = 
REMARK  2 active torsions:
REMARK  status: ('A' for Active; 'I' for Inactive)
REMARK    1  A    between atoms: C_10  and  C_11
REMARK    2  A    between atoms: C_18  and  N_19
REMARK                            x       y       z     vdW  Elec       q    Type
REMARK                         _______ _______ _______ _____ _____    ______ ____
ROOT
ATOM      1  O   UNL     1       2.962  10.114  17.289  0.00  0.00    +0.000 OA
ATOM      2  C   UNL     1       2.086  10.588  18.018  0.00  0.00    +0.000 C 
ATOM      3  N   UNL     1       1.986  11.960  18.119  0.00  0.00    +0.000 N 
ATOM      4  C   UNL     1       1.032  12.669  18.865  0.00  0.00    +0.000 A 
ATOM      5  C   UNL     1       1.426  13.922  19.351  0.00  0.00    +0.000 A 
ATOM      6  C   UNL     1       0.572  14.672  20.163  0.00  0.00    +0.000 A 
ATOM      7  C   UNL     1      -0.689  14.181  20.491  0.00  0.00    +0.000 A 
ATOM      8  C   UNL     1      -1.106  12.951  19.983  0.00  0.00    +0.000 A 
ATOM      9  C   UNL     1      -0.266  12.207  19.137  0.00  0.00    +0.000 A 
ATOM     10  C   UNL     1      -0.841  11.001  18.459  0.00  0.00    +0.000 C 
ATOM     11  N   UNL     1      -0.230   9.867  18.335  0.00  0.00    +0.000 NA
ATOM     12  C   UNL     1       1.113   9.753  18.891  0.00  0.00    +0.000 C 
ATOM     13  H   UNL     1       2.785  12.443  17.733  0.00  0.00    +0.000 HD
ENDROOT
BRANCH  12  14
ATOM     14  N   UNL     1       1.427   8.357  18.827  0.00  0.00    +0.000 N 
ATOM     15  C   UNL     1       1.628   7.613  19.946  0.00  0.00    +0.000 C 
ATOM     16  O   UNL     1       1.479   8.095  21.069  0.00  0.00    +0.000 OA
ATOM     17  N   UNL     1       1.985   6.298  19.744  0.00  0.00    +0.000 N 
ATOM     18  C   UNL     1       2.368   5.679  18.471  0.00  0.00    +0.000 C 
ATOM     19  C   UNL     1       1.779   4.269  18.367  0.00  0.00    +0.000 C 
ATOM     20  O   UNL     1       2.156   3.460  19.492  0.00  0.00    +0.000 OA
ATOM     21  C   UNL     1       1.701   4.056  20.719  0.00  0.00    +0.000 C 
ATOM     22  C   UNL     1       2.287   5.458  20.905  0.00  0.00    +0.000 C 
ATOM     23  H   UNL     1       1.363   7.966  17.910  0.00  0.00    +0.000 HD
ENDBRANCH  12  14
BRANCH  10  24
ATOM     24  C   UNL     1      -2.224  11.102  17.870  0.00  0.00    +0.000 A 
ATOM     25  C   UNL     1      -2.472  10.779  16.530  0.00  0.00    +0.000 A 
ATOM     26  C   UNL     1      -3.752  10.931  15.993  0.00  0.00    +0.000 A 
ATOM     27  C   UNL     1      -4.797  11.375  16.799  0.00  0.00    +0.000 A 
ATOM     28  C   UNL     1      -4.569  11.660  18.145  0.00  0.00    +0.000 A 
ATOM     29  C   UNL     1      -3.287  11.523  18.682  0.00  0.00    +0.000 A 
ENDBRANCH  10  24
TORSDOF 2
ENDMDL
