MODEL 1
REMARK VINA RESULT:      -7.6      0.000      0.000
REMARK  Name = 
REMARK  8 active torsions:
REMARK  status: ('A' for Active; 'I' for Inactive)
REMARK    1  A    between atoms: C_1  and  C_2
REMARK    2  A    between atoms: N_7  and  C_8
REMARK    3  A    between atoms: C_19  and  C_20
REMARK    4  A    between atoms: N_22  and  C_23
REMARK    5  A    between atoms: C_23  and  C_24
REMARK    6  A    between atoms: C_24  and  O_25
REMARK    7  A    between atoms: O_25  and  C_26
REMARK    8  A    between atoms: C_26  and  C_27
REMARK                            x       y       z     vdW  Elec       q    Type
REMARK                         _______ _______ _______ _____ _____    ______ ____
ROOT
ATOM      1  C   UNL     1      -1.718  11.424  18.582  0.00  0.00    +0.000 A 
ATOM      2  N   UNL     1      -1.619  12.119  19.739  0.00  0.00    +0.000 NA
ATOM      3  C   UNL     1      -2.674  12.690  20.345  0.00  0.00    +0.000 A 
ATOM      4  N   UNL     1      -2.405  13.482  21.438  0.00  0.00    +0.000 N 
ATOM      5  C   UNL     1      -1.292  13.097  22.306  0.00  0.00    +0.000 C 
ATOM      6  C   UNL     1      -0.749  14.361  23.011  0.00  0.00    +0.000 C 
ATOM      7  N   UNL     1      -1.782  15.124  23.742  0.00  0.00    +0.000 NA
ATOM      8  C   UNL     1      -2.929  15.406  22.850  0.00  0.00    +0.000 C 
ATOM      9  C   UNL     1      -3.499  14.155  22.134  0.00  0.00    +0.000 C 
ATOM     10  N   UNL     1      -3.915  12.608  19.879  0.00  0.00    +0.000 NA
ATOM     11  C   UNL     1      -4.054  11.891  18.748  0.00  0.00    +0.000 A 
ATOM     12  C   UNL     1      -5.208  11.617  17.986  0.00  0.00    +0.000 A 
ATOM     13  C   UNL     1      -6.600  12.032  18.270  0.00  0.00    +0.000 C 
ATOM     14  N   UNL     1      -4.917  10.905  16.892  0.00  0.00    +0.000 NA
ATOM     15  N   UNL     1      -3.585  10.683  16.988  0.00  0.00    +0.000 N 
ATOM     16  C   UNL     1      -3.005  11.279  18.080  0.00  0.00    +0.000 A 
ATOM     17  H   UNL     1      -1.379  16.010  24.045  0.00  0.00    +0.000 HD
ENDROOT
BRANCH   1  24
ATOM     18  C   UNL     1       1.363   8.067  21.532  0.00  0.00    +0.000 C 
ATOM     19  C   UNL     1       1.337   8.546  20.112  0.00  0.00    +0.000 A 
ATOM     20  C   UNL     1       2.203   8.054  19.147  0.00  0.00    +0.000 A 
ATOM     21  C   UNL     1       2.097   8.561  17.859  0.00  0.00    +0.000 A 
ATOM     22  N   UNL     1       1.196   9.498  17.477  0.00  0.00    +0.000 NA
ATOM     23  C   UNL     1       0.340   9.960  18.413  0.00  0.00    +0.000 A 
ATOM     24  N   UNL     1      -0.566  10.929  17.978  0.00  0.00    +0.000 N 
ATOM     25  C   UNL     1       0.408   9.518  19.734  0.00  0.00    +0.000 A 
ATOM     26  H   UNL     1      -0.409  11.129  17.005  0.00  0.00    +0.000 HD
ENDBRANCH   1  24
BRANCH  15  27
ATOM     27  C   UNL     1      -2.953   9.914  15.928  0.00  0.00    +0.000 C 
BRANCH  27  28
ATOM     28  C   UNL     1      -3.208  10.494  14.538  0.00  0.00    +0.000 C 
BRANCH  28  29
ATOM     29  O   UNL     1      -4.214   9.746  13.855  0.00  0.00    +0.000 OA
BRANCH  29  30
ATOM     30  C   UNL     1      -4.114   9.862  12.428  0.00  0.00    +0.000 C 
BRANCH  30  31
ATOM     31  C   UNL     1      -5.396   9.458  11.689  0.00  0.00    +0.000 C 
ATOM     32  F   UNL     1      -6.227   8.699  12.433  0.00  0.00    +0.000 F 
ATOM     33  F   UNL     1      -6.088  10.557  11.300  0.00  0.00    +0.000 F 
ATOM     34  F   UNL     1      -5.100   8.759  10.567  0.00  0.00    +0.000 F 
ENDBRANCH  30  31
ENDBRANCH  29  30
ENDBRANCH  28  29
ENDBRANCH  27  28
ENDBRANCH  15  27
TORSDOF 6
ENDMDL
MODEL 2
REMARK VINA RESULT:      -7.3      2.155      2.819
REMARK  Name = 
REMARK  8 active torsions:
REMARK  status: ('A' for Active; 'I' for Inactive)
REMARK    1  A    between atoms: C_1  and  C_2
REMARK    2  A    between atoms: N_7  and  C_8
REMARK    3  A    between atoms: C_19  and  C_20
REMARK    4  A    between atoms: N_22  and  C_23
REMARK    5  A    between atoms: C_23  and  C_24
REMARK    6  A    between atoms: C_24  and  O_25
REMARK    7  A    between atoms: O_25  and  C_26
REMARK    8  A    between atoms: C_26  and  C_27
REMARK                            x       y       z     vdW  Elec       q    Type
REMARK                         _______ _______ _______ _____ _____    ______ ____
ROOT
ATOM      1  C   UNL     1      -2.395  11.889  19.177  0.00  0.00    +0.000 A 
ATOM      2  N   UNL     1      -2.649  12.328  20.432  0.00  0.00    +0.000 NA
ATOM      3  C   UNL     1      -3.874  12.687  20.850  0.00  0.00    +0.000 A 
ATOM      4  N   UNL     1      -3.959  13.246  22.106  0.00  0.00    +0.000 N 
ATOM      5  C   UNL     1      -3.042  12.759  23.136  0.00  0.00    +0.000 C 
ATOM      6  C   UNL     1      -2.827  13.878  24.181  0.00  0.00    +0.000 C 
ATOM      7  N   UNL     1      -4.082  14.400  24.760  0.00  0.00    +0.000 NA
ATOM      8  C   UNL     1      -5.015  14.789  23.679  0.00  0.00    +0.000 C 
ATOM      9  C   UNL     1      -5.255  13.684  22.619  0.00  0.00    +0.000 C 
ATOM     10  N   UNL     1      -4.955  12.626  20.081  0.00  0.00    +0.000 NA
ATOM     11  C   UNL     1      -4.743  12.157  18.836  0.00  0.00    +0.000 A 
ATOM     12  C   UNL     1      -5.649  11.977  17.771  0.00  0.00    +0.000 A 
ATOM     13  C   UNL     1      -7.108  12.230  17.770  0.00  0.00    +0.000 C 
ATOM     14  N   UNL     1      -5.032  11.532  16.671  0.00  0.00    +0.000 NA
ATOM     15  N   UNL     1      -3.742  11.383  17.055  0.00  0.00    +0.000 N 
ATOM     16  C   UNL     1      -3.504  11.770  18.350  0.00  0.00    +0.000 A 
ATOM     17  H   UNL     1      -3.865  15.226  25.317  0.00  0.00    +0.000 HD
ENDROOT
BRANCH   1  24
ATOM     18  C   UNL     1       1.006  16.101  18.784  0.00  0.00    +0.000 C 
ATOM     19  C   UNL     1       1.119  14.608  18.715  0.00  0.00    +0.000 A 
ATOM     20  C   UNL     1       2.340  13.961  18.599  0.00  0.00    +0.000 A 
ATOM     21  C   UNL     1       2.338  12.574  18.546  0.00  0.00    +0.000 A 
ATOM     22  N   UNL     1       1.223  11.807  18.611  0.00  0.00    +0.000 NA
ATOM     23  C   UNL     1       0.038  12.437  18.744  0.00  0.00    +0.000 A 
ATOM     24  N   UNL     1      -1.085  11.609  18.799  0.00  0.00    +0.000 N 
ATOM     25  C   UNL     1      -0.039  13.830  18.775  0.00  0.00    +0.000 A 
ATOM     26  H   UNL     1      -0.803  10.648  18.716  0.00  0.00    +0.000 HD
ENDBRANCH   1  24
BRANCH  15  27
ATOM     27  C   UNL     1      -2.797  10.898  16.062  0.00  0.00    +0.000 C 
BRANCH  27  28
ATOM     28  C   UNL     1      -3.435   9.957  15.041  0.00  0.00    +0.000 C 
BRANCH  28  29
ATOM     29  O   UNL     1      -3.487  10.568  13.753  0.00  0.00    +0.000 OA
BRANCH  29  30
ATOM     30  C   UNL     1      -3.492   9.607  12.686  0.00  0.00    +0.000 C 
BRANCH  30  31
ATOM     31  C   UNL     1      -4.786   9.614  11.863  0.00  0.00    +0.000 C 
ATOM     32  F   UNL     1      -5.155  10.844  11.453  0.00  0.00    +0.000 F 
ATOM     33  F   UNL     1      -4.651   8.840  10.758  0.00  0.00    +0.000 F 
ATOM     34  F   UNL     1      -5.812   9.099  12.583  0.00  0.00    +0.000 F 
ENDBRANCH  30  31
ENDBRANCH  29  30
ENDBRANCH  28  29
ENDBRANCH  27  28
ENDBRANCH  15  27
TORSDOF 6
ENDMDL
MODEL 3
REMARK VINA RESULT:      -7.2      4.385      6.511
REMARK  Name = 
REMARK  8 active torsions:
REMARK  status: ('A' for Active; 'I' for Inactive)
REMARK    1  A    between atoms: C_1  and  C_2
REMARK    2  A    between atoms: N_7  and  C_8
REMARK    3  A    between atoms: C_19  and  C_20
REMARK    4  A    between atoms: N_22  and  C_23
REMARK    5  A    between atoms: C_23  and  C_24
REMARK    6  A    between atoms: C_24  and  O_25
REMARK    7  A    between atoms: O_25  and  C_26
REMARK    8  A    between atoms: C_26  and  C_27
REMARK                            x       y       z     vdW  Elec       q    Type
REMARK                         _______ _______ _______ _____ _____    ______ ____
ROOT
ATOM      1  C   UNL     1      -0.436  12.155  19.342  0.00  0.00    +0.000 A 
ATOM      2  N   UNL     1      -1.747  11.980  19.057  0.00  0.00    +0.000 NA
ATOM      3  C   UNL     1      -2.736  12.491  19.809  0.00  0.00    +0.000 A 
ATOM      4  N   UNL     1      -4.019  12.116  19.480  0.00  0.00    +0.000 N 
ATOM      5  C   UNL     1      -4.329  11.899  18.067  0.00  0.00    +0.000 C 
ATOM      6  C   UNL     1      -5.505  10.903  17.961  0.00  0.00    +0.000 C 
ATOM      7  N   UNL     1      -6.698  11.308  18.733  0.00  0.00    +0.000 NA
ATOM      8  C   UNL     1      -6.319  11.609  20.131  0.00  0.00    +0.000 C 
ATOM      9  C   UNL     1      -5.145  12.612  20.268  0.00  0.00    +0.000 C 
ATOM     10  N   UNL     1      -2.522  13.232  20.890  0.00  0.00    +0.000 NA
ATOM     11  C   UNL     1      -1.226  13.457  21.181  0.00  0.00    +0.000 A 
ATOM     12  C   UNL     1      -0.650  14.178  22.246  0.00  0.00    +0.000 A 
ATOM     13  C   UNL     1      -1.348  14.920  23.320  0.00  0.00    +0.000 C 
ATOM     14  N   UNL     1       0.686  14.123  22.211  0.00  0.00    +0.000 NA
ATOM     15  N   UNL     1       0.957  13.409  21.092  0.00  0.00    +0.000 N 
ATOM     16  C   UNL     1      -0.164  12.959  20.442  0.00  0.00    +0.000 A 
ATOM     17  H   UNL     1      -7.363  10.536  18.735  0.00  0.00    +0.000 HD
ENDROOT
BRANCH   1  24
ATOM     18  C   UNL     1       1.457   7.382  21.105  0.00  0.00    +0.000 C 
ATOM     19  C   UNL     1       1.599   8.211  19.865  0.00  0.00    +0.000 A 
ATOM     20  C   UNL     1       2.296   7.768  18.751  0.00  0.00    +0.000 A 
ATOM     21  C   UNL     1       2.367   8.611  17.651  0.00  0.00    +0.000 A 
ATOM     22  N   UNL     1       1.792   9.836  17.586  0.00  0.00    +0.000 NA
ATOM     23  C   UNL     1       1.097  10.258  18.663  0.00  0.00    +0.000 A 
ATOM     24  N   UNL     1       0.528  11.528  18.556  0.00  0.00    +0.000 N 
ATOM     25  C   UNL     1       1.007   9.476  19.815  0.00  0.00    +0.000 A 
ATOM     26  H   UNL     1       0.753  11.927  17.662  0.00  0.00    +0.000 HD
ENDBRANCH   1  24
BRANCH  15  27
ATOM     27  C   UNL     1       2.354  13.175  20.766  0.00  0.00    +0.000 C 
BRANCH  27  28
ATOM     28  C   UNL     1       2.953  14.270  19.886  0.00  0.00    +0.000 C 
BRANCH  28  29
ATOM     29  O   UNL     1       2.150  14.483  18.726  0.00  0.00    +0.000 OA
BRANCH  29  30
ATOM     30  C   UNL     1       1.881  15.873  18.487  0.00  0.00    +0.000 C 
BRANCH  30  31
ATOM     31  C   UNL     1       0.413  16.260  18.707  0.00  0.00    +0.000 C 
ATOM     32  F   UNL     1      -0.457  15.316  18.295  0.00  0.00    +0.000 F 
ATOM     33  F   UNL     1       0.173  16.489  20.021  0.00  0.00    +0.000 F 
ATOM     34  F   UNL     1       0.118  17.404  18.045  0.00  0.00    +0.000 F 
ENDBRANCH  30  31
ENDBRANCH  29  30
ENDBRANCH  28  29
ENDBRANCH  27  28
ENDBRANCH  15  27
TORSDOF 6
ENDMDL
MODEL 4
REMARK VINA RESULT:      -7.1      2.532      3.674
REMARK  Name = 
REMARK  8 active torsions:
REMARK  status: ('A' for Active; 'I' for Inactive)
REMARK    1  A    between atoms: C_1  and  C_2
REMARK    2  A    between atoms: N_7  and  C_8
REMARK    3  A    between atoms: C_19  and  C_20
REMARK    4  A    between atoms: N_22  and  C_23
REMARK    5  A    between atoms: C_23  and  C_24
REMARK    6  A    between atoms: C_24  and  O_25
REMARK    7  A    between atoms: O_25  and  C_26
REMARK    8  A    between atoms: C_26  and  C_27
REMARK                            x       y       z     vdW  Elec       q    Type
REMARK                         _______ _______ _______ _____ _____    ______ ____
ROOT
ATOM      1  C   UNL     1      -3.417  13.030  20.892  0.00  0.00    +0.000 A 
ATOM      2  N   UNL     1      -2.867  13.792  21.867  0.00  0.00    +0.000 NA
ATOM      3  C   UNL     1      -3.568  14.270  22.908  0.00  0.00    +0.000 A 
ATOM      4  N   UNL     1      -2.912  15.144  23.746  0.00  0.00    +0.000 N 
ATOM      5  C   UNL     1      -1.482  14.934  23.972  0.00  0.00    +0.000 C 
ATOM      6  C   UNL     1      -0.831  16.286  24.341  0.00  0.00    +0.000 C 
ATOM      7  N   UNL     1      -1.478  16.964  25.483  0.00  0.00    +0.000 NA
ATOM      8  C   UNL     1      -2.936  17.069  25.251  0.00  0.00    +0.000 C 
ATOM      9  C   UNL     1      -3.617  15.725  24.885  0.00  0.00    +0.000 C 
ATOM     10  N   UNL     1      -4.860  14.025  23.091  0.00  0.00    +0.000 NA
ATOM     11  C   UNL     1      -5.430  13.238  22.159  0.00  0.00    +0.000 A 
ATOM     12  C   UNL     1      -6.763  12.797  22.039  0.00  0.00    +0.000 A 
ATOM     13  C   UNL     1      -7.892  13.065  22.959  0.00  0.00    +0.000 C 
ATOM     14  N   UNL     1      -6.942  12.065  20.934  0.00  0.00    +0.000 NA
ATOM     15  N   UNL     1      -5.708  12.001  20.380  0.00  0.00    +0.000 N 
ATOM     16  C   UNL     1      -4.758  12.714  21.065  0.00  0.00    +0.000 A 
ATOM     17  H   UNL     1      -1.093  17.905  25.564  0.00  0.00    +0.000 HD
ENDROOT
BRANCH   1  24
ATOM     18  C   UNL     1       0.682   9.618  21.904  0.00  0.00    +0.000 C 
ATOM     19  C   UNL     1       0.033  10.198  20.684  0.00  0.00    +0.000 A 
ATOM     20  C   UNL     1       0.396   9.821  19.400  0.00  0.00    +0.000 A 
ATOM     21  C   UNL     1      -0.269  10.416  18.336  0.00  0.00    +0.000 A 
ATOM     22  N   UNL     1      -1.257  11.334  18.467  0.00  0.00    +0.000 NA
ATOM     23  C   UNL     1      -1.623  11.684  19.718  0.00  0.00    +0.000 A 
ATOM     24  N   UNL     1      -2.639  12.638  19.806  0.00  0.00    +0.000 N 
ATOM     25  C   UNL     1      -0.979  11.149  20.834  0.00  0.00    +0.000 A 
ATOM     26  H   UNL     1      -2.926  12.915  18.884  0.00  0.00    +0.000 HD
ENDBRANCH   1  24
BRANCH  15  27
ATOM     27  C   UNL     1      -5.566  11.253  19.140  0.00  0.00    +0.000 C 
BRANCH  27  28
ATOM     28  C   UNL     1      -5.508  12.151  17.906  0.00  0.00    +0.000 C 
BRANCH  28  29
ATOM     29  O   UNL     1      -4.317  11.907  17.159  0.00  0.00    +0.000 OA
BRANCH  29  30
ATOM     30  C   UNL     1      -4.450  10.800  16.254  0.00  0.00    +0.000 C 
BRANCH  30  31
ATOM     31  C   UNL     1      -3.171  10.499  15.463  0.00  0.00    +0.000 C 
ATOM     32  F   UNL     1      -2.527   9.392  15.885  0.00  0.00    +0.000 F 
ATOM     33  F   UNL     1      -3.454  10.330  14.148  0.00  0.00    +0.000 F 
ATOM     34  F   UNL     1      -2.302  11.535  15.551  0.00  0.00    +0.000 F 
ENDBRANCH  30  31
ENDBRANCH  29  30
ENDBRANCH  28  29
ENDBRANCH  27  28
ENDBRANCH  15  27
TORSDOF 6
ENDMDL
MODEL 5
REMARK VINA RESULT:      -7.1      1.366      1.667
REMARK  Name = 
REMARK  8 active torsions:
REMARK  status: ('A' for Active; 'I' for Inactive)
REMARK    1  A    between atoms: C_1  and  C_2
REMARK    2  A    between atoms: N_7  and  C_8
REMARK    3  A    between atoms: C_19  and  C_20
REMARK    4  A    between atoms: N_22  and  C_23
REMARK    5  A    between atoms: C_23  and  C_24
REMARK    6  A    between atoms: C_24  and  O_25
REMARK    7  A    between atoms: O_25  and  C_26
REMARK    8  A    between atoms: C_26  and  C_27
REMARK                            x       y       z     vdW  Elec       q    Type
REMARK                         _______ _______ _______ _____ _____    ______ ____
ROOT
ATOM      1  C   UNL     1      -2.637  11.709  19.116  0.00  0.00    +0.000 A 
ATOM      2  N   UNL     1      -2.871  12.212  20.351  0.00  0.00    +0.000 NA
ATOM      3  C   UNL     1      -4.033  12.786  20.701  0.00  0.00    +0.000 A 
ATOM      4  N   UNL     1      -4.082  13.377  21.944  0.00  0.00    +0.000 N 
ATOM      5  C   UNL     1      -3.314  12.761  23.026  0.00  0.00    +0.000 C 
ATOM      6  C   UNL     1      -2.959  13.848  24.066  0.00  0.00    +0.000 C 
ATOM      7  N   UNL     1      -4.131  14.591  24.573  0.00  0.00    +0.000 NA
ATOM      8  C   UNL     1      -4.928  15.113  23.441  0.00  0.00    +0.000 C 
ATOM      9  C   UNL     1      -5.305  14.043  22.384  0.00  0.00    +0.000 C 
ATOM     10  N   UNL     1      -5.070  12.896  19.878  0.00  0.00    +0.000 NA
ATOM     11  C   UNL     1      -4.883  12.372  18.652  0.00  0.00    +0.000 A 
ATOM     12  C   UNL     1      -5.753  12.328  17.544  0.00  0.00    +0.000 A 
ATOM     13  C   UNL     1      -7.144  12.829  17.464  0.00  0.00    +0.000 C 
ATOM     14  N   UNL     1      -5.170  11.761  16.483  0.00  0.00    +0.000 NA
ATOM     15  N   UNL     1      -3.946  11.398  16.934  0.00  0.00    +0.000 N 
ATOM     16  C   UNL     1      -3.708  11.766  18.234  0.00  0.00    +0.000 A 
ATOM     17  H   UNL     1      -3.802  15.378  25.130  0.00  0.00    +0.000 HD
ENDROOT
BRANCH   1  24
ATOM     18  C   UNL     1       0.097   9.308  23.145  0.00  0.00    +0.000 C 
ATOM     19  C   UNL     1       0.276   9.479  21.667  0.00  0.00    +0.000 A 
ATOM     20  C   UNL     1       1.310   8.873  20.970  0.00  0.00    +0.000 A 
ATOM     21  C   UNL     1       1.387   9.092  19.601  0.00  0.00    +0.000 A 
ATOM     22  N   UNL     1       0.513   9.850  18.897  0.00  0.00    +0.000 NA
ATOM     23  C   UNL     1      -0.505  10.422  19.573  0.00  0.00    +0.000 A 
ATOM     24  N   UNL     1      -1.378  11.199  18.810  0.00  0.00    +0.000 N 
ATOM     25  C   UNL     1      -0.629  10.269  20.955  0.00  0.00    +0.000 A 
ATOM     26  H   UNL     1      -1.077  11.206  17.851  0.00  0.00    +0.000 HD
ENDBRANCH   1  24
BRANCH  15  27
ATOM     27  C   UNL     1      -3.052  10.737  15.997  0.00  0.00    +0.000 C 
BRANCH  27  28
ATOM     28  C   UNL     1      -3.794  10.020  14.871  0.00  0.00    +0.000 C 
BRANCH  28  29
ATOM     29  O   UNL     1      -3.387  10.520  13.598  0.00  0.00    +0.000 OA
BRANCH  29  30
ATOM     30  C   UNL     1      -3.500   9.537  12.557  0.00  0.00    +0.000 C 
BRANCH  30  31
ATOM     31  C   UNL     1      -4.841   9.583  11.814  0.00  0.00    +0.000 C 
ATOM     32  F   UNL     1      -5.204  10.827  11.440  0.00  0.00    +0.000 F 
ATOM     33  F   UNL     1      -4.790   8.820  10.694  0.00  0.00    +0.000 F 
ATOM     34  F   UNL     1      -5.833   9.083  12.589  0.00  0.00    +0.000 F 
ENDBRANCH  30  31
ENDBRANCH  29  30
ENDBRANCH  28  29
ENDBRANCH  27  28
ENDBRANCH  15  27
TORSDOF 6
ENDMDL
MODEL 6
REMARK VINA RESULT:      -7.1      4.774      6.775
REMARK  Name = 
REMARK  8 active torsions:
REMARK  status: ('A' for Active; 'I' for Inactive)
REMARK    1  A    between atoms: C_1  and  C_2
REMARK    2  A    between atoms: N_7  and  C_8
REMARK    3  A    between atoms: C_19  and  C_20
REMARK    4  A    between atoms: N_22  and  C_23
REMARK    5  A    between atoms: C_23  and  C_24
REMARK    6  A    between atoms: C_24  and  O_25
REMARK    7  A    between atoms: O_25  and  C_26
REMARK    8  A    between atoms: C_26  and  C_27
REMARK                            x       y       z     vdW  Elec       q    Type
REMARK                         _______ _______ _______ _____ _____    ______ ____
ROOT
ATOM      1  C   UNL     1      -0.613  12.148  19.362  0.00  0.00    +0.000 A 
ATOM      2  N   UNL     1      -1.921  11.982  19.056  0.00  0.00    +0.000 NA
ATOM      3  C   UNL     1      -2.919  12.458  19.818  0.00  0.00    +0.000 A 
ATOM      4  N   UNL     1      -4.198  12.095  19.459  0.00  0.00    +0.000 N 
ATOM      5  C   UNL     1      -4.492  11.937  18.035  0.00  0.00    +0.000 C 
ATOM      6  C   UNL     1      -5.664  10.943  17.874  0.00  0.00    +0.000 C 
ATOM      7  N   UNL     1      -6.867  11.312  18.649  0.00  0.00    +0.000 NA
ATOM      8  C   UNL     1      -6.504  11.555  20.063  0.00  0.00    +0.000 C 
ATOM      9  C   UNL     1      -5.334  12.554  20.255  0.00  0.00    +0.000 C 
ATOM     10  N   UNL     1      -2.719  13.154  20.931  0.00  0.00    +0.000 NA
ATOM     11  C   UNL     1      -1.428  13.369  21.245  0.00  0.00    +0.000 A 
ATOM     12  C   UNL     1      -0.865  14.046  22.346  0.00  0.00    +0.000 A 
ATOM     13  C   UNL     1      -1.577  14.741  23.442  0.00  0.00    +0.000 C 
ATOM     14  N   UNL     1       0.471  13.997  22.323  0.00  0.00    +0.000 NA
ATOM     15  N   UNL     1       0.756  13.331  21.178  0.00  0.00    +0.000 N 
ATOM     16  C   UNL     1      -0.357  12.906  20.498  0.00  0.00    +0.000 A 
ATOM     17  H   UNL     1      -7.530  10.539  18.611  0.00  0.00    +0.000 HD
ENDROOT
BRANCH   1  24
ATOM     18  C   UNL     1       1.492   7.457  21.101  0.00  0.00    +0.000 C 
ATOM     19  C   UNL     1       1.581   8.288  19.857  0.00  0.00    +0.000 A 
ATOM     20  C   UNL     1       2.276   7.869  18.733  0.00  0.00    +0.000 A 
ATOM     21  C   UNL     1       2.296   8.712  17.630  0.00  0.00    +0.000 A 
ATOM     22  N   UNL     1       1.673   9.913  17.573  0.00  0.00    +0.000 NA
ATOM     23  C   UNL     1       0.980  10.310  18.661  0.00  0.00    +0.000 A 
ATOM     24  N   UNL     1       0.360  11.557  18.561  0.00  0.00    +0.000 N 
ATOM     25  C   UNL     1       0.940   9.528  19.816  0.00  0.00    +0.000 A 
ATOM     26  H   UNL     1       0.555  11.962  17.662  0.00  0.00    +0.000 HD
ENDBRANCH   1  24
BRANCH  15  27
ATOM     27  C   UNL     1       2.157  13.114  20.858  0.00  0.00    +0.000 C 
BRANCH  27  28
ATOM     28  C   UNL     1       2.765  14.252  20.040  0.00  0.00    +0.000 C 
BRANCH  28  29
ATOM     29  O   UNL     1       2.410  14.130  18.663  0.00  0.00    +0.000 OA
BRANCH  29  30
ATOM     30  C   UNL     1       3.228  14.944  17.809  0.00  0.00    +0.000 C 
BRANCH  30  31
ATOM     31  C   UNL     1       2.801  16.417  17.774  0.00  0.00    +0.000 C 
ATOM     32  F   UNL     1       1.501  16.606  18.076  0.00  0.00    +0.000 F 
ATOM     33  F   UNL     1       3.533  17.146  18.651  0.00  0.00    +0.000 F 
ATOM     34  F   UNL     1       3.015  16.946  16.545  0.00  0.00    +0.000 F 
ENDBRANCH  30  31
ENDBRANCH  29  30
ENDBRANCH  28  29
ENDBRANCH  27  28
ENDBRANCH  15  27
TORSDOF 6
ENDMDL
MODEL 7
REMARK VINA RESULT:      -7.1      4.630      6.176
REMARK  Name = 
REMARK  8 active torsions:
REMARK  status: ('A' for Active; 'I' for Inactive)
REMARK    1  A    between atoms: C_1  and  C_2
REMARK    2  A    between atoms: N_7  and  C_8
REMARK    3  A    between atoms: C_19  and  C_20
REMARK    4  A    between atoms: N_22  and  C_23
REMARK    5  A    between atoms: C_23  and  C_24
REMARK    6  A    between atoms: C_24  and  O_25
REMARK    7  A    between atoms: O_25  and  C_26
REMARK    8  A    between atoms: C_26  and  C_27
REMARK                            x       y       z     vdW  Elec       q    Type
REMARK                         _______ _______ _______ _____ _____    ______ ____
ROOT
ATOM      1  C   UNL     1      -0.354  12.079  20.305  0.00  0.00    +0.000 A 
ATOM      2  N   UNL     1      -1.414  12.757  20.804  0.00  0.00    +0.000 NA
ATOM      3  C   UNL     1      -2.657  12.644  20.306  0.00  0.00    +0.000 A 
ATOM      4  N   UNL     1      -3.609  13.495  20.821  0.00  0.00    +0.000 N 
ATOM      5  C   UNL     1      -3.509  13.860  22.234  0.00  0.00    +0.000 C 
ATOM      6  C   UNL     1      -4.180  15.237  22.442  0.00  0.00    +0.000 C 
ATOM      7  N   UNL     1      -5.572  15.299  21.952  0.00  0.00    +0.000 NA
ATOM      8  C   UNL     1      -5.637  14.831  20.549  0.00  0.00    +0.000 C 
ATOM      9  C   UNL     1      -4.977  13.448  20.312  0.00  0.00    +0.000 C 
ATOM     10  N   UNL     1      -2.967  11.842  19.293  0.00  0.00    +0.000 NA
ATOM     11  C   UNL     1      -1.941  11.126  18.798  0.00  0.00    +0.000 A 
ATOM     12  C   UNL     1      -1.913  10.204  17.731  0.00  0.00    +0.000 A 
ATOM     13  C   UNL     1      -3.047   9.755  16.892  0.00  0.00    +0.000 C 
ATOM     14  N   UNL     1      -0.678   9.739  17.516  0.00  0.00    +0.000 NA
ATOM     15  N   UNL     1       0.069  10.329  18.480  0.00  0.00    +0.000 N 
ATOM     16  C   UNL     1      -0.640  11.198  19.270  0.00  0.00    +0.000 A 
ATOM     17  H   UNL     1      -5.887  16.269  21.986  0.00  0.00    +0.000 HD
ENDROOT
BRANCH   1  24
ATOM     18  C   UNL     1       2.573  16.031  18.007  0.00  0.00    +0.000 C 
ATOM     19  C   UNL     1       2.708  15.141  19.206  0.00  0.00    +0.000 A 
ATOM     20  C   UNL     1       3.748  15.272  20.114  0.00  0.00    +0.000 A 
ATOM     21  C   UNL     1       3.781  14.400  21.193  0.00  0.00    +0.000 A 
ATOM     22  N   UNL     1       2.860  13.434  21.427  0.00  0.00    +0.000 NA
ATOM     23  C   UNL     1       1.837  13.322  20.553  0.00  0.00    +0.000 A 
ATOM     24  N   UNL     1       0.916  12.310  20.827  0.00  0.00    +0.000 N 
ATOM     25  C   UNL     1       1.755  14.145  19.429  0.00  0.00    +0.000 A 
ATOM     26  H   UNL     1       1.192  11.815  21.657  0.00  0.00    +0.000 HD
ENDBRANCH   1  24
BRANCH  15  27
ATOM     27  C   UNL     1       1.488  10.015  18.517  0.00  0.00    +0.000 C 
BRANCH  27  28
ATOM     28  C   UNL     1       1.825   8.695  17.827  0.00  0.00    +0.000 C 
BRANCH  28  29
ATOM     29  O   UNL     1       2.197   7.704  18.785  0.00  0.00    +0.000 OA
BRANCH  29  30
ATOM     30  C   UNL     1       2.921   6.613  18.197  0.00  0.00    +0.000 C 
BRANCH  30  31
ATOM     31  C   UNL     1       2.311   5.239  18.502  0.00  0.00    +0.000 C 
ATOM     32  F   UNL     1       1.656   5.192  19.680  0.00  0.00    +0.000 F 
ATOM     33  F   UNL     1       1.432   4.883  17.533  0.00  0.00    +0.000 F 
ATOM     34  F   UNL     1       3.274   4.286  18.532  0.00  0.00    +0.000 F 
ENDBRANCH  30  31
ENDBRANCH  29  30
ENDBRANCH  28  29
ENDBRANCH  27  28
ENDBRANCH  15  27
TORSDOF 6
ENDMDL
MODEL 8
REMARK VINA RESULT:      -7.0      4.571      6.254
REMARK  Name = 
REMARK  8 active torsions:
REMARK  status: ('A' for Active; 'I' for Inactive)
REMARK    1  A    between atoms: C_1  and  C_2
REMARK    2  A    between atoms: N_7  and  C_8
REMARK    3  A    between atoms: C_19  and  C_20
REMARK    4  A    between atoms: N_22  and  C_23
REMARK    5  A    between atoms: C_23  and  C_24
REMARK    6  A    between atoms: C_24  and  O_25
REMARK    7  A    between atoms: O_25  and  C_26
REMARK    8  A    between atoms: C_26  and  C_27
REMARK                            x       y       z     vdW  Elec       q    Type
REMARK                         _______ _______ _______ _____ _____    ______ ____
ROOT
ATOM      1  C   UNL     1      -2.051  13.399  20.830  0.00  0.00    +0.000 A 
ATOM      2  N   UNL     1      -2.541  14.091  21.885  0.00  0.00    +0.000 NA
ATOM      3  C   UNL     1      -3.853  14.172  22.162  0.00  0.00    +0.000 A 
ATOM      4  N   UNL     1      -4.218  15.023  23.182  0.00  0.00    +0.000 N 
ATOM      5  C   UNL     1      -3.307  15.159  24.319  0.00  0.00    +0.000 C 
ATOM      6  C   UNL     1      -3.522  16.546  24.966  0.00  0.00    +0.000 C 
ATOM      7  N   UNL     1      -4.925  16.813  25.346  0.00  0.00    +0.000 NA
ATOM      8  C   UNL     1      -5.818  16.569  24.191  0.00  0.00    +0.000 C 
ATOM      9  C   UNL     1      -5.629  15.182  23.525  0.00  0.00    +0.000 C 
ATOM     10  N   UNL     1      -4.790  13.566  21.442  0.00  0.00    +0.000 NA
ATOM     11  C   UNL     1      -4.332  12.838  20.406  0.00  0.00    +0.000 A 
ATOM     12  C   UNL     1      -5.039  12.089  19.444  0.00  0.00    +0.000 A 
ATOM     13  C   UNL     1      -6.502  11.881  19.354  0.00  0.00    +0.000 C 
ATOM     14  N   UNL     1      -4.216  11.548  18.540  0.00  0.00    +0.000 NA
ATOM     15  N   UNL     1      -2.981  11.912  18.960  0.00  0.00    +0.000 N 
ATOM     16  C   UNL     1      -2.992  12.715  20.072  0.00  0.00    +0.000 A 
ATOM     17  H   UNL     1      -5.008  17.791  25.620  0.00  0.00    +0.000 HD
ENDROOT
BRANCH   1  24
ATOM     18  C   UNL     1      -0.213  17.504  17.790  0.00  0.00    +0.000 C 
ATOM     19  C   UNL     1       0.395  16.386  18.581  0.00  0.00    +0.000 A 
ATOM     20  C   UNL     1       1.766  16.257  18.749  0.00  0.00    +0.000 A 
ATOM     21  C   UNL     1       2.229  15.187  19.503  0.00  0.00    +0.000 A 
ATOM     22  N   UNL     1       1.433  14.264  20.094  0.00  0.00    +0.000 NA
ATOM     23  C   UNL     1       0.099  14.404  19.947  0.00  0.00    +0.000 A 
ATOM     24  N   UNL     1      -0.684  13.427  20.566  0.00  0.00    +0.000 N 
ATOM     25  C   UNL     1      -0.438  15.438  19.179  0.00  0.00    +0.000 A 
ATOM     26  H   UNL     1      -0.091  12.758  21.025  0.00  0.00    +0.000 HD
ENDBRANCH   1  24
BRANCH  15  27
ATOM     27  C   UNL     1      -1.844  11.463  18.173  0.00  0.00    +0.000 C 
BRANCH  27  28
ATOM     28  C   UNL     1      -1.140  10.250  18.779  0.00  0.00    +0.000 C 
BRANCH  28  29
ATOM     29  O   UNL     1      -0.104  10.660  19.671  0.00  0.00    +0.000 OA
BRANCH  29  30
ATOM     30  C   UNL     1       0.544   9.549  20.310  0.00  0.00    +0.000 C 
BRANCH  30  31
ATOM     31  C   UNL     1      -0.059   9.190  21.674  0.00  0.00    +0.000 C 
ATOM     32  F   UNL     1      -0.806   8.069  21.651  0.00  0.00    +0.000 F 
ATOM     33  F   UNL     1       0.920   9.009  22.594  0.00  0.00    +0.000 F 
ATOM     34  F   UNL     1      -0.846  10.196  22.126  0.00  0.00    +0.000 F 
ENDBRANCH  30  31
ENDBRANCH  29  30
ENDBRANCH  28  29
ENDBRANCH  27  28
ENDBRANCH  15  27
TORSDOF 6
ENDMDL
MODEL 9
REMARK VINA RESULT:      -7.0      3.723      6.166
REMARK  Name = 
REMARK  8 active torsions:
REMARK  status: ('A' for Active; 'I' for Inactive)
REMARK    1  A    between atoms: C_1  and  C_2
REMARK    2  A    between atoms: N_7  and  C_8
REMARK    3  A    between atoms: C_19  and  C_20
REMARK    4  A    between atoms: N_22  and  C_23
REMARK    5  A    between atoms: C_23  and  C_24
REMARK    6  A    between atoms: C_24  and  O_25
REMARK    7  A    between atoms: O_25  and  C_26
REMARK    8  A    between atoms: C_26  and  C_27
REMARK                            x       y       z     vdW  Elec       q    Type
REMARK                         _______ _______ _______ _____ _____    ______ ____
ROOT
ATOM      1  C   UNL     1      -1.637  13.560  20.979  0.00  0.00    +0.000 A 
ATOM      2  N   UNL     1      -2.753  13.776  21.714  0.00  0.00    +0.000 NA
ATOM      3  C   UNL     1      -3.130  12.979  22.727  0.00  0.00    +0.000 A 
ATOM      4  N   UNL     1      -4.357  13.239  23.295  0.00  0.00    +0.000 N 
ATOM      5  C   UNL     1      -4.795  14.633  23.371  0.00  0.00    +0.000 C 
ATOM      6  C   UNL     1      -6.340  14.669  23.393  0.00  0.00    +0.000 C 
ATOM      7  N   UNL     1      -6.939  13.842  24.460  0.00  0.00    +0.000 NA
ATOM      8  C   UNL     1      -6.394  12.467  24.401  0.00  0.00    +0.000 C 
ATOM      9  C   UNL     1      -4.846  12.399  24.385  0.00  0.00    +0.000 C 
ATOM     10  N   UNL     1      -2.434  11.917  23.118  0.00  0.00    +0.000 NA
ATOM     11  C   UNL     1      -1.298  11.695  22.431  0.00  0.00    +0.000 A 
ATOM     12  C   UNL     1      -0.343  10.667  22.569  0.00  0.00    +0.000 A 
ATOM     13  C   UNL     1      -0.335   9.565  23.558  0.00  0.00    +0.000 C 
ATOM     14  N   UNL     1       0.626  10.770  21.653  0.00  0.00    +0.000 NA
ATOM     15  N   UNL     1       0.312  11.894  20.967  0.00  0.00    +0.000 N 
ATOM     16  C   UNL     1      -0.857  12.483  21.379  0.00  0.00    +0.000 A 
ATOM     17  H   UNL     1      -7.947  13.799  24.313  0.00  0.00    +0.000 HD
ENDROOT
BRANCH   1  24
ATOM     18  C   UNL     1       1.232  18.054  21.994  0.00  0.00    +0.000 C 
ATOM     19  C   UNL     1       0.729  17.344  20.774  0.00  0.00    +0.000 A 
ATOM     20  C   UNL     1       1.045  17.760  19.490  0.00  0.00    +0.000 A 
ATOM     21  C   UNL     1       0.530  17.032  18.426  0.00  0.00    +0.000 A 
ATOM     22  N   UNL     1      -0.252  15.934  18.556  0.00  0.00    +0.000 NA
ATOM     23  C   UNL     1      -0.542  15.518  19.807  0.00  0.00    +0.000 A 
ATOM     24  N   UNL     1      -1.357  14.388  19.896  0.00  0.00    +0.000 N 
ATOM     25  C   UNL     1      -0.083  16.218  20.924  0.00  0.00    +0.000 A 
ATOM     26  H   UNL     1      -1.604  14.075  18.974  0.00  0.00    +0.000 HD
ENDBRANCH   1  24
BRANCH  15  27
ATOM     27  C   UNL     1       1.197  12.289  19.883  0.00  0.00    +0.000 C 
BRANCH  27  28
ATOM     28  C   UNL     1       0.905  11.552  18.577  0.00  0.00    +0.000 C 
BRANCH  28  29
ATOM     29  O   UNL     1      -0.492  11.568  18.289  0.00  0.00    +0.000 OA
BRANCH  29  30
ATOM     30  C   UNL     1      -1.016  10.258  18.025  0.00  0.00    +0.000 C 
BRANCH  30  31
ATOM     31  C   UNL     1      -2.331  10.272  17.235  0.00  0.00    +0.000 C 
ATOM     32  F   UNL     1      -2.191   9.882  15.952  0.00  0.00    +0.000 F 
ATOM     33  F   UNL     1      -3.242   9.450  17.813  0.00  0.00    +0.000 F 
ATOM     34  F   UNL     1      -2.869  11.516  17.228  0.00  0.00    +0.000 F 
ENDBRANCH  30  31
ENDBRANCH  29  30
ENDBRANCH  28  29
ENDBRANCH  27  28
ENDBRANCH  15  27
TORSDOF 6
ENDMDL
