MODEL 1
REMARK VINA RESULT:      -7.4      0.000      0.000
REMARK  Name = 
REMARK  12 active torsions:
REMARK  status: ('A' for Active; 'I' for Inactive)
REMARK    1  A    between atoms: C_1  and  N_2
REMARK    2  A    between atoms: N_2  and  C_3
REMARK    3  A    between atoms: C_8  and  O_9
REMARK    4  A    between atoms: O_9  and  C_10
REMARK    5  A    between atoms: C_14  and  C_15
REMARK    6  A    between atoms: C_15  and  C_17
REMARK    7  A    between atoms: C_19  and  O_20
REMARK    8  A    between atoms: O_20  and  C_21
REMARK    9  A    between atoms: C_22  and  O_23
REMARK   10  A    between atoms: O_23  and  C_24
REMARK   11  A    between atoms: C_25  and  O_26
REMARK   12  A    between atoms: O_26  and  C_27
REMARK                            x       y       z     vdW  Elec       q    Type
REMARK                         _______ _______ _______ _____ _____    ______ ____
ROOT
ATOM      1  C   UNL     1       3.050   3.551  19.603  0.00  0.00    +0.000 A 
ATOM      2  C   UNL     1       2.607   4.008  20.852  0.00  0.00    +0.000 A 
ATOM      3  C   UNL     1       2.166   5.311  21.048  0.00  0.00    +0.000 A 
ATOM      4  C   UNL     1       2.152   6.228  20.000  0.00  0.00    +0.000 A 
ATOM      5  C   UNL     1       1.791   7.561  20.270  0.00  0.00    +0.000 A 
ATOM      6  C   UNL     1       1.781   8.532  19.272  0.00  0.00    +0.000 A 
ATOM      7  C   UNL     1       2.092   8.155  17.974  0.00  0.00    +0.000 A 
ATOM      8  C   UNL     1       2.434   6.824  17.693  0.00  0.00    +0.000 A 
ATOM      9  C   UNL     1       2.515   5.818  18.696  0.00  0.00    +0.000 A 
ATOM     10  C   UNL     1       2.942   4.453  18.504  0.00  0.00    +0.000 A 
ENDROOT
BRANCH   1  12
ATOM     11  C   UNL     1       4.719   1.874  20.371  0.00  0.00    +0.000 C 
ATOM     12  N   UNL     1       3.616   2.282  19.519  0.00  0.00    +0.000 N 
ATOM     13  H   UNL     1       3.059   1.520  19.147  0.00  0.00    +0.000 HD
ENDBRANCH   1  12
BRANCH   6  14
ATOM     14  O   UNL     1       1.460   9.791  19.695  0.00  0.00    +0.000 OA
ATOM     15  C   UNL     1       1.104  10.731  18.689  0.00  0.00    +0.000 C 
ENDBRANCH   6  14
BRANCH  10  16
ATOM     16  C   UNL     1       3.339   4.022  17.119  0.00  0.00    +0.000 C 
ATOM     17  O   UNL     1       2.509   3.468  16.398  0.00  0.00    +0.000 OA
BRANCH  16  18
ATOM     18  C   UNL     1       4.683   4.287  16.522  0.00  0.00    +0.000 A 
ATOM     19  C   UNL     1       4.976   3.638  15.318  0.00  0.00    +0.000 A 
ATOM     20  C   UNL     1       6.118   3.968  14.586  0.00  0.00    +0.000 A 
ATOM     21  C   UNL     1       6.997   4.958  15.073  0.00  0.00    +0.000 A 
ATOM     22  C   UNL     1       6.743   5.563  16.321  0.00  0.00    +0.000 A 
ATOM     23  C   UNL     1       5.598   5.203  17.050  0.00  0.00    +0.000 A 
BRANCH  20  24
ATOM     24  O   UNL     1       6.434   3.386  13.381  0.00  0.00    +0.000 OA
ATOM     25  C   UNL     1       5.387   3.306  12.417  0.00  0.00    +0.000 C 
ENDBRANCH  20  24
BRANCH  21  26
ATOM     26  O   UNL     1       8.108   5.196  14.295  0.00  0.00    +0.000 OA
ATOM     27  C   UNL     1       7.885   5.760  13.009  0.00  0.00    +0.000 C 
ENDBRANCH  21  26
BRANCH  22  28
ATOM     28  O   UNL     1       7.600   6.544  16.747  0.00  0.00    +0.000 OA
ATOM     29  C   UNL     1       7.052   7.609  17.511  0.00  0.00    +0.000 C 
ENDBRANCH  22  28
ENDBRANCH  16  18
ENDBRANCH  10  16
TORSDOF 7
ENDMDL
MODEL 2
REMARK VINA RESULT:      -7.1      5.131     10.613
REMARK  Name = 
REMARK  12 active torsions:
REMARK  status: ('A' for Active; 'I' for Inactive)
REMARK    1  A    between atoms: C_1  and  N_2
REMARK    2  A    between atoms: N_2  and  C_3
REMARK    3  A    between atoms: C_8  and  O_9
REMARK    4  A    between atoms: O_9  and  C_10
REMARK    5  A    between atoms: C_14  and  C_15
REMARK    6  A    between atoms: C_15  and  C_17
REMARK    7  A    between atoms: C_19  and  O_20
REMARK    8  A    between atoms: O_20  and  C_21
REMARK    9  A    between atoms: C_22  and  O_23
REMARK   10  A    between atoms: O_23  and  C_24
REMARK   11  A    between atoms: C_25  and  O_26
REMARK   12  A    between atoms: O_26  and  C_27
REMARK                            x       y       z     vdW  Elec       q    Type
REMARK                         _______ _______ _______ _____ _____    ______ ____
ROOT
ATOM      1  C   UNL     1      -0.651  10.753  22.042  0.00  0.00    +0.000 A 
ATOM      2  C   UNL     1       0.077   9.761  22.715  0.00  0.00    +0.000 A 
ATOM      3  C   UNL     1       0.935   8.894  22.048  0.00  0.00    +0.000 A 
ATOM      4  C   UNL     1       1.102   8.973  20.668  0.00  0.00    +0.000 A 
ATOM      5  C   UNL     1       1.904   8.011  20.026  0.00  0.00    +0.000 A 
ATOM      6  C   UNL     1       2.091   8.019  18.647  0.00  0.00    +0.000 A 
ATOM      7  C   UNL     1       1.507   9.032  17.901  0.00  0.00    +0.000 A 
ATOM      8  C   UNL     1       0.722  10.006  18.536  0.00  0.00    +0.000 A 
ATOM      9  C   UNL     1       0.457   9.995  19.934  0.00  0.00    +0.000 A 
ATOM     10  C   UNL     1      -0.407  10.906  20.646  0.00  0.00    +0.000 A 
ENDROOT
BRANCH   1  12
ATOM     11  C   UNL     1      -1.370  12.858  23.156  0.00  0.00    +0.000 C 
ATOM     12  N   UNL     1      -1.600  11.482  22.754  0.00  0.00    +0.000 N 
ATOM     13  H   UNL     1      -2.575  11.214  22.687  0.00  0.00    +0.000 HD
ENDBRANCH   1  12
BRANCH   6  14
ATOM     14  O   UNL     1       2.853   6.993  18.162  0.00  0.00    +0.000 OA
ATOM     15  C   UNL     1       2.918   5.815  18.958  0.00  0.00    +0.000 C 
ENDBRANCH   6  14
BRANCH  10  16
ATOM     16  C   UNL     1      -1.101  11.985  19.862  0.00  0.00    +0.000 C 
ATOM     17  O   UNL     1      -0.510  13.039  19.631  0.00  0.00    +0.000 OA
BRANCH  16  18
ATOM     18  C   UNL     1      -2.467  11.833  19.275  0.00  0.00    +0.000 A 
ATOM     19  C   UNL     1      -3.525  12.412  19.984  0.00  0.00    +0.000 A 
ATOM     20  C   UNL     1      -4.802  12.494  19.425  0.00  0.00    +0.000 A 
ATOM     21  C   UNL     1      -5.033  11.975  18.134  0.00  0.00    +0.000 A 
ATOM     22  C   UNL     1      -3.986  11.327  17.445  0.00  0.00    +0.000 A 
ATOM     23  C   UNL     1      -2.714  11.239  18.034  0.00  0.00    +0.000 A 
BRANCH  20  24
ATOM     24  O   UNL     1      -5.866  13.083  20.065  0.00  0.00    +0.000 OA
ATOM     25  C   UNL     1      -5.570  13.832  21.241  0.00  0.00    +0.000 C 
ENDBRANCH  20  24
BRANCH  21  26
ATOM     26  O   UNL     1      -6.328  12.080  17.678  0.00  0.00    +0.000 OA
ATOM     27  C   UNL     1      -6.659  13.250  16.941  0.00  0.00    +0.000 C 
ENDBRANCH  21  26
BRANCH  22  28
ATOM     28  O   UNL     1      -4.238  10.864  16.180  0.00  0.00    +0.000 OA
ATOM     29  C   UNL     1      -3.152  10.827  15.266  0.00  0.00    +0.000 C 
ENDBRANCH  22  28
ENDBRANCH  16  18
ENDBRANCH  10  16
TORSDOF 7
ENDMDL
MODEL 3
REMARK VINA RESULT:      -7.0      4.590      9.809
REMARK  Name = 
REMARK  12 active torsions:
REMARK  status: ('A' for Active; 'I' for Inactive)
REMARK    1  A    between atoms: C_1  and  N_2
REMARK    2  A    between atoms: N_2  and  C_3
REMARK    3  A    between atoms: C_8  and  O_9
REMARK    4  A    between atoms: O_9  and  C_10
REMARK    5  A    between atoms: C_14  and  C_15
REMARK    6  A    between atoms: C_15  and  C_17
REMARK    7  A    between atoms: C_19  and  O_20
REMARK    8  A    between atoms: O_20  and  C_21
REMARK    9  A    between atoms: C_22  and  O_23
REMARK   10  A    between atoms: O_23  and  C_24
REMARK   11  A    between atoms: C_25  and  O_26
REMARK   12  A    between atoms: O_26  and  C_27
REMARK                            x       y       z     vdW  Elec       q    Type
REMARK                         _______ _______ _______ _____ _____    ______ ____
ROOT
ATOM      1  C   UNL     1       0.206  10.660  21.730  0.00  0.00    +0.000 A 
ATOM      2  C   UNL     1       0.779   9.607  22.458  0.00  0.00    +0.000 A 
ATOM      3  C   UNL     1       1.453   8.561  21.838  0.00  0.00    +0.000 A 
ATOM      4  C   UNL     1       1.582   8.514  20.452  0.00  0.00    +0.000 A 
ATOM      5  C   UNL     1       2.186   7.386  19.866  0.00  0.00    +0.000 A 
ATOM      6  C   UNL     1       2.323   7.267  18.486  0.00  0.00    +0.000 A 
ATOM      7  C   UNL     1       1.894   8.311  17.680  0.00  0.00    +0.000 A 
ATOM      8  C   UNL     1       1.308   9.447  18.259  0.00  0.00    +0.000 A 
ATOM      9  C   UNL     1       1.094   9.578  19.660  0.00  0.00    +0.000 A 
ATOM     10  C   UNL     1       0.423  10.672  20.322  0.00  0.00    +0.000 A 
ENDROOT
BRANCH   1  12
ATOM     11  C   UNL     1      -1.710  11.188  23.226  0.00  0.00    +0.000 C 
ATOM     12  N   UNL     1      -0.580  11.588  22.408  0.00  0.00    +0.000 N 
ATOM     13  H   UNL     1      -0.180  12.490  22.643  0.00  0.00    +0.000 HD
ENDBRANCH   1  12
BRANCH   6  14
ATOM     14  O   UNL     1       2.882   6.094  18.062  0.00  0.00    +0.000 OA
ATOM     15  C   UNL     1       2.151   4.904  18.332  0.00  0.00    +0.000 C 
ENDBRANCH   6  14
BRANCH  10  16
ATOM     16  C   UNL     1      -0.105  11.796  19.476  0.00  0.00    +0.000 C 
ATOM     17  O   UNL     1       0.671  12.657  19.062  0.00  0.00    +0.000 OA
BRANCH  16  18
ATOM     18  C   UNL     1      -1.530  11.906  19.039  0.00  0.00    +0.000 A 
ATOM     19  C   UNL     1      -1.900  11.170  17.908  0.00  0.00    +0.000 A 
ATOM     20  C   UNL     1      -3.241  11.052  17.537  0.00  0.00    +0.000 A 
ATOM     21  C   UNL     1      -4.236  11.694  18.304  0.00  0.00    +0.000 A 
ATOM     22  C   UNL     1      -3.861  12.495  19.403  0.00  0.00    +0.000 A 
ATOM     23  C   UNL     1      -2.504  12.616  19.746  0.00  0.00    +0.000 A 
BRANCH  20  24
ATOM     24  O   UNL     1      -3.660  10.312  16.457  0.00  0.00    +0.000 OA
ATOM     25  C   UNL     1      -2.973  10.531  15.228  0.00  0.00    +0.000 C 
ENDBRANCH  20  24
BRANCH  21  26
ATOM     26  O   UNL     1      -5.525  11.540  17.846  0.00  0.00    +0.000 OA
ATOM     27  C   UNL     1      -6.084  12.626  17.118  0.00  0.00    +0.000 C 
ENDBRANCH  21  26
BRANCH  22  28
ATOM     28  O   UNL     1      -4.855  13.078  20.143  0.00  0.00    +0.000 OA
ATOM     29  C   UNL     1      -5.094  12.560  21.445  0.00  0.00    +0.000 C 
ENDBRANCH  22  28
ENDBRANCH  16  18
ENDBRANCH  10  16
TORSDOF 7
ENDMDL
MODEL 4
REMARK VINA RESULT:      -6.9      0.454      2.445
REMARK  Name = 
REMARK  12 active torsions:
REMARK  status: ('A' for Active; 'I' for Inactive)
REMARK    1  A    between atoms: C_1  and  N_2
REMARK    2  A    between atoms: N_2  and  C_3
REMARK    3  A    between atoms: C_8  and  O_9
REMARK    4  A    between atoms: O_9  and  C_10
REMARK    5  A    between atoms: C_14  and  C_15
REMARK    6  A    between atoms: C_15  and  C_17
REMARK    7  A    between atoms: C_19  and  O_20
REMARK    8  A    between atoms: O_20  and  C_21
REMARK    9  A    between atoms: C_22  and  O_23
REMARK   10  A    between atoms: O_23  and  C_24
REMARK   11  A    between atoms: C_25  and  O_26
REMARK   12  A    between atoms: O_26  and  C_27
REMARK                            x       y       z     vdW  Elec       q    Type
REMARK                         _______ _______ _______ _____ _____    ______ ____
ROOT
ATOM      1  C   UNL     1       3.134   3.440  19.664  0.00  0.00    +0.000 A 
ATOM      2  C   UNL     1       2.771   3.949  20.919  0.00  0.00    +0.000 A 
ATOM      3  C   UNL     1       2.321   5.253  21.085  0.00  0.00    +0.000 A 
ATOM      4  C   UNL     1       2.217   6.119  19.999  0.00  0.00    +0.000 A 
ATOM      5  C   UNL     1       1.851   7.457  20.232  0.00  0.00    +0.000 A 
ATOM      6  C   UNL     1       1.754   8.379  19.193  0.00  0.00    +0.000 A 
ATOM      7  C   UNL     1       1.980   7.946  17.895  0.00  0.00    +0.000 A 
ATOM      8  C   UNL     1       2.326   6.608  17.653  0.00  0.00    +0.000 A 
ATOM      9  C   UNL     1       2.496   5.652  18.693  0.00  0.00    +0.000 A 
ATOM     10  C   UNL     1       2.933   4.286  18.535  0.00  0.00    +0.000 A 
ENDROOT
BRANCH   1  12
ATOM     11  C   UNL     1       4.808   1.787  20.475  0.00  0.00    +0.000 C 
ATOM     12  N   UNL     1       3.716   2.176  19.600  0.00  0.00    +0.000 N 
ATOM     13  H   UNL     1       3.176   1.406  19.223  0.00  0.00    +0.000 HD
ENDBRANCH   1  12
BRANCH   6  14
ATOM     14  O   UNL     1       1.439   9.652  19.579  0.00  0.00    +0.000 OA
ATOM     15  C   UNL     1       0.638  10.411  18.681  0.00  0.00    +0.000 C 
ENDBRANCH   6  14
BRANCH  10  16
ATOM     16  C   UNL     1       3.240   3.796  17.147  0.00  0.00    +0.000 C 
ATOM     17  O   UNL     1       2.469   3.007  16.601  0.00  0.00    +0.000 OA
BRANCH  16  18
ATOM     18  C   UNL     1       4.410   4.264  16.343  0.00  0.00    +0.000 A 
ATOM     19  C   UNL     1       5.349   5.062  17.004  0.00  0.00    +0.000 A 
ATOM     20  C   UNL     1       6.566   5.385  16.401  0.00  0.00    +0.000 A 
ATOM     21  C   UNL     1       6.847   4.913  15.102  0.00  0.00    +0.000 A 
ATOM     22  C   UNL     1       5.874   4.167  14.404  0.00  0.00    +0.000 A 
ATOM     23  C   UNL     1       4.649   3.870  15.023  0.00  0.00    +0.000 A 
BRANCH  20  24
ATOM     24  O   UNL     1       7.537   6.137  17.019  0.00  0.00    +0.000 OA
ATOM     25  C   UNL     1       7.529   6.142  18.445  0.00  0.00    +0.000 C 
ENDBRANCH  20  24
BRANCH  21  26
ATOM     26  O   UNL     1       8.061   5.304  14.581  0.00  0.00    +0.000 OA
ATOM     27  C   UNL     1       8.106   5.572  13.185  0.00  0.00    +0.000 C 
ENDBRANCH  21  26
BRANCH  22  28
ATOM     28  O   UNL     1       6.194   3.697  13.158  0.00  0.00    +0.000 OA
ATOM     29  C   UNL     1       5.130   3.495  12.239  0.00  0.00    +0.000 C 
ENDBRANCH  22  28
ENDBRANCH  16  18
ENDBRANCH  10  16
TORSDOF 7
ENDMDL
MODEL 5
REMARK VINA RESULT:      -6.8      4.443      9.497
REMARK  Name = 
REMARK  12 active torsions:
REMARK  status: ('A' for Active; 'I' for Inactive)
REMARK    1  A    between atoms: C_1  and  N_2
REMARK    2  A    between atoms: N_2  and  C_3
REMARK    3  A    between atoms: C_8  and  O_9
REMARK    4  A    between atoms: O_9  and  C_10
REMARK    5  A    between atoms: C_14  and  C_15
REMARK    6  A    between atoms: C_15  and  C_17
REMARK    7  A    between atoms: C_19  and  O_20
REMARK    8  A    between atoms: O_20  and  C_21
REMARK    9  A    between atoms: C_22  and  O_23
REMARK   10  A    between atoms: O_23  and  C_24
REMARK   11  A    between atoms: C_25  and  O_26
REMARK   12  A    between atoms: O_26  and  C_27
REMARK                            x       y       z     vdW  Elec       q    Type
REMARK                         _______ _______ _______ _____ _____    ______ ____
ROOT
ATOM      1  C   UNL     1      -0.272  10.687  21.267  0.00  0.00    +0.000 A 
ATOM      2  C   UNL     1       0.184   9.690  22.141  0.00  0.00    +0.000 A 
ATOM      3  C   UNL     1       0.994   8.646  21.712  0.00  0.00    +0.000 A 
ATOM      4  C   UNL     1       1.385   8.543  20.379  0.00  0.00    +0.000 A 
ATOM      5  C   UNL     1       2.123   7.416  19.974  0.00  0.00    +0.000 A 
ATOM      6  C   UNL     1       2.523   7.242  18.652  0.00  0.00    +0.000 A 
ATOM      7  C   UNL     1       2.223   8.233  17.729  0.00  0.00    +0.000 A 
ATOM      8  C   UNL     1       1.505   9.369  18.130  0.00  0.00    +0.000 A 
ATOM      9  C   UNL     1       1.025   9.553  19.457  0.00  0.00    +0.000 A 
ATOM     10  C   UNL     1       0.208  10.647  19.925  0.00  0.00    +0.000 A 
ENDROOT
BRANCH   1  12
ATOM     11  C   UNL     1      -1.756  11.532  23.076  0.00  0.00    +0.000 C 
ATOM     12  N   UNL     1      -1.199  11.613  21.737  0.00  0.00    +0.000 N 
ATOM     13  H   UNL     1      -1.227  12.536  21.318  0.00  0.00    +0.000 HD
ENDBRANCH   1  12
BRANCH   6  14
ATOM     14  O   UNL     1       3.188   6.074  18.400  0.00  0.00    +0.000 OA
ATOM     15  C   UNL     1       3.797   5.433  19.514  0.00  0.00    +0.000 C 
ENDBRANCH   6  14
BRANCH  10  16
ATOM     16  C   UNL     1      -0.184  11.712  18.940  0.00  0.00    +0.000 C 
ATOM     17  O   UNL     1      -1.175  11.544  18.230  0.00  0.00    +0.000 OA
BRANCH  16  18
ATOM     18  C   UNL     1       0.526  13.021  18.809  0.00  0.00    +0.000 A 
ATOM     19  C   UNL     1      -0.273  14.163  18.699  0.00  0.00    +0.000 A 
ATOM     20  C   UNL     1       0.287  15.440  18.768  0.00  0.00    +0.000 A 
ATOM     21  C   UNL     1       1.681  15.581  18.935  0.00  0.00    +0.000 A 
ATOM     22  C   UNL     1       2.499  14.432  18.974  0.00  0.00    +0.000 A 
ATOM     23  C   UNL     1       1.915  13.158  18.884  0.00  0.00    +0.000 A 
BRANCH  20  24
ATOM     24  O   UNL     1      -0.457  16.593  18.702  0.00  0.00    +0.000 OA
ATOM     25  C   UNL     1      -1.391  16.812  19.756  0.00  0.00    +0.000 C 
ENDBRANCH  20  24
BRANCH  21  26
ATOM     26  O   UNL     1       2.144  16.878  18.966  0.00  0.00    +0.000 OA
ATOM     27  C   UNL     1       2.411  17.436  20.247  0.00  0.00    +0.000 C 
ENDBRANCH  21  26
BRANCH  22  28
ATOM     28  O   UNL     1       3.844  14.607  19.170  0.00  0.00    +0.000 OA
ATOM     29  C   UNL     1       4.669  14.698  18.017  0.00  0.00    +0.000 C 
ENDBRANCH  22  28
ENDBRANCH  16  18
ENDBRANCH  10  16
TORSDOF 7
ENDMDL
MODEL 6
REMARK VINA RESULT:      -6.7      5.274     10.386
REMARK  Name = 
REMARK  12 active torsions:
REMARK  status: ('A' for Active; 'I' for Inactive)
REMARK    1  A    between atoms: C_1  and  N_2
REMARK    2  A    between atoms: N_2  and  C_3
REMARK    3  A    between atoms: C_8  and  O_9
REMARK    4  A    between atoms: O_9  and  C_10
REMARK    5  A    between atoms: C_14  and  C_15
REMARK    6  A    between atoms: C_15  and  C_17
REMARK    7  A    between atoms: C_19  and  O_20
REMARK    8  A    between atoms: O_20  and  C_21
REMARK    9  A    between atoms: C_22  and  O_23
REMARK   10  A    between atoms: O_23  and  C_24
REMARK   11  A    between atoms: C_25  and  O_26
REMARK   12  A    between atoms: O_26  and  C_27
REMARK                            x       y       z     vdW  Elec       q    Type
REMARK                         _______ _______ _______ _____ _____    ______ ____
ROOT
ATOM      1  C   UNL     1      -0.826  11.312  22.322  0.00  0.00    +0.000 A 
ATOM      2  C   UNL     1      -0.294  10.342  23.184  0.00  0.00    +0.000 A 
ATOM      3  C   UNL     1       0.503   9.301  22.722  0.00  0.00    +0.000 A 
ATOM      4  C   UNL     1       0.802   9.174  21.367  0.00  0.00    +0.000 A 
ATOM      5  C   UNL     1       1.528   8.049  20.936  0.00  0.00    +0.000 A 
ATOM      6  C   UNL     1       1.838   7.851  19.593  0.00  0.00    +0.000 A 
ATOM      7  C   UNL     1       1.457   8.815  18.672  0.00  0.00    +0.000 A 
ATOM      8  C   UNL     1       0.749   9.949  19.098  0.00  0.00    +0.000 A 
ATOM      9  C   UNL     1       0.360  10.156  20.450  0.00  0.00    +0.000 A 
ATOM     10  C   UNL     1      -0.441  11.248  20.951  0.00  0.00    +0.000 A 
ENDROOT
BRANCH   1  12
ATOM     11  C   UNL     1      -2.900  11.822  23.597  0.00  0.00    +0.000 C 
ATOM     12  N   UNL     1      -1.734  12.234  22.836  0.00  0.00    +0.000 N 
ATOM     13  H   UNL     1      -1.424  13.183  23.010  0.00  0.00    +0.000 HD
ENDBRANCH   1  12
BRANCH   6  14
ATOM     14  O   UNL     1       2.503   6.688  19.320  0.00  0.00    +0.000 OA
ATOM     15  C   UNL     1       2.203   5.572  20.150  0.00  0.00    +0.000 C 
ENDBRANCH   6  14
BRANCH  10  16
ATOM     16  C   UNL     1      -0.919  12.284  19.973  0.00  0.00    +0.000 C 
ATOM     17  O   UNL     1      -0.150  13.175  19.614  0.00  0.00    +0.000 OA
BRANCH  16  18
ATOM     18  C   UNL     1      -2.273  12.266  19.342  0.00  0.00    +0.000 A 
ATOM     19  C   UNL     1      -2.349  11.802  18.025  0.00  0.00    +0.000 A 
ATOM     20  C   UNL     1      -3.583  11.563  17.418  0.00  0.00    +0.000 A 
ATOM     21  C   UNL     1      -4.772  11.808  18.137  0.00  0.00    +0.000 A 
ATOM     22  C   UNL     1      -4.702  12.343  19.441  0.00  0.00    +0.000 A 
ATOM     23  C   UNL     1      -3.449  12.593  20.024  0.00  0.00    +0.000 A 
BRANCH  20  24
ATOM     24  O   UNL     1      -3.712  11.074  16.140  0.00  0.00    +0.000 OA
ATOM     25  C   UNL     1      -2.681  10.202  15.683  0.00  0.00    +0.000 C 
ENDBRANCH  20  24
BRANCH  21  26
ATOM     26  O   UNL     1      -5.939  11.567  17.448  0.00  0.00    +0.000 OA
ATOM     27  C   UNL     1      -6.667  12.703  16.997  0.00  0.00    +0.000 C 
ENDBRANCH  21  26
BRANCH  22  28
ATOM     28  O   UNL     1      -5.875  12.537  20.121  0.00  0.00    +0.000 OA
ATOM     29  C   UNL     1      -5.788  12.974  21.470  0.00  0.00    +0.000 C 
ENDBRANCH  22  28
ENDBRANCH  16  18
ENDBRANCH  10  16
TORSDOF 7
ENDMDL
MODEL 7
REMARK VINA RESULT:      -6.6      1.931      7.072
REMARK  Name = 
REMARK  12 active torsions:
REMARK  status: ('A' for Active; 'I' for Inactive)
REMARK    1  A    between atoms: C_1  and  N_2
REMARK    2  A    between atoms: N_2  and  C_3
REMARK    3  A    between atoms: C_8  and  O_9
REMARK    4  A    between atoms: O_9  and  C_10
REMARK    5  A    between atoms: C_14  and  C_15
REMARK    6  A    between atoms: C_15  and  C_17
REMARK    7  A    between atoms: C_19  and  O_20
REMARK    8  A    between atoms: O_20  and  C_21
REMARK    9  A    between atoms: C_22  and  O_23
REMARK   10  A    between atoms: O_23  and  C_24
REMARK   11  A    between atoms: C_25  and  O_26
REMARK   12  A    between atoms: O_26  and  C_27
REMARK                            x       y       z     vdW  Elec       q    Type
REMARK                         _______ _______ _______ _____ _____    ______ ____
ROOT
ATOM      1  C   UNL     1       1.936   3.753  18.856  0.00  0.00    +0.000 A 
ATOM      2  C   UNL     1       2.261   2.830  17.852  0.00  0.00    +0.000 A 
ATOM      3  C   UNL     1       3.250   3.084  16.908  0.00  0.00    +0.000 A 
ATOM      4  C   UNL     1       3.960   4.281  16.918  0.00  0.00    +0.000 A 
ATOM      5  C   UNL     1       4.881   4.532  15.884  0.00  0.00    +0.000 A 
ATOM      6  C   UNL     1       5.604   5.721  15.824  0.00  0.00    +0.000 A 
ATOM      7  C   UNL     1       5.441   6.652  16.837  0.00  0.00    +0.000 A 
ATOM      8  C   UNL     1       4.539   6.401  17.882  0.00  0.00    +0.000 A 
ATOM      9  C   UNL     1       3.737   5.227  17.946  0.00  0.00    +0.000 A 
ATOM     10  C   UNL     1       2.728   4.936  18.936  0.00  0.00    +0.000 A 
ENDROOT
BRANCH   1  12
ATOM     11  C   UNL     1       0.968   2.823  20.950  0.00  0.00    +0.000 C 
ATOM     12  N   UNL     1       0.836   3.493  19.669  0.00  0.00    +0.000 N 
ATOM     13  H   UNL     1       0.007   4.069  19.572  0.00  0.00    +0.000 HD
ENDBRANCH   1  12
BRANCH   6  14
ATOM     14  O   UNL     1       6.421   5.843  14.734  0.00  0.00    +0.000 OA
ATOM     15  C   UNL     1       6.957   4.638  14.200  0.00  0.00    +0.000 C 
ENDBRANCH   6  14
BRANCH  10  16
ATOM     16  C   UNL     1       2.484   5.948  20.020  0.00  0.00    +0.000 C 
ATOM     17  O   UNL     1       2.910   5.732  21.154  0.00  0.00    +0.000 OA
BRANCH  16  18
ATOM     18  C   UNL     1       1.802   7.258  19.792  0.00  0.00    +0.000 A 
ATOM     19  C   UNL     1       0.992   7.734  20.828  0.00  0.00    +0.000 A 
ATOM     20  C   UNL     1       0.471   9.029  20.793  0.00  0.00    +0.000 A 
ATOM     21  C   UNL     1       0.752   9.864  19.692  0.00  0.00    +0.000 A 
ATOM     22  C   UNL     1       1.509   9.363  18.612  0.00  0.00    +0.000 A 
ATOM     23  C   UNL     1       2.007   8.051  18.659  0.00  0.00    +0.000 A 
BRANCH  20  24
ATOM     24  O   UNL     1      -0.300   9.558  21.801  0.00  0.00    +0.000 OA
ATOM     25  C   UNL     1       0.232   9.478  23.121  0.00  0.00    +0.000 C 
ENDBRANCH  20  24
BRANCH  21  26
ATOM     26  O   UNL     1       0.174  11.113  19.735  0.00  0.00    +0.000 OA
ATOM     27  C   UNL     1      -1.049  11.283  19.029  0.00  0.00    +0.000 C 
ENDBRANCH  21  26
BRANCH  22  28
ATOM     28  O   UNL     1       1.789  10.213  17.574  0.00  0.00    +0.000 OA
ATOM     29  C   UNL     1       2.558  11.371  17.864  0.00  0.00    +0.000 C 
ENDBRANCH  22  28
ENDBRANCH  16  18
ENDBRANCH  10  16
TORSDOF 7
ENDMDL
MODEL 8
REMARK VINA RESULT:      -6.6      3.912      8.988
REMARK  Name = 
REMARK  12 active torsions:
REMARK  status: ('A' for Active; 'I' for Inactive)
REMARK    1  A    between atoms: C_1  and  N_2
REMARK    2  A    between atoms: N_2  and  C_3
REMARK    3  A    between atoms: C_8  and  O_9
REMARK    4  A    between atoms: O_9  and  C_10
REMARK    5  A    between atoms: C_14  and  C_15
REMARK    6  A    between atoms: C_15  and  C_17
REMARK    7  A    between atoms: C_19  and  O_20
REMARK    8  A    between atoms: O_20  and  C_21
REMARK    9  A    between atoms: C_22  and  O_23
REMARK   10  A    between atoms: O_23  and  C_24
REMARK   11  A    between atoms: C_25  and  O_26
REMARK   12  A    between atoms: O_26  and  C_27
REMARK                            x       y       z     vdW  Elec       q    Type
REMARK                         _______ _______ _______ _____ _____    ______ ____
ROOT
ATOM      1  C   UNL     1       0.351   8.870  21.112  0.00  0.00    +0.000 A 
ATOM      2  C   UNL     1       0.785   7.637  21.620  0.00  0.00    +0.000 A 
ATOM      3  C   UNL     1       1.676   6.826  20.928  0.00  0.00    +0.000 A 
ATOM      4  C   UNL     1       2.174   7.207  19.684  0.00  0.00    +0.000 A 
ATOM      5  C   UNL     1       2.995   6.309  18.978  0.00  0.00    +0.000 A 
ATOM      6  C   UNL     1       3.505   6.619  17.720  0.00  0.00    +0.000 A 
ATOM      7  C   UNL     1       3.229   7.866  17.179  0.00  0.00    +0.000 A 
ATOM      8  C   UNL     1       2.427   8.775  17.885  0.00  0.00    +0.000 A 
ATOM      9  C   UNL     1       1.838   8.470  19.144  0.00  0.00    +0.000 A 
ATOM     10  C   UNL     1       0.934   9.314  19.890  0.00  0.00    +0.000 A 
ENDROOT
BRANCH   1  12
ATOM     11  C   UNL     1      -0.432  10.155  23.093  0.00  0.00    +0.000 C 
ATOM     12  N   UNL     1      -0.655   9.554  21.791  0.00  0.00    +0.000 N 
ATOM     13  H   UNL     1      -1.419   9.956  21.260  0.00  0.00    +0.000 HD
ENDBRANCH   1  12
BRANCH   6  14
ATOM     14  O   UNL     1       4.243   5.627  17.137  0.00  0.00    +0.000 OA
ATOM     15  C   UNL     1       5.566   5.444  17.627  0.00  0.00    +0.000 C 
ENDBRANCH   6  14
BRANCH  10  16
ATOM     16  C   UNL     1       0.569  10.650  19.308  0.00  0.00    +0.000 C 
ATOM     17  O   UNL     1       1.444  11.501  19.152  0.00  0.00    +0.000 OA
BRANCH  16  18
ATOM     18  C   UNL     1      -0.805  11.000  18.834  0.00  0.00    +0.000 A 
ATOM     19  C   UNL     1      -1.297  10.276  17.742  0.00  0.00    +0.000 A 
ATOM     20  C   UNL     1      -2.632  10.391  17.350  0.00  0.00    +0.000 A 
ATOM     21  C   UNL     1      -3.494  11.258  18.053  0.00  0.00    +0.000 A 
ATOM     22  C   UNL     1      -2.984  12.043  19.109  0.00  0.00    +0.000 A 
ATOM     23  C   UNL     1      -1.633  11.926  19.474  0.00  0.00    +0.000 A 
BRANCH  20  24
ATOM     24  O   UNL     1      -3.174   9.676  16.308  0.00  0.00    +0.000 OA
ATOM     25  C   UNL     1      -2.918  10.169  14.995  0.00  0.00    +0.000 C 
ENDBRANCH  20  24
BRANCH  21  26
ATOM     26  O   UNL     1      -4.784  11.323  17.577  0.00  0.00    +0.000 OA
ATOM     27  C   UNL     1      -5.787  10.666  18.342  0.00  0.00    +0.000 C 
ENDBRANCH  21  26
BRANCH  22  28
ATOM     28  O   UNL     1      -3.857  12.850  19.790  0.00  0.00    +0.000 OA
ATOM     29  C   UNL     1      -3.770  12.861  21.208  0.00  0.00    +0.000 C 
ENDBRANCH  22  28
ENDBRANCH  16  18
ENDBRANCH  10  16
TORSDOF 7
ENDMDL
MODEL 9
REMARK VINA RESULT:      -6.6      4.716      9.096
REMARK  Name = 
REMARK  12 active torsions:
REMARK  status: ('A' for Active; 'I' for Inactive)
REMARK    1  A    between atoms: C_1  and  N_2
REMARK    2  A    between atoms: N_2  and  C_3
REMARK    3  A    between atoms: C_8  and  O_9
REMARK    4  A    between atoms: O_9  and  C_10
REMARK    5  A    between atoms: C_14  and  C_15
REMARK    6  A    between atoms: C_15  and  C_17
REMARK    7  A    between atoms: C_19  and  O_20
REMARK    8  A    between atoms: O_20  and  C_21
REMARK    9  A    between atoms: C_22  and  O_23
REMARK   10  A    between atoms: O_23  and  C_24
REMARK   11  A    between atoms: C_25  and  O_26
REMARK   12  A    between atoms: O_26  and  C_27
REMARK                            x       y       z     vdW  Elec       q    Type
REMARK                         _______ _______ _______ _____ _____    ______ ____
ROOT
ATOM      1  C   UNL     1      -2.620  11.485  17.549  0.00  0.00    +0.000 A 
ATOM      2  C   UNL     1      -4.018  11.582  17.595  0.00  0.00    +0.000 A 
ATOM      3  C   UNL     1      -4.693  11.990  18.739  0.00  0.00    +0.000 A 
ATOM      4  C   UNL     1      -3.999  12.318  19.902  0.00  0.00    +0.000 A 
ATOM      5  C   UNL     1      -4.731  12.630  21.063  0.00  0.00    +0.000 A 
ATOM      6  C   UNL     1      -4.097  12.941  22.263  0.00  0.00    +0.000 A 
ATOM      7  C   UNL     1      -2.712  12.988  22.292  0.00  0.00    +0.000 A 
ATOM      8  C   UNL     1      -1.976  12.697  21.134  0.00  0.00    +0.000 A 
ATOM      9  C   UNL     1      -2.585  12.314  19.906  0.00  0.00    +0.000 A 
ATOM     10  C   UNL     1      -1.899  11.916  18.700  0.00  0.00    +0.000 A 
ENDROOT
BRANCH   1  12
ATOM     11  C   UNL     1      -2.744  10.015  15.546  0.00  0.00    +0.000 C 
ATOM     12  N   UNL     1      -2.027  10.927  16.420  0.00  0.00    +0.000 N 
ATOM     13  H   UNL     1      -1.247  11.408  15.987  0.00  0.00    +0.000 HD
ENDBRANCH   1  12
BRANCH   6  14
ATOM     14  O   UNL     1      -4.939  13.171  23.315  0.00  0.00    +0.000 OA
ATOM     15  C   UNL     1      -4.602  12.548  24.549  0.00  0.00    +0.000 C 
ENDBRANCH   6  14
BRANCH  10  16
ATOM     16  C   UNL     1      -0.396  11.902  18.711  0.00  0.00    +0.000 C 
ATOM     17  O   UNL     1       0.220  12.927  18.421  0.00  0.00    +0.000 OA
BRANCH  16  18
ATOM     18  C   UNL     1       0.419  10.719  19.125  0.00  0.00    +0.000 A 
ATOM     19  C   UNL     1       0.464  10.433  20.494  0.00  0.00    +0.000 A 
ATOM     20  C   UNL     1       1.031   9.246  20.960  0.00  0.00    +0.000 A 
ATOM     21  C   UNL     1       1.581   8.328  20.041  0.00  0.00    +0.000 A 
ATOM     22  C   UNL     1       1.602   8.645  18.666  0.00  0.00    +0.000 A 
ATOM     23  C   UNL     1       1.042   9.854  18.221  0.00  0.00    +0.000 A 
BRANCH  20  24
ATOM     24  O   UNL     1       1.070   8.901  22.290  0.00  0.00    +0.000 OA
ATOM     25  C   UNL     1       0.101   9.516  23.137  0.00  0.00    +0.000 C 
ENDBRANCH  20  24
BRANCH  21  26
ATOM     26  O   UNL     1       2.140   7.199  20.596  0.00  0.00    +0.000 OA
ATOM     27  C   UNL     1       1.386   5.997  20.508  0.00  0.00    +0.000 C 
ENDBRANCH  21  26
BRANCH  22  28
ATOM     28  O   UNL     1       2.114   7.716  17.799  0.00  0.00    +0.000 OA
ATOM     29  C   UNL     1       3.520   7.715  17.593  0.00  0.00    +0.000 C 
ENDBRANCH  22  28
ENDBRANCH  16  18
ENDBRANCH  10  16
TORSDOF 7
ENDMDL
