MODEL 1
REMARK VINA RESULT:      -7.0      0.000      0.000
REMARK  Name = 
REMARK  8 active torsions:
REMARK  status: ('A' for Active; 'I' for Inactive)
REMARK    1  A    between atoms: C_1  and  O_2
REMARK    2  A    between atoms: O_2  and  C_3
REMARK    3  A    between atoms: C_3  and  C_4
REMARK    4  A    between atoms: C_4  and  O_5
REMARK    5  A    between atoms: O_5  and  C_6
REMARK    6  A    between atoms: C_10  and  N_11
REMARK    7  A    between atoms: N_11  and  C_12
REMARK    8  A    between atoms: C_20  and  C_21
REMARK                            x       y       z     vdW  Elec       q    Type
REMARK                         _______ _______ _______ _____ _____    ______ ____
ROOT
ATOM      1  C   UNL     1       5.768   5.437  15.145  0.00  0.00    +0.000 A 
ATOM      2  C   UNL     1       5.568   6.649  15.795  0.00  0.00    +0.000 A 
ATOM      3  C   UNL     1       4.726   6.710  16.910  0.00  0.00    +0.000 A 
ATOM      4  C   UNL     1       4.047   5.567  17.391  0.00  0.00    +0.000 A 
ATOM      5  C   UNL     1       3.160   5.561  18.516  0.00  0.00    +0.000 A 
ATOM      6  C   UNL     1       2.496   4.359  18.830  0.00  0.00    +0.000 A 
ATOM      7  C   UNL     1       2.810   3.222  18.105  0.00  0.00    +0.000 A 
ATOM      8  N   UNL     1       3.684   3.194  17.081  0.00  0.00    +0.000 NA
ATOM      9  C   UNL     1       4.267   4.342  16.718  0.00  0.00    +0.000 A 
ATOM     10  C   UNL     1       5.122   4.301  15.627  0.00  0.00    +0.000 A 
ENDROOT
BRANCH   5  11
ATOM     11  N   UNL     1       3.023   6.750  19.289  0.00  0.00    +0.000 N 
ATOM     12  H   UNL     1       3.829   6.960  19.875  0.00  0.00    +0.000 HD
BRANCH  11  13
ATOM     13  C   UNL     1       2.169   7.862  19.092  0.00  0.00    +0.000 A 
ATOM     14  C   UNL     1       2.194   8.580  17.886  0.00  0.00    +0.000 A 
ATOM     15  C   UNL     1       1.510   9.790  17.754  0.00  0.00    +0.000 A 
ATOM     16  C   UNL     1       0.745  10.271  18.812  0.00  0.00    +0.000 A 
ATOM     17 CL   UNL     1      -0.051  11.788  18.664  0.00  0.00    +0.000 Cl
ATOM     18  C   UNL     1       0.623   9.533  19.986  0.00  0.00    +0.000 A 
ATOM     19  C   UNL     1       1.332   8.336  20.123  0.00  0.00    +0.000 A 
ATOM     20 CL   UNL     1       1.178   7.455  21.603  0.00  0.00    +0.000 Cl
ENDBRANCH  11  13
ENDBRANCH   5  11
BRANCH   6  21
ATOM     21  C   UNL     1       1.452   4.232  19.802  0.00  0.00    +0.000 C 
ATOM     22  N   UNL     1       0.622   4.075  20.599  0.00  0.00    +0.000 NA
ENDBRANCH   6  21
BRANCH   1  23
ATOM     23  O   UNL     1       6.558   5.224  14.049  0.00  0.00    +0.000 OA
BRANCH  23  24
ATOM     24  C   UNL     1       6.792   3.866  13.677  0.00  0.00    +0.000 C 
BRANCH  24  25
ATOM     25  C   UNL     1       6.569   3.711  12.177  0.00  0.00    +0.000 C 
BRANCH  25  27
ATOM     26  C   UNL     1       4.409   3.160  11.405  0.00  0.00    +0.000 C 
ATOM     27  O   UNL     1       5.619   2.666  11.963  0.00  0.00    +0.000 OA
ENDBRANCH  25  27
ENDBRANCH  24  25
ENDBRANCH  23  24
ENDBRANCH   1  23
TORSDOF 7
ENDMDL
MODEL 2
REMARK VINA RESULT:      -6.8      4.067      7.215
REMARK  Name = 
REMARK  8 active torsions:
REMARK  status: ('A' for Active; 'I' for Inactive)
REMARK    1  A    between atoms: C_1  and  O_2
REMARK    2  A    between atoms: O_2  and  C_3
REMARK    3  A    between atoms: C_3  and  C_4
REMARK    4  A    between atoms: C_4  and  O_5
REMARK    5  A    between atoms: O_5  and  C_6
REMARK    6  A    between atoms: C_10  and  N_11
REMARK    7  A    between atoms: N_11  and  C_12
REMARK    8  A    between atoms: C_20  and  C_21
REMARK                            x       y       z     vdW  Elec       q    Type
REMARK                         _______ _______ _______ _____ _____    ______ ____
ROOT
ATOM      1  C   UNL     1       2.243   8.005  18.077  0.00  0.00    +0.000 A 
ATOM      2  C   UNL     1       3.483   7.852  17.468  0.00  0.00    +0.000 A 
ATOM      3  C   UNL     1       4.218   6.679  17.672  0.00  0.00    +0.000 A 
ATOM      4  C   UNL     1       3.742   5.640  18.504  0.00  0.00    +0.000 A 
ATOM      5  C   UNL     1       4.448   4.421  18.768  0.00  0.00    +0.000 A 
ATOM      6  C   UNL     1       3.880   3.511  19.681  0.00  0.00    +0.000 A 
ATOM      7  C   UNL     1       2.626   3.789  20.196  0.00  0.00    +0.000 A 
ATOM      8  N   UNL     1       1.921   4.901  19.917  0.00  0.00    +0.000 NA
ATOM      9  C   UNL     1       2.476   5.814  19.112  0.00  0.00    +0.000 A 
ATOM     10  C   UNL     1       1.756   6.976  18.880  0.00  0.00    +0.000 A 
ENDROOT
BRANCH   5  11
ATOM     11  N   UNL     1       5.661   4.165  18.067  0.00  0.00    +0.000 N 
ATOM     12  H   UNL     1       6.245   3.449  18.496  0.00  0.00    +0.000 HD
BRANCH  11  13
ATOM     13  C   UNL     1       5.999   4.428  16.718  0.00  0.00    +0.000 A 
ATOM     14  C   UNL     1       5.415   3.691  15.676  0.00  0.00    +0.000 A 
ATOM     15  C   UNL     1       5.883   3.799  14.365  0.00  0.00    +0.000 A 
ATOM     16  C   UNL     1       6.908   4.692  14.070  0.00  0.00    +0.000 A 
ATOM     17 CL   UNL     1       7.519   4.783  12.465  0.00  0.00    +0.000 Cl
ATOM     18  C   UNL     1       7.442   5.507  15.064  0.00  0.00    +0.000 A 
ATOM     19  C   UNL     1       6.987   5.374  16.379  0.00  0.00    +0.000 A 
ATOM     20 CL   UNL     1       7.687   6.386  17.596  0.00  0.00    +0.000 Cl
ENDBRANCH  11  13
ENDBRANCH   5  11
BRANCH   6  21
ATOM     21  C   UNL     1       4.537   2.343  20.185  0.00  0.00    +0.000 C 
ATOM     22  N   UNL     1       5.101   1.394  20.547  0.00  0.00    +0.000 NA
ENDBRANCH   6  21
BRANCH   1  23
ATOM     23  O   UNL     1       1.415   9.088  17.972  0.00  0.00    +0.000 OA
BRANCH  23  24
ATOM     24  C   UNL     1       1.199   9.852  19.158  0.00  0.00    +0.000 C 
BRANCH  24  25
ATOM     25  C   UNL     1      -0.294  10.115  19.321  0.00  0.00    +0.000 C 
BRANCH  25  27
ATOM     26  C   UNL     1      -0.086   9.018  21.399  0.00  0.00    +0.000 C 
ATOM     27  O   UNL     1      -0.603  10.151  20.714  0.00  0.00    +0.000 OA
ENDBRANCH  25  27
ENDBRANCH  24  25
ENDBRANCH  23  24
ENDBRANCH   1  23
TORSDOF 7
ENDMDL
MODEL 3
REMARK VINA RESULT:      -6.7      1.674      2.068
REMARK  Name = 
REMARK  8 active torsions:
REMARK  status: ('A' for Active; 'I' for Inactive)
REMARK    1  A    between atoms: C_1  and  O_2
REMARK    2  A    between atoms: O_2  and  C_3
REMARK    3  A    between atoms: C_3  and  C_4
REMARK    4  A    between atoms: C_4  and  O_5
REMARK    5  A    between atoms: O_5  and  C_6
REMARK    6  A    between atoms: C_10  and  N_11
REMARK    7  A    between atoms: N_11  and  C_12
REMARK    8  A    between atoms: C_20  and  C_21
REMARK                            x       y       z     vdW  Elec       q    Type
REMARK                         _______ _______ _______ _____ _____    ______ ____
ROOT
ATOM      1  C   UNL     1       6.486   5.434  16.009  0.00  0.00    +0.000 A 
ATOM      2  C   UNL     1       5.374   6.249  15.830  0.00  0.00    +0.000 A 
ATOM      3  C   UNL     1       4.308   6.180  16.734  0.00  0.00    +0.000 A 
ATOM      4  C   UNL     1       4.317   5.281  17.826  0.00  0.00    +0.000 A 
ATOM      5  C   UNL     1       3.256   5.148  18.778  0.00  0.00    +0.000 A 
ATOM      6  C   UNL     1       3.375   4.153  19.769  0.00  0.00    +0.000 A 
ATOM      7  C   UNL     1       4.552   3.428  19.837  0.00  0.00    +0.000 A 
ATOM      8  N   UNL     1       5.584   3.578  18.986  0.00  0.00    +0.000 NA
ATOM      9  C   UNL     1       5.460   4.463  17.992  0.00  0.00    +0.000 A 
ATOM     10  C   UNL     1       6.513   4.563  17.096  0.00  0.00    +0.000 A 
ENDROOT
BRANCH   5  11
ATOM     11  N   UNL     1       2.154   6.049  18.709  0.00  0.00    +0.000 N 
ATOM     12  H   UNL     1       1.338   5.673  18.229  0.00  0.00    +0.000 HD
BRANCH  11  13
ATOM     13  C   UNL     1       1.860   7.180  19.510  0.00  0.00    +0.000 A 
ATOM     14  C   UNL     1       1.543   7.032  20.869  0.00  0.00    +0.000 A 
ATOM     15  C   UNL     1       1.057   8.107  21.616  0.00  0.00    +0.000 A 
ATOM     16  C   UNL     1       0.936   9.361  21.025  0.00  0.00    +0.000 A 
ATOM     17 CL   UNL     1       0.287  10.669  21.933  0.00  0.00    +0.000 Cl
ATOM     18  C   UNL     1       1.334   9.560  19.706  0.00  0.00    +0.000 A 
ATOM     19  C   UNL     1       1.794   8.474  18.956  0.00  0.00    +0.000 A 
ATOM     20 CL   UNL     1       2.258   8.750  17.312  0.00  0.00    +0.000 Cl
ENDBRANCH  11  13
ENDBRANCH   5  11
BRANCH   6  21
ATOM     21  C   UNL     1       2.334   3.775  20.676  0.00  0.00    +0.000 C 
ATOM     22  N   UNL     1       1.521   3.424  21.428  0.00  0.00    +0.000 NA
ENDBRANCH   6  21
BRANCH   1  23
ATOM     23  O   UNL     1       7.597   5.391  15.213  0.00  0.00    +0.000 OA
BRANCH  23  24
ATOM     24  C   UNL     1       7.384   5.180  13.818  0.00  0.00    +0.000 C 
BRANCH  24  25
ATOM     25  C   UNL     1       6.519   3.940  13.624  0.00  0.00    +0.000 C 
BRANCH  25  27
ATOM     26  C   UNL     1       5.242   2.958  11.901  0.00  0.00    +0.000 C 
ATOM     27  O   UNL     1       6.437   3.653  12.228  0.00  0.00    +0.000 OA
ENDBRANCH  25  27
ENDBRANCH  24  25
ENDBRANCH  23  24
ENDBRANCH   1  23
TORSDOF 7
ENDMDL
MODEL 4
REMARK VINA RESULT:      -6.7      4.037      7.127
REMARK  Name = 
REMARK  8 active torsions:
REMARK  status: ('A' for Active; 'I' for Inactive)
REMARK    1  A    between atoms: C_1  and  O_2
REMARK    2  A    between atoms: O_2  and  C_3
REMARK    3  A    between atoms: C_3  and  C_4
REMARK    4  A    between atoms: C_4  and  O_5
REMARK    5  A    between atoms: O_5  and  C_6
REMARK    6  A    between atoms: C_10  and  N_11
REMARK    7  A    between atoms: N_11  and  C_12
REMARK    8  A    between atoms: C_20  and  C_21
REMARK                            x       y       z     vdW  Elec       q    Type
REMARK                         _______ _______ _______ _____ _____    ______ ____
ROOT
ATOM      1  C   UNL     1       2.201   8.039  18.112  0.00  0.00    +0.000 A 
ATOM      2  C   UNL     1       3.446   7.901  17.509  0.00  0.00    +0.000 A 
ATOM      3  C   UNL     1       4.191   6.734  17.711  0.00  0.00    +0.000 A 
ATOM      4  C   UNL     1       3.720   5.686  18.536  0.00  0.00    +0.000 A 
ATOM      5  C   UNL     1       4.436   4.473  18.797  0.00  0.00    +0.000 A 
ATOM      6  C   UNL     1       3.872   3.553  19.702  0.00  0.00    +0.000 A 
ATOM      7  C   UNL     1       2.612   3.816  20.212  0.00  0.00    +0.000 A 
ATOM      8  N   UNL     1       1.899   4.922  19.934  0.00  0.00    +0.000 NA
ATOM      9  C   UNL     1       2.449   5.845  19.137  0.00  0.00    +0.000 A 
ATOM     10  C   UNL     1       1.719   7.001  18.907  0.00  0.00    +0.000 A 
ENDROOT
BRANCH   5  11
ATOM     11  N   UNL     1       5.656   4.232  18.102  0.00  0.00    +0.000 N 
ATOM     12  H   UNL     1       6.262   3.547  18.551  0.00  0.00    +0.000 HD
BRANCH  11  13
ATOM     13  C   UNL     1       5.984   4.464  16.744  0.00  0.00    +0.000 A 
ATOM     14  C   UNL     1       5.383   3.712  15.723  0.00  0.00    +0.000 A 
ATOM     15  C   UNL     1       5.841   3.789  14.406  0.00  0.00    +0.000 A 
ATOM     16  C   UNL     1       6.872   4.665  14.084  0.00  0.00    +0.000 A 
ATOM     17 CL   UNL     1       7.469   4.717  12.472  0.00  0.00    +0.000 Cl
ATOM     18  C   UNL     1       7.423   5.495  15.057  0.00  0.00    +0.000 A 
ATOM     19  C   UNL     1       6.980   5.393  16.378  0.00  0.00    +0.000 A 
ATOM     20 CL   UNL     1       7.701   6.421  17.568  0.00  0.00    +0.000 Cl
ENDBRANCH  11  13
ENDBRANCH   5  11
BRANCH   6  21
ATOM     21  C   UNL     1       4.537   2.388  20.204  0.00  0.00    +0.000 C 
ATOM     22  N   UNL     1       5.122   1.458  20.582  0.00  0.00    +0.000 NA
ENDBRANCH   6  21
BRANCH   1  23
ATOM     23  O   UNL     1       1.363   9.115  18.008  0.00  0.00    +0.000 OA
BRANCH  23  24
ATOM     24  C   UNL     1       1.956  10.408  18.130  0.00  0.00    +0.000 C 
BRANCH  24  25
ATOM     25  C   UNL     1       1.195  11.211  19.179  0.00  0.00    +0.000 C 
BRANCH  25  27
ATOM     26  C   UNL     1       2.558  12.853  18.172  0.00  0.00    +0.000 C 
ATOM     27  O   UNL     1       1.364  12.602  18.902  0.00  0.00    +0.000 OA
ENDBRANCH  25  27
ENDBRANCH  24  25
ENDBRANCH  23  24
ENDBRANCH   1  23
TORSDOF 7
ENDMDL
MODEL 5
REMARK VINA RESULT:      -6.6      4.071      7.204
REMARK  Name = 
REMARK  8 active torsions:
REMARK  status: ('A' for Active; 'I' for Inactive)
REMARK    1  A    between atoms: C_1  and  O_2
REMARK    2  A    between atoms: O_2  and  C_3
REMARK    3  A    between atoms: C_3  and  C_4
REMARK    4  A    between atoms: C_4  and  O_5
REMARK    5  A    between atoms: O_5  and  C_6
REMARK    6  A    between atoms: C_10  and  N_11
REMARK    7  A    between atoms: N_11  and  C_12
REMARK    8  A    between atoms: C_20  and  C_21
REMARK                            x       y       z     vdW  Elec       q    Type
REMARK                         _______ _______ _______ _____ _____    ______ ____
ROOT
ATOM      1  C   UNL     1       2.139   8.245  18.101  0.00  0.00    +0.000 A 
ATOM      2  C   UNL     1       3.381   8.126  17.489  0.00  0.00    +0.000 A 
ATOM      3  C   UNL     1       4.137   6.962  17.669  0.00  0.00    +0.000 A 
ATOM      4  C   UNL     1       3.680   5.898  18.480  0.00  0.00    +0.000 A 
ATOM      5  C   UNL     1       4.407   4.687  18.719  0.00  0.00    +0.000 A 
ATOM      6  C   UNL     1       3.856   3.748  19.613  0.00  0.00    +0.000 A 
ATOM      7  C   UNL     1       2.597   3.993  20.134  0.00  0.00    +0.000 A 
ATOM      8  N   UNL     1       1.873   5.098  19.877  0.00  0.00    +0.000 NA
ATOM      9  C   UNL     1       2.411   6.037  19.091  0.00  0.00    +0.000 A 
ATOM     10  C   UNL     1       1.670   7.190  18.883  0.00  0.00    +0.000 A 
ENDROOT
BRANCH   5  11
ATOM     11  N   UNL     1       5.625   4.467  18.013  0.00  0.00    +0.000 N 
ATOM     12  H   UNL     1       6.305   3.905  18.523  0.00  0.00    +0.000 HD
BRANCH  11  13
ATOM     13  C   UNL     1       5.892   4.544  16.625  0.00  0.00    +0.000 A 
ATOM     14  C   UNL     1       5.257   3.675  15.724  0.00  0.00    +0.000 A 
ATOM     15  C   UNL     1       5.658   3.603  14.388  0.00  0.00    +0.000 A 
ATOM     16  C   UNL     1       6.663   4.444  13.923  0.00  0.00    +0.000 A 
ATOM     17 CL   UNL     1       7.191   4.315  12.291  0.00  0.00    +0.000 Cl
ATOM     18  C   UNL     1       7.245   5.384  14.769  0.00  0.00    +0.000 A 
ATOM     19  C   UNL     1       6.859   5.432  16.111  0.00  0.00    +0.000 A 
ATOM     20 CL   UNL     1       7.617   6.595  17.143  0.00  0.00    +0.000 Cl
ENDBRANCH  11  13
ENDBRANCH   5  11
BRANCH   6  21
ATOM     21  C   UNL     1       4.533   2.582  20.093  0.00  0.00    +0.000 C 
ATOM     22  N   UNL     1       5.053   1.639  20.530  0.00  0.00    +0.000 NA
ENDBRANCH   6  21
BRANCH   1  23
ATOM     23  O   UNL     1       1.292   9.315  18.019  0.00  0.00    +0.000 OA
BRANCH  23  24
ATOM     24  C   UNL     1       0.985   9.990  19.237  0.00  0.00    +0.000 C 
BRANCH  24  25
ATOM     25  C   UNL     1      -0.515  10.258  19.299  0.00  0.00    +0.000 C 
BRANCH  25  27
ATOM     26  C   UNL     1      -1.952  11.041  17.600  0.00  0.00    +0.000 C 
ATOM     27  O   UNL     1      -0.824  11.334  18.413  0.00  0.00    +0.000 OA
ENDBRANCH  25  27
ENDBRANCH  24  25
ENDBRANCH  23  24
ENDBRANCH   1  23
TORSDOF 7
ENDMDL
MODEL 6
REMARK VINA RESULT:      -6.6      4.251      6.296
REMARK  Name = 
REMARK  8 active torsions:
REMARK  status: ('A' for Active; 'I' for Inactive)
REMARK    1  A    between atoms: C_1  and  O_2
REMARK    2  A    between atoms: O_2  and  C_3
REMARK    3  A    between atoms: C_3  and  C_4
REMARK    4  A    between atoms: C_4  and  O_5
REMARK    5  A    between atoms: O_5  and  C_6
REMARK    6  A    between atoms: C_10  and  N_11
REMARK    7  A    between atoms: N_11  and  C_12
REMARK    8  A    between atoms: C_20  and  C_21
REMARK                            x       y       z     vdW  Elec       q    Type
REMARK                         _______ _______ _______ _____ _____    ______ ____
ROOT
ATOM      1  C   UNL     1       2.589   7.193  18.533  0.00  0.00    +0.000 A 
ATOM      2  C   UNL     1       2.236   8.194  17.636  0.00  0.00    +0.000 A 
ATOM      3  C   UNL     1       1.541   9.321  18.089  0.00  0.00    +0.000 A 
ATOM      4  C   UNL     1       1.165   9.466  19.445  0.00  0.00    +0.000 A 
ATOM      5  C   UNL     1       0.441  10.584  19.973  0.00  0.00    +0.000 A 
ATOM      6  C   UNL     1       0.070  10.551  21.332  0.00  0.00    +0.000 A 
ATOM      7  C   UNL     1       0.510   9.495  22.110  0.00  0.00    +0.000 A 
ATOM      8  N   UNL     1       1.239   8.464  21.646  0.00  0.00    +0.000 NA
ATOM      9  C   UNL     1       1.537   8.437  20.342  0.00  0.00    +0.000 A 
ATOM     10  C   UNL     1       2.243   7.339  19.875  0.00  0.00    +0.000 A 
ENDROOT
BRANCH   5  11
ATOM     11  N   UNL     1       0.169  11.691  19.119  0.00  0.00    +0.000 N 
ATOM     12  H   UNL     1      -0.816  11.802  18.882  0.00  0.00    +0.000 HD
BRANCH  11  13
ATOM     13  C   UNL     1       0.936  12.857  18.878  0.00  0.00    +0.000 A 
ATOM     14  C   UNL     1       2.239  12.764  18.364  0.00  0.00    +0.000 A 
ATOM     15  C   UNL     1       3.074  13.881  18.312  0.00  0.00    +0.000 A 
ATOM     16  C   UNL     1       2.595  15.122  18.722  0.00  0.00    +0.000 A 
ATOM     17 CL   UNL     1       3.644  16.484  18.707  0.00  0.00    +0.000 Cl
ATOM     18  C   UNL     1       1.277  15.264  19.145  0.00  0.00    +0.000 A 
ATOM     19  C   UNL     1       0.454  14.137  19.221  0.00  0.00    +0.000 A 
ATOM     20 CL   UNL     1      -1.172  14.342  19.773  0.00  0.00    +0.000 Cl
ENDBRANCH  11  13
ENDBRANCH   5  11
BRANCH   6  21
ATOM     21  C   UNL     1      -0.801  11.495  21.963  0.00  0.00    +0.000 C 
ATOM     22  N   UNL     1      -1.551  12.227  22.466  0.00  0.00    +0.000 NA
ENDBRANCH   6  21
BRANCH   1  23
ATOM     23  O   UNL     1       3.264   6.041  18.239  0.00  0.00    +0.000 OA
BRANCH  23  24
ATOM     24  C   UNL     1       3.752   5.280  19.344  0.00  0.00    +0.000 C 
BRANCH  24  25
ATOM     25  C   UNL     1       5.252   5.065  19.181  0.00  0.00    +0.000 C 
BRANCH  25  27
ATOM     26  C   UNL     1       4.358   2.924  19.607  0.00  0.00    +0.000 C 
ATOM     27  O   UNL     1       5.535   3.674  19.339  0.00  0.00    +0.000 OA
ENDBRANCH  25  27
ENDBRANCH  24  25
ENDBRANCH  23  24
ENDBRANCH   1  23
TORSDOF 7
ENDMDL
MODEL 7
REMARK VINA RESULT:      -6.5      4.306      6.481
REMARK  Name = 
REMARK  8 active torsions:
REMARK  status: ('A' for Active; 'I' for Inactive)
REMARK    1  A    between atoms: C_1  and  O_2
REMARK    2  A    between atoms: O_2  and  C_3
REMARK    3  A    between atoms: C_3  and  C_4
REMARK    4  A    between atoms: C_4  and  O_5
REMARK    5  A    between atoms: O_5  and  C_6
REMARK    6  A    between atoms: C_10  and  N_11
REMARK    7  A    between atoms: N_11  and  C_12
REMARK    8  A    between atoms: C_20  and  C_21
REMARK                            x       y       z     vdW  Elec       q    Type
REMARK                         _______ _______ _______ _____ _____    ______ ____
ROOT
ATOM      1  C   UNL     1       2.428   7.165  18.511  0.00  0.00    +0.000 A 
ATOM      2  C   UNL     1       2.058   8.177  17.635  0.00  0.00    +0.000 A 
ATOM      3  C   UNL     1       1.430   9.327  18.126  0.00  0.00    +0.000 A 
ATOM      4  C   UNL     1       1.139   9.485  19.501  0.00  0.00    +0.000 A 
ATOM      5  C   UNL     1       0.486  10.627  20.068  0.00  0.00    +0.000 A 
ATOM      6  C   UNL     1       0.195  10.607  21.447  0.00  0.00    +0.000 A 
ATOM      7  C   UNL     1       0.644   9.536  22.200  0.00  0.00    +0.000 A 
ATOM      8  N   UNL     1       1.309   8.480  21.696  0.00  0.00    +0.000 NA
ATOM      9  C   UNL     1       1.528   8.444  20.377  0.00  0.00    +0.000 A 
ATOM     10  C   UNL     1       2.167   7.322  19.871  0.00  0.00    +0.000 A 
ENDROOT
BRANCH   5  11
ATOM     11  N   UNL     1       0.202  11.743  19.230  0.00  0.00    +0.000 N 
ATOM     12  H   UNL     1      -0.790  11.882  19.045  0.00  0.00    +0.000 HD
BRANCH  11  13
ATOM     13  C   UNL     1       0.989  12.886  18.949  0.00  0.00    +0.000 A 
ATOM     14  C   UNL     1       2.279  12.753  18.411  0.00  0.00    +0.000 A 
ATOM     15  C   UNL     1       3.138  13.851  18.319  0.00  0.00    +0.000 A 
ATOM     16  C   UNL     1       2.694  15.110  18.712  0.00  0.00    +0.000 A 
ATOM     17 CL   UNL     1       3.772  16.448  18.646  0.00  0.00    +0.000 Cl
ATOM     18  C   UNL     1       1.388  15.290  19.158  0.00  0.00    +0.000 A 
ATOM     19  C   UNL     1       0.543  14.183  19.275  0.00  0.00    +0.000 A 
ATOM     20 CL   UNL     1      -1.067  14.436  19.855  0.00  0.00    +0.000 Cl
ENDBRANCH  11  13
ENDBRANCH   5  11
BRANCH   6  21
ATOM     21  C   UNL     1      -0.605  11.580  22.127  0.00  0.00    +0.000 C 
ATOM     22  N   UNL     1      -1.239  12.408  22.640  0.00  0.00    +0.000 NA
ENDBRANCH   6  21
BRANCH   1  23
ATOM     23  O   UNL     1       3.046   5.990  18.181  0.00  0.00    +0.000 OA
BRANCH  23  24
ATOM     24  C   UNL     1       2.692   4.838  18.945  0.00  0.00    +0.000 C 
BRANCH  24  25
ATOM     25  C   UNL     1       1.783   3.942  18.111  0.00  0.00    +0.000 C 
BRANCH  25  27
ATOM     26  C   UNL     1       1.022   3.703  20.331  0.00  0.00    +0.000 C 
ATOM     27  O   UNL     1       0.879   3.266  18.986  0.00  0.00    +0.000 OA
ENDBRANCH  25  27
ENDBRANCH  24  25
ENDBRANCH  23  24
ENDBRANCH   1  23
TORSDOF 7
ENDMDL
MODEL 8
REMARK VINA RESULT:      -6.4      4.063      7.141
REMARK  Name = 
REMARK  8 active torsions:
REMARK  status: ('A' for Active; 'I' for Inactive)
REMARK    1  A    between atoms: C_1  and  O_2
REMARK    2  A    between atoms: O_2  and  C_3
REMARK    3  A    between atoms: C_3  and  C_4
REMARK    4  A    between atoms: C_4  and  O_5
REMARK    5  A    between atoms: O_5  and  C_6
REMARK    6  A    between atoms: C_10  and  N_11
REMARK    7  A    between atoms: N_11  and  C_12
REMARK    8  A    between atoms: C_20  and  C_21
REMARK                            x       y       z     vdW  Elec       q    Type
REMARK                         _______ _______ _______ _____ _____    ______ ____
ROOT
ATOM      1  C   UNL     1       2.274   7.512  19.039  0.00  0.00    +0.000 A 
ATOM      2  C   UNL     1       3.484   7.447  18.358  0.00  0.00    +0.000 A 
ATOM      3  C   UNL     1       4.256   6.282  18.420  0.00  0.00    +0.000 A 
ATOM      4  C   UNL     1       3.849   5.161  19.181  0.00  0.00    +0.000 A 
ATOM      5  C   UNL     1       4.596   3.945  19.301  0.00  0.00    +0.000 A 
ATOM      6  C   UNL     1       4.099   2.943  20.158  0.00  0.00    +0.000 A 
ATOM      7  C   UNL     1       2.868   3.140  20.758  0.00  0.00    +0.000 A 
ATOM      8  N   UNL     1       2.123   4.252  20.613  0.00  0.00    +0.000 NA
ATOM      9  C   UNL     1       2.613   5.246  19.864  0.00  0.00    +0.000 A 
ATOM     10  C   UNL     1       1.854   6.403  19.772  0.00  0.00    +0.000 A 
ENDROOT
BRANCH   5  11
ATOM     11  N   UNL     1       5.777   3.785  18.520  0.00  0.00    +0.000 N 
ATOM     12  H   UNL     1       6.386   3.031  18.837  0.00  0.00    +0.000 HD
BRANCH  11  13
ATOM     13  C   UNL     1       6.048   4.203  17.195  0.00  0.00    +0.000 A 
ATOM     14  C   UNL     1       5.408   3.592  16.106  0.00  0.00    +0.000 A 
ATOM     15  C   UNL     1       5.811   3.852  14.794  0.00  0.00    +0.000 A 
ATOM     16  C   UNL     1       6.826   4.772  14.553  0.00  0.00    +0.000 A 
ATOM     17 CL   UNL     1       7.356   5.049  12.941  0.00  0.00    +0.000 Cl
ATOM     18  C   UNL     1       7.414   5.465  15.607  0.00  0.00    +0.000 A 
ATOM     19  C   UNL     1       7.025   5.181  16.919  0.00  0.00    +0.000 A 
ATOM     20 CL   UNL     1       7.793   6.042  18.208  0.00  0.00    +0.000 Cl
ENDBRANCH  11  13
ENDBRANCH   5  11
BRANCH   6  21
ATOM     21  C   UNL     1       4.809   1.755  20.524  0.00  0.00    +0.000 C 
ATOM     22  N   UNL     1       5.433   0.818  20.812  0.00  0.00    +0.000 NA
ENDBRANCH   6  21
BRANCH   1  23
ATOM     23  O   UNL     1       1.417   8.576  19.072  0.00  0.00    +0.000 OA
BRANCH  23  24
ATOM     24  C   UNL     1       1.609   9.590  18.086  0.00  0.00    +0.000 C 
BRANCH  24  25
ATOM     25  C   UNL     1       0.955  10.882  18.561  0.00  0.00    +0.000 C 
BRANCH  25  27
ATOM     26  C   UNL     1      -0.584  11.272  20.306  0.00  0.00    +0.000 C 
ATOM     27  O   UNL     1      -0.333  10.574  19.094  0.00  0.00    +0.000 OA
ENDBRANCH  25  27
ENDBRANCH  24  25
ENDBRANCH  23  24
ENDBRANCH   1  23
TORSDOF 7
ENDMDL
MODEL 9
REMARK VINA RESULT:      -6.4      3.869      6.380
REMARK  Name = 
REMARK  8 active torsions:
REMARK  status: ('A' for Active; 'I' for Inactive)
REMARK    1  A    between atoms: C_1  and  O_2
REMARK    2  A    between atoms: O_2  and  C_3
REMARK    3  A    between atoms: C_3  and  C_4
REMARK    4  A    between atoms: C_4  and  O_5
REMARK    5  A    between atoms: O_5  and  C_6
REMARK    6  A    between atoms: C_10  and  N_11
REMARK    7  A    between atoms: N_11  and  C_12
REMARK    8  A    between atoms: C_20  and  C_21
REMARK                            x       y       z     vdW  Elec       q    Type
REMARK                         _______ _______ _______ _____ _____    ______ ____
ROOT
ATOM      1  C   UNL     1       2.428   7.518  18.475  0.00  0.00    +0.000 A 
ATOM      2  C   UNL     1       1.812   8.502  17.711  0.00  0.00    +0.000 A 
ATOM      3  C   UNL     1       1.009   9.465  18.332  0.00  0.00    +0.000 A 
ATOM      4  C   UNL     1       0.786   9.456  19.729  0.00  0.00    +0.000 A 
ATOM      5  C   UNL     1      -0.034  10.401  20.427  0.00  0.00    +0.000 A 
ATOM      6  C   UNL     1      -0.223  10.219  21.811  0.00  0.00    +0.000 A 
ATOM      7  C   UNL     1       0.473   9.204  22.444  0.00  0.00    +0.000 A 
ATOM      8  N   UNL     1       1.293   8.341  21.816  0.00  0.00    +0.000 NA
ATOM      9  C   UNL     1       1.426   8.449  20.489  0.00  0.00    +0.000 A 
ATOM     10  C   UNL     1       2.233   7.517  19.855  0.00  0.00    +0.000 A 
ENDROOT
BRANCH   5  11
ATOM     11  N   UNL     1      -0.583  11.500  19.705  0.00  0.00    +0.000 N 
ATOM     12  H   UNL     1       0.077  11.954  19.075  0.00  0.00    +0.000 HD
BRANCH  11  13
ATOM     13  C   UNL     1      -1.934  11.807  19.417  0.00  0.00    +0.000 A 
ATOM     14  C   UNL     1      -2.641  12.735  20.198  0.00  0.00    +0.000 A 
ATOM     15  C   UNL     1      -4.020  12.897  20.054  0.00  0.00    +0.000 A 
ATOM     16  C   UNL     1      -4.702  12.172  19.082  0.00  0.00    +0.000 A 
ATOM     17 CL   UNL     1      -6.409  12.334  18.944  0.00  0.00    +0.000 Cl
ATOM     18  C   UNL     1      -4.014  11.316  18.227  0.00  0.00    +0.000 A 
ATOM     19  C   UNL     1      -2.638  11.138  18.395  0.00  0.00    +0.000 A 
ATOM     20 CL   UNL     1      -1.815  10.050  17.331  0.00  0.00    +0.000 Cl
ENDBRANCH  11  13
ENDBRANCH   5  11
BRANCH   6  21
ATOM     21  C   UNL     1      -1.147  10.961  22.614  0.00  0.00    +0.000 C 
ATOM     22  N   UNL     1      -1.937  11.553  23.227  0.00  0.00    +0.000 NA
ENDBRANCH   6  21
BRANCH   1  23
ATOM     23  O   UNL     1       3.236   6.517  18.012  0.00  0.00    +0.000 OA
BRANCH  23  24
ATOM     24  C   UNL     1       3.110   5.243  18.642  0.00  0.00    +0.000 C 
BRANCH  24  25
ATOM     25  C   UNL     1       2.828   4.184  17.581  0.00  0.00    +0.000 C 
BRANCH  25  27
ATOM     26  C   UNL     1       0.995   3.127  18.625  0.00  0.00    +0.000 C 
ATOM     27  O   UNL     1       1.422   3.941  17.541  0.00  0.00    +0.000 OA
ENDBRANCH  25  27
ENDBRANCH  24  25
ENDBRANCH  23  24
ENDBRANCH   1  23
TORSDOF 7
ENDMDL
