MODEL 1
REMARK VINA RESULT:      -7.7      0.000      0.000
REMARK  Name = 
REMARK  6 active torsions:
REMARK  status: ('A' for Active; 'I' for Inactive)
REMARK    1  A    between atoms: N_10  and  C_11
REMARK    2  A    between atoms: C_11  and  C_12
REMARK    3  A    between atoms: C_12  and  N_13
REMARK    4  A    between atoms: N_16  and  C_17
REMARK    5  A    between atoms: C_17  and  C_18
REMARK    6  A    between atoms: C_18  and  N_19
REMARK                            x       y       z     vdW  Elec       q    Type
REMARK                         _______ _______ _______ _____ _____    ______ ____
ROOT
ATOM      1  N   UNL     1       1.551   9.310  19.175  0.00  0.00    +0.000 NA
ATOM      2  C   UNL     1       0.919   9.080  20.487  0.00  0.00    +0.000 C 
ATOM      3  C   UNL     1       0.862  10.408  21.284  0.00  0.00    +0.000 C 
ATOM      4  N   UNL     1       0.199  11.539  20.585  0.00  0.00    +0.000 NA
ATOM      5  C   UNL     1       0.794  11.643  19.231  0.00  0.00    +0.000 C 
ATOM      6  C   UNL     1       0.794  10.319  18.428  0.00  0.00    +0.000 C 
ENDROOT
BRANCH   1   7
ATOM      7  C   UNL     1       1.906   8.078  18.471  0.00  0.00    +0.000 C 
BRANCH   7   8
ATOM      8  C   UNL     1       2.666   7.059  19.346  0.00  0.00    +0.000 C 
BRANCH   8  18
ATOM      9  O   UNL     1       4.762   6.794  17.388  0.00  0.00    +0.000 OA
ATOM     10  C   UNL     1       4.054   5.849  17.703  0.00  0.00    +0.000 A 
ATOM     11  S   UNL     1       4.225   4.241  16.996  0.00  0.00    +0.000 S 
ATOM     12  C   UNL     1       2.910   3.609  17.996  0.00  0.00    +0.000 A 
ATOM     13  C   UNL     1       2.419   2.313  18.008  0.00  0.00    +0.000 A 
ATOM     14  C   UNL     1       1.371   2.007  18.872  0.00  0.00    +0.000 A 
ATOM     15  C   UNL     1       0.826   3.000  19.703  0.00  0.00    +0.000 A 
ATOM     16  C   UNL     1       1.327   4.307  19.677  0.00  0.00    +0.000 A 
ATOM     17  C   UNL     1       2.376   4.604  18.814  0.00  0.00    +0.000 A 
ATOM     18  N   UNL     1       3.021   5.848  18.639  0.00  0.00    +0.000 N 
ENDBRANCH   8  18
ENDBRANCH   7   8
ENDBRANCH   1   7
BRANCH   4  19
ATOM     19  C   UNL     1      -1.262  11.381  20.487  0.00  0.00    +0.000 C 
BRANCH  19  20
ATOM     20  C   UNL     1      -1.961  12.539  19.755  0.00  0.00    +0.000 C 
BRANCH  20  21
ATOM     21  N   UNL     1      -3.171  12.100  19.093  0.00  0.00    +0.000 N 
ATOM     22  C   UNL     1      -3.144  11.640  17.784  0.00  0.00    +0.000 A 
ATOM     23  O   UNL     1      -2.165  11.543  17.062  0.00  0.00    +0.000 OA
ATOM     24  S   UNL     1      -4.779  11.208  17.264  0.00  0.00    +0.000 S 
ATOM     25  C   UNL     1      -5.456  11.727  18.815  0.00  0.00    +0.000 A 
ATOM     26  C   UNL     1      -6.786  11.720  19.201  0.00  0.00    +0.000 A 
ATOM     27  C   UNL     1      -7.111  12.199  20.472  0.00  0.00    +0.000 A 
ATOM     28  C   UNL     1      -6.111  12.679  21.327  0.00  0.00    +0.000 A 
ATOM     29  C   UNL     1      -4.771  12.676  20.930  0.00  0.00    +0.000 A 
ATOM     30  C   UNL     1      -4.453  12.190  19.668  0.00  0.00    +0.000 A 
ENDBRANCH  20  21
ENDBRANCH  19  20
ENDBRANCH   4  19
TORSDOF 6
ENDMDL
MODEL 2
REMARK VINA RESULT:      -7.6      1.577      2.308
REMARK  Name = 
REMARK  6 active torsions:
REMARK  status: ('A' for Active; 'I' for Inactive)
REMARK    1  A    between atoms: N_10  and  C_11
REMARK    2  A    between atoms: C_11  and  C_12
REMARK    3  A    between atoms: C_12  and  N_13
REMARK    4  A    between atoms: N_16  and  C_17
REMARK    5  A    between atoms: C_17  and  C_18
REMARK    6  A    between atoms: C_18  and  N_19
REMARK                            x       y       z     vdW  Elec       q    Type
REMARK                         _______ _______ _______ _____ _____    ______ ____
ROOT
ATOM      1  N   UNL     1       1.397   8.981  20.143  0.00  0.00    +0.000 NA
ATOM      2  C   UNL     1       0.509   8.605  21.257  0.00  0.00    +0.000 C 
ATOM      3  C   UNL     1       0.504   9.726  22.327  0.00  0.00    +0.000 C 
ATOM      4  N   UNL     1       0.154  11.080  21.826  0.00  0.00    +0.000 NA
ATOM      5  C   UNL     1       0.995  11.351  20.635  0.00  0.00    +0.000 C 
ATOM      6  C   UNL     1       0.946  10.245  19.552  0.00  0.00    +0.000 C 
ENDROOT
BRANCH   1   7
ATOM      7  C   UNL     1       1.689   7.878  19.227  0.00  0.00    +0.000 C 
BRANCH   7   8
ATOM      8  C   UNL     1       2.843   6.969  19.699  0.00  0.00    +0.000 C 
BRANCH   8  18
ATOM      9  O   UNL     1       4.706   6.798  17.508  0.00  0.00    +0.000 OA
ATOM     10  C   UNL     1       3.980   5.861  17.808  0.00  0.00    +0.000 A 
ATOM     11  S   UNL     1       3.982   4.325  16.940  0.00  0.00    +0.000 S 
ATOM     12  C   UNL     1       2.743   3.661  18.014  0.00  0.00    +0.000 A 
ATOM     13  C   UNL     1       2.180   2.396  17.959  0.00  0.00    +0.000 A 
ATOM     14  C   UNL     1       1.211   2.058  18.899  0.00  0.00    +0.000 A 
ATOM     15  C   UNL     1       0.815   2.989  19.873  0.00  0.00    +0.000 A 
ATOM     16  C   UNL     1       1.386   4.267  19.915  0.00  0.00    +0.000 A 
ATOM     17  C   UNL     1       2.356   4.596  18.974  0.00  0.00    +0.000 A 
ATOM     18  N   UNL     1       3.052   5.818  18.847  0.00  0.00    +0.000 N 
ENDBRANCH   8  18
ENDBRANCH   7   8
ENDBRANCH   1   7
BRANCH   4  19
ATOM     19  C   UNL     1      -1.272  11.219  21.483  0.00  0.00    +0.000 C 
BRANCH  19  20
ATOM     20  C   UNL     1      -1.587  12.470  20.646  0.00  0.00    +0.000 C 
BRANCH  20  21
ATOM     21  N   UNL     1      -2.885  12.376  20.013  0.00  0.00    +0.000 N 
ATOM     22  C   UNL     1      -4.042  12.719  20.699  0.00  0.00    +0.000 A 
ATOM     23  O   UNL     1      -4.121  13.122  21.847  0.00  0.00    +0.000 OA
ATOM     24  S   UNL     1      -5.453  12.469  19.659  0.00  0.00    +0.000 S 
ATOM     25  C   UNL     1      -4.434  11.847  18.353  0.00  0.00    +0.000 A 
ATOM     26  C   UNL     1      -4.842  11.384  17.112  0.00  0.00    +0.000 A 
ATOM     27  C   UNL     1      -3.870  10.910  16.229  0.00  0.00    +0.000 A 
ATOM     28  C   UNL     1      -2.518  10.901  16.598  0.00  0.00    +0.000 A 
ATOM     29  C   UNL     1      -2.118  11.376  17.851  0.00  0.00    +0.000 A 
ATOM     30  C   UNL     1      -3.089  11.854  18.721  0.00  0.00    +0.000 A 
ENDBRANCH  20  21
ENDBRANCH  19  20
ENDBRANCH   4  19
TORSDOF 6
ENDMDL
MODEL 3
REMARK VINA RESULT:      -7.6      0.963      1.098
REMARK  Name = 
REMARK  6 active torsions:
REMARK  status: ('A' for Active; 'I' for Inactive)
REMARK    1  A    between atoms: N_10  and  C_11
REMARK    2  A    between atoms: C_11  and  C_12
REMARK    3  A    between atoms: C_12  and  N_13
REMARK    4  A    between atoms: N_16  and  C_17
REMARK    5  A    between atoms: C_17  and  C_18
REMARK    6  A    between atoms: C_18  and  N_19
REMARK                            x       y       z     vdW  Elec       q    Type
REMARK                         _______ _______ _______ _____ _____    ______ ____
ROOT
ATOM      1  N   UNL     1       1.672   8.832  19.706  0.00  0.00    +0.000 NA
ATOM      2  C   UNL     1       0.510   8.826  20.613  0.00  0.00    +0.000 C 
ATOM      3  C   UNL     1       0.120  10.281  20.976  0.00  0.00    +0.000 C 
ATOM      4  N   UNL     1      -0.137  11.177  19.819  0.00  0.00    +0.000 NA
ATOM      5  C   UNL     1       1.008  11.048  18.887  0.00  0.00    +0.000 C 
ATOM      6  C   UNL     1       1.351   9.590  18.492  0.00  0.00    +0.000 C 
ENDROOT
BRANCH   1   7
ATOM      7  C   UNL     1       2.288   7.516  19.533  0.00  0.00    +0.000 C 
BRANCH   7   8
ATOM      8  C   UNL     1       2.437   7.088  18.059  0.00  0.00    +0.000 C 
BRANCH   8  18
ATOM      9  O   UNL     1       5.222   7.035  17.324  0.00  0.00    +0.000 OA
ATOM     10  C   UNL     1       4.589   6.007  17.517  0.00  0.00    +0.000 A 
ATOM     11  S   UNL     1       5.295   4.397  17.357  0.00  0.00    +0.000 S 
ATOM     12  C   UNL     1       3.767   3.630  17.809  0.00  0.00    +0.000 A 
ATOM     13  C   UNL     1       3.513   2.272  17.915  0.00  0.00    +0.000 A 
ATOM     14  C   UNL     1       2.236   1.860  18.287  0.00  0.00    +0.000 A 
ATOM     15  C   UNL     1       1.232   2.810  18.538  0.00  0.00    +0.000 A 
ATOM     16  C   UNL     1       1.498   4.179  18.421  0.00  0.00    +0.000 A 
ATOM     17  C   UNL     1       2.777   4.582  18.054  0.00  0.00    +0.000 A 
ATOM     18  N   UNL     1       3.249   5.902  17.885  0.00  0.00    +0.000 N 
ENDBRANCH   8  18
ENDBRANCH   7   8
ENDBRANCH   1   7
BRANCH   4  19
ATOM     19  C   UNL     1      -1.398  10.872  19.121  0.00  0.00    +0.000 C 
BRANCH  19  20
ATOM     20  C   UNL     1      -2.172  12.122  18.669  0.00  0.00    +0.000 C 
BRANCH  20  21
ATOM     21  N   UNL     1      -3.603  11.916  18.731  0.00  0.00    +0.000 N 
ATOM     22  C   UNL     1      -4.306  11.445  17.631  0.00  0.00    +0.000 A 
ATOM     23  O   UNL     1      -3.849  11.155  16.539  0.00  0.00    +0.000 OA
ATOM     24  S   UNL     1      -6.028  11.329  18.024  0.00  0.00    +0.000 S 
ATOM     25  C   UNL     1      -5.747  11.984  19.644  0.00  0.00    +0.000 A 
ATOM     26  C   UNL     1      -6.689  12.235  20.629  0.00  0.00    +0.000 A 
ATOM     27  C   UNL     1      -6.255  12.781  21.838  0.00  0.00    +0.000 A 
ATOM     28  C   UNL     1      -4.899  13.070  22.042  0.00  0.00    +0.000 A 
ATOM     29  C   UNL     1      -3.956  12.806  21.044  0.00  0.00    +0.000 A 
ATOM     30  C   UNL     1      -4.393  12.256  19.846  0.00  0.00    +0.000 A 
ENDBRANCH  20  21
ENDBRANCH  19  20
ENDBRANCH   4  19
TORSDOF 6
ENDMDL
MODEL 4
REMARK VINA RESULT:      -7.5      2.049      3.334
REMARK  Name = 
REMARK  6 active torsions:
REMARK  status: ('A' for Active; 'I' for Inactive)
REMARK    1  A    between atoms: N_10  and  C_11
REMARK    2  A    between atoms: C_11  and  C_12
REMARK    3  A    between atoms: C_12  and  N_13
REMARK    4  A    between atoms: N_16  and  C_17
REMARK    5  A    between atoms: C_17  and  C_18
REMARK    6  A    between atoms: C_18  and  N_19
REMARK                            x       y       z     vdW  Elec       q    Type
REMARK                         _______ _______ _______ _____ _____    ______ ____
ROOT
ATOM      1  N   UNL     1       1.653   8.341  19.900  0.00  0.00    +0.000 NA
ATOM      2  C   UNL     1       0.902   8.330  21.167  0.00  0.00    +0.000 C 
ATOM      3  C   UNL     1       1.030   9.707  21.868  0.00  0.00    +0.000 C 
ATOM      4  N   UNL     1       0.631  10.877  21.044  0.00  0.00    +0.000 NA
ATOM      5  C   UNL     1       1.327  10.768  19.739  0.00  0.00    +0.000 C 
ATOM      6  C   UNL     1       1.143   9.405  19.028  0.00  0.00    +0.000 C 
ENDROOT
BRANCH   1   7
ATOM      7  C   UNL     1       1.828   7.014  19.309  0.00  0.00    +0.000 C 
BRANCH   7   8
ATOM      8  C   UNL     1       3.143   6.321  19.720  0.00  0.00    +0.000 C 
BRANCH   8  18
ATOM      9  O   UNL     1       2.600   3.529  20.178  0.00  0.00    +0.000 OA
ATOM     10  C   UNL     1       3.200   3.912  19.185  0.00  0.00    +0.000 A 
ATOM     11  S   UNL     1       3.803   2.813  17.942  0.00  0.00    +0.000 S 
ATOM     12  C   UNL     1       4.445   4.162  16.993  0.00  0.00    +0.000 A 
ATOM     13  C   UNL     1       5.114   4.087  15.782  0.00  0.00    +0.000 A 
ATOM     14  C   UNL     1       5.545   5.269  15.186  0.00  0.00    +0.000 A 
ATOM     15  C   UNL     1       5.307   6.504  15.812  0.00  0.00    +0.000 A 
ATOM     16  C   UNL     1       4.635   6.566  17.039  0.00  0.00    +0.000 A 
ATOM     17  C   UNL     1       4.205   5.381  17.625  0.00  0.00    +0.000 A 
ATOM     18  N   UNL     1       3.513   5.227  18.846  0.00  0.00    +0.000 N 
ENDBRANCH   8  18
ENDBRANCH   7   8
ENDBRANCH   1   7
BRANCH   4  19
ATOM     19  C   UNL     1      -0.824  10.970  20.838  0.00  0.00    +0.000 C 
BRANCH  19  20
ATOM     20  C   UNL     1      -1.281  12.316  20.252  0.00  0.00    +0.000 C 
BRANCH  20  21
ATOM     21  N   UNL     1      -2.621  12.237  19.711  0.00  0.00    +0.000 N 
ATOM     22  C   UNL     1      -3.724  12.581  20.479  0.00  0.00    +0.000 A 
ATOM     23  O   UNL     1      -3.719  12.974  21.633  0.00  0.00    +0.000 OA
ATOM     24  S   UNL     1      -5.206  12.350  19.540  0.00  0.00    +0.000 S 
ATOM     25  C   UNL     1      -4.287  11.734  18.159  0.00  0.00    +0.000 A 
ATOM     26  C   UNL     1      -4.783  11.284  16.946  0.00  0.00    +0.000 A 
ATOM     27  C   UNL     1      -3.879  10.812  15.993  0.00  0.00    +0.000 A 
ATOM     28  C   UNL     1      -2.505  10.791  16.266  0.00  0.00    +0.000 A 
ATOM     29  C   UNL     1      -2.014  11.252  17.491  0.00  0.00    +0.000 A 
ATOM     30  C   UNL     1      -2.918  11.728  18.432  0.00  0.00    +0.000 A 
ENDBRANCH  20  21
ENDBRANCH  19  20
ENDBRANCH   4  19
TORSDOF 6
ENDMDL
MODEL 5
REMARK VINA RESULT:      -7.4      1.341      1.521
REMARK  Name = 
REMARK  6 active torsions:
REMARK  status: ('A' for Active; 'I' for Inactive)
REMARK    1  A    between atoms: N_10  and  C_11
REMARK    2  A    between atoms: C_11  and  C_12
REMARK    3  A    between atoms: C_12  and  N_13
REMARK    4  A    between atoms: N_16  and  C_17
REMARK    5  A    between atoms: C_17  and  C_18
REMARK    6  A    between atoms: C_18  and  N_19
REMARK                            x       y       z     vdW  Elec       q    Type
REMARK                         _______ _______ _______ _____ _____    ______ ____
ROOT
ATOM      1  N   UNL     1       1.268   9.143  20.077  0.00  0.00    +0.000 NA
ATOM      2  C   UNL     1      -0.033   9.189  20.768  0.00  0.00    +0.000 C 
ATOM      3  C   UNL     1      -0.543  10.651  20.832  0.00  0.00    +0.000 C 
ATOM      4  N   UNL     1      -0.630  11.351  19.524  0.00  0.00    +0.000 NA
ATOM      5  C   UNL     1       0.665  11.167  18.827  0.00  0.00    +0.000 C 
ATOM      6  C   UNL     1       1.133   9.694  18.724  0.00  0.00    +0.000 C 
ENDROOT
BRANCH   1   7
ATOM      7  C   UNL     1       1.960   7.862  20.215  0.00  0.00    +0.000 C 
BRANCH   7   8
ATOM      8  C   UNL     1       2.203   7.139  18.874  0.00  0.00    +0.000 C 
BRANCH   8  18
ATOM      9  O   UNL     1       4.798   6.723  17.694  0.00  0.00    +0.000 OA
ATOM     10  C   UNL     1       4.256   5.863  18.373  0.00  0.00    +0.000 A 
ATOM     11  S   UNL     1       4.985   4.288  18.693  0.00  0.00    +0.000 S 
ATOM     12  C   UNL     1       3.602   3.796  19.681  0.00  0.00    +0.000 A 
ATOM     13  C   UNL     1       3.430   2.585  20.332  0.00  0.00    +0.000 A 
ATOM     14  C   UNL     1       2.264   2.384  21.067  0.00  0.00    +0.000 A 
ATOM     15  C   UNL     1       1.288   3.392  21.133  0.00  0.00    +0.000 A 
ATOM     16  C   UNL     1       1.471   4.609  20.466  0.00  0.00    +0.000 A 
ATOM     17  C   UNL     1       2.639   4.803  19.738  0.00  0.00    +0.000 A 
ATOM     18  N   UNL     1       3.015   5.948  19.002  0.00  0.00    +0.000 N 
ENDBRANCH   8  18
ENDBRANCH   7   8
ENDBRANCH   1   7
BRANCH   4  19
ATOM     19  C   UNL     1      -1.735  10.863  18.680  0.00  0.00    +0.000 C 
BRANCH  19  20
ATOM     20  C   UNL     1      -2.610  11.986  18.098  0.00  0.00    +0.000 C 
BRANCH  20  21
ATOM     21  N   UNL     1      -4.004  11.813  18.447  0.00  0.00    +0.000 N 
ATOM     22  C   UNL     1      -4.918  11.323  17.525  0.00  0.00    +0.000 A 
ATOM     23  O   UNL     1      -4.689  10.988  16.375  0.00  0.00    +0.000 OA
ATOM     24  S   UNL     1      -6.530  11.258  18.253  0.00  0.00    +0.000 S 
ATOM     25  C   UNL     1      -5.924  11.958  19.761  0.00  0.00    +0.000 A 
ATOM     26  C   UNL     1      -6.650  12.262  20.902  0.00  0.00    +0.000 A 
ATOM     27  C   UNL     1      -5.978  12.836  21.982  0.00  0.00    +0.000 A 
ATOM     28  C   UNL     1      -4.604  13.101  21.905  0.00  0.00    +0.000 A 
ATOM     29  C   UNL     1      -3.880  12.785  20.751  0.00  0.00    +0.000 A 
ATOM     30  C   UNL     1      -4.554  12.206  19.683  0.00  0.00    +0.000 A 
ENDBRANCH  20  21
ENDBRANCH  19  20
ENDBRANCH   4  19
TORSDOF 6
ENDMDL
MODEL 6
REMARK VINA RESULT:      -7.4      1.342      2.348
REMARK  Name = 
REMARK  6 active torsions:
REMARK  status: ('A' for Active; 'I' for Inactive)
REMARK    1  A    between atoms: N_10  and  C_11
REMARK    2  A    between atoms: C_11  and  C_12
REMARK    3  A    between atoms: C_12  and  N_13
REMARK    4  A    between atoms: N_16  and  C_17
REMARK    5  A    between atoms: C_17  and  C_18
REMARK    6  A    between atoms: C_18  and  N_19
REMARK                            x       y       z     vdW  Elec       q    Type
REMARK                         _______ _______ _______ _____ _____    ______ ____
ROOT
ATOM      1  N   UNL     1       1.693   9.134  19.050  0.00  0.00    +0.000 NA
ATOM      2  C   UNL     1       1.031   8.873  20.341  0.00  0.00    +0.000 C 
ATOM      3  C   UNL     1       0.978  10.177  21.178  0.00  0.00    +0.000 C 
ATOM      4  N   UNL     1       0.347  11.340  20.502  0.00  0.00    +0.000 NA
ATOM      5  C   UNL     1       0.970  11.476  19.164  0.00  0.00    +0.000 C 
ATOM      6  C   UNL     1       0.966  10.178  18.320  0.00  0.00    +0.000 C 
ENDROOT
BRANCH   1   7
ATOM      7  C   UNL     1       2.044   7.919  18.315  0.00  0.00    +0.000 C 
BRANCH   7   8
ATOM      8  C   UNL     1       2.581   6.784  19.211  0.00  0.00    +0.000 C 
BRANCH   8  18
ATOM      9  O   UNL     1       1.258   4.238  19.463  0.00  0.00    +0.000 OA
ATOM     10  C   UNL     1       2.196   4.401  18.697  0.00  0.00    +0.000 A 
ATOM     11  S   UNL     1       2.844   3.111  17.681  0.00  0.00    +0.000 S 
ATOM     12  C   UNL     1       4.044   4.203  16.977  0.00  0.00    +0.000 A 
ATOM     13  C   UNL     1       4.997   3.893  16.020  0.00  0.00    +0.000 A 
ATOM     14  C   UNL     1       5.860   4.897  15.589  0.00  0.00    +0.000 A 
ATOM     15  C   UNL     1       5.762   6.191  16.126  0.00  0.00    +0.000 A 
ATOM     16  C   UNL     1       4.800   6.492  17.097  0.00  0.00    +0.000 A 
ATOM     17  C   UNL     1       3.940   5.484  17.519  0.00  0.00    +0.000 A 
ATOM     18  N   UNL     1       2.907   5.579  18.478  0.00  0.00    +0.000 N 
ENDBRANCH   8  18
ENDBRANCH   7   8
ENDBRANCH   1   7
BRANCH   4  19
ATOM     19  C   UNL     1      -1.114  11.208  20.370  0.00  0.00    +0.000 C 
BRANCH  19  20
ATOM     20  C   UNL     1      -1.787  12.421  19.706  0.00  0.00    +0.000 C 
BRANCH  20  21
ATOM     21  N   UNL     1      -3.036  12.059  19.071  0.00  0.00    +0.000 N 
ATOM     22  C   UNL     1      -3.063  11.572  17.771  0.00  0.00    +0.000 A 
ATOM     23  O   UNL     1      -2.106  11.391  17.037  0.00  0.00    +0.000 OA
ATOM     24  S   UNL     1      -4.734  11.251  17.285  0.00  0.00    +0.000 S 
ATOM     25  C   UNL     1      -5.345  11.847  18.835  0.00  0.00    +0.000 A 
ATOM     26  C   UNL     1      -6.667  11.944  19.240  0.00  0.00    +0.000 A 
ATOM     27  C   UNL     1      -6.936  12.470  20.505  0.00  0.00    +0.000 A 
ATOM     28  C   UNL     1      -5.890  12.892  21.336  0.00  0.00    +0.000 A 
ATOM     29  C   UNL     1      -4.559  12.784  20.919  0.00  0.00    +0.000 A 
ATOM     30  C   UNL     1      -4.298  12.253  19.663  0.00  0.00    +0.000 A 
ENDBRANCH  20  21
ENDBRANCH  19  20
ENDBRANCH   4  19
TORSDOF 6
ENDMDL
MODEL 7
REMARK VINA RESULT:      -7.4      1.620      2.021
REMARK  Name = 
REMARK  6 active torsions:
REMARK  status: ('A' for Active; 'I' for Inactive)
REMARK    1  A    between atoms: N_10  and  C_11
REMARK    2  A    between atoms: C_11  and  C_12
REMARK    3  A    between atoms: C_12  and  N_13
REMARK    4  A    between atoms: N_16  and  C_17
REMARK    5  A    between atoms: C_17  and  C_18
REMARK    6  A    between atoms: C_18  and  N_19
REMARK                            x       y       z     vdW  Elec       q    Type
REMARK                         _______ _______ _______ _____ _____    ______ ____
ROOT
ATOM      1  N   UNL     1       1.772   8.888  19.561  0.00  0.00    +0.000 NA
ATOM      2  C   UNL     1       0.924   8.999  20.762  0.00  0.00    +0.000 C 
ATOM      3  C   UNL     1       0.788  10.487  21.174  0.00  0.00    +0.000 C 
ATOM      4  N   UNL     1       0.293  11.398  20.110  0.00  0.00    +0.000 NA
ATOM      5  C   UNL     1       1.106  11.154  18.895  0.00  0.00    +0.000 C 
ATOM      6  C   UNL     1       1.187   9.668  18.466  0.00  0.00    +0.000 C 
ENDROOT
BRANCH   1   7
ATOM      7  C   UNL     1       2.191   7.519  19.263  0.00  0.00    +0.000 C 
BRANCH   7   8
ATOM      8  C   UNL     1       2.849   7.359  17.877  0.00  0.00    +0.000 C 
BRANCH   8  18
ATOM      9  O   UNL     1       5.661   7.137  17.294  0.00  0.00    +0.000 OA
ATOM     10  C   UNL     1       4.956   6.150  17.441  0.00  0.00    +0.000 A 
ATOM     11  S   UNL     1       5.569   4.500  17.304  0.00  0.00    +0.000 S 
ATOM     12  C   UNL     1       3.974   3.826  17.664  0.00  0.00    +0.000 A 
ATOM     13  C   UNL     1       3.632   2.486  17.743  0.00  0.00    +0.000 A 
ATOM     14  C   UNL     1       2.313   2.151  18.040  0.00  0.00    +0.000 A 
ATOM     15  C   UNL     1       1.357   3.160  18.247  0.00  0.00    +0.000 A 
ATOM     16  C   UNL     1       1.714   4.511  18.159  0.00  0.00    +0.000 A 
ATOM     17  C   UNL     1       3.033   4.836  17.865  0.00  0.00    +0.000 A 
ATOM     18  N   UNL     1       3.594   6.126  17.735  0.00  0.00    +0.000 N 
ENDBRANCH   8  18
ENDBRANCH   7   8
ENDBRANCH   1   7
BRANCH   4  19
ATOM     19  C   UNL     1      -1.137  11.213  19.810  0.00  0.00    +0.000 C 
BRANCH  19  20
ATOM     20  C   UNL     1      -1.868  12.518  19.455  0.00  0.00    +0.000 C 
BRANCH  20  21
ATOM     21  N   UNL     1      -3.196  12.561  20.030  0.00  0.00    +0.000 N 
ATOM     22  C   UNL     1      -3.392  12.944  21.349  0.00  0.00    +0.000 A 
ATOM     23  O   UNL     1      -2.535  13.279  22.150  0.00  0.00    +0.000 OA
ATOM     24  S   UNL     1      -5.115  12.866  21.748  0.00  0.00    +0.000 S 
ATOM     25  C   UNL     1      -5.505  12.256  20.133  0.00  0.00    +0.000 A 
ATOM     26  C   UNL     1      -6.752  11.904  19.641  0.00  0.00    +0.000 A 
ATOM     27  C   UNL     1      -6.837  11.416  18.336  0.00  0.00    +0.000 A 
ATOM     28  C   UNL     1      -5.684  11.284  17.550  0.00  0.00    +0.000 A 
ATOM     29  C   UNL     1      -4.432  11.648  18.054  0.00  0.00    +0.000 A 
ATOM     30  C   UNL     1      -4.355  12.140  19.351  0.00  0.00    +0.000 A 
ENDBRANCH  20  21
ENDBRANCH  19  20
ENDBRANCH   4  19
TORSDOF 6
ENDMDL
MODEL 8
REMARK VINA RESULT:      -7.4      1.702      2.779
REMARK  Name = 
REMARK  6 active torsions:
REMARK  status: ('A' for Active; 'I' for Inactive)
REMARK    1  A    between atoms: N_10  and  C_11
REMARK    2  A    between atoms: C_11  and  C_12
REMARK    3  A    between atoms: C_12  and  N_13
REMARK    4  A    between atoms: N_16  and  C_17
REMARK    5  A    between atoms: C_17  and  C_18
REMARK    6  A    between atoms: C_18  and  N_19
REMARK                            x       y       z     vdW  Elec       q    Type
REMARK                         _______ _______ _______ _____ _____    ______ ____
ROOT
ATOM      1  N   UNL     1       1.946   7.814  19.731  0.00  0.00    +0.000 NA
ATOM      2  C   UNL     1       0.952   8.482  20.591  0.00  0.00    +0.000 C 
ATOM      3  C   UNL     1       1.071  10.019  20.436  0.00  0.00    +0.000 C 
ATOM      4  N   UNL     1       0.969  10.526  19.043  0.00  0.00    +0.000 NA
ATOM      5  C   UNL     1       1.904   9.736  18.207  0.00  0.00    +0.000 C 
ATOM      6  C   UNL     1       1.735   8.202  18.333  0.00  0.00    +0.000 C 
ENDROOT
BRANCH   1   7
ATOM      7  C   UNL     1       2.106   6.388  20.017  0.00  0.00    +0.000 C 
BRANCH   7   8
ATOM      8  C   UNL     1       3.568   5.902  19.955  0.00  0.00    +0.000 C 
BRANCH   8  18
ATOM      9  O   UNL     1       2.939   3.096  20.123  0.00  0.00    +0.000 OA
ATOM     10  C   UNL     1       3.460   3.579  19.128  0.00  0.00    +0.000 A 
ATOM     11  S   UNL     1       3.891   2.624  17.708  0.00  0.00    +0.000 S 
ATOM     12  C   UNL     1       4.503   4.057  16.870  0.00  0.00    +0.000 A 
ATOM     13  C   UNL     1       5.051   4.112  15.599  0.00  0.00    +0.000 A 
ATOM     14  C   UNL     1       5.479   5.343  15.110  0.00  0.00    +0.000 A 
ATOM     15  C   UNL     1       5.360   6.498  15.902  0.00  0.00    +0.000 A 
ATOM     16  C   UNL     1       4.810   6.429  17.188  0.00  0.00    +0.000 A 
ATOM     17  C   UNL     1       4.382   5.196  17.666  0.00  0.00    +0.000 A 
ATOM     18  N   UNL     1       3.801   4.914  18.923  0.00  0.00    +0.000 N 
ENDBRANCH   8  18
ENDBRANCH   7   8
ENDBRANCH   1   7
BRANCH   4  19
ATOM     19  C   UNL     1      -0.396  10.444  18.497  0.00  0.00    +0.000 C 
BRANCH  19  20
ATOM     20  C   UNL     1      -1.031  11.815  18.210  0.00  0.00    +0.000 C 
BRANCH  20  21
ATOM     21  N   UNL     1      -2.475  11.735  18.156  0.00  0.00    +0.000 N 
ATOM     22  C   UNL     1      -3.128  11.369  16.988  0.00  0.00    +0.000 A 
ATOM     23  O   UNL     1      -2.614  11.081  15.921  0.00  0.00    +0.000 OA
ATOM     24  S   UNL     1      -4.879  11.393  17.246  0.00  0.00    +0.000 S 
ATOM     25  C   UNL     1      -4.670  11.960  18.910  0.00  0.00    +0.000 A 
ATOM     26  C   UNL     1      -5.660  12.258  19.832  0.00  0.00    +0.000 A 
ATOM     27  C   UNL     1      -5.277  12.719  21.092  0.00  0.00    +0.000 A 
ATOM     28  C   UNL     1      -3.921  12.877  21.409  0.00  0.00    +0.000 A 
ATOM     29  C   UNL     1      -2.929  12.568  20.473  0.00  0.00    +0.000 A 
ATOM     30  C   UNL     1      -3.318  12.103  19.223  0.00  0.00    +0.000 A 
ENDBRANCH  20  21
ENDBRANCH  19  20
ENDBRANCH   4  19
TORSDOF 6
ENDMDL
MODEL 9
REMARK VINA RESULT:      -7.3      1.993      3.130
REMARK  Name = 
REMARK  6 active torsions:
REMARK  status: ('A' for Active; 'I' for Inactive)
REMARK    1  A    between atoms: N_10  and  C_11
REMARK    2  A    between atoms: C_11  and  C_12
REMARK    3  A    between atoms: C_12  and  N_13
REMARK    4  A    between atoms: N_16  and  C_17
REMARK    5  A    between atoms: C_17  and  C_18
REMARK    6  A    between atoms: C_18  and  N_19
REMARK                            x       y       z     vdW  Elec       q    Type
REMARK                         _______ _______ _______ _____ _____    ______ ____
ROOT
ATOM      1  N   UNL     1       1.765   8.698  19.728  0.00  0.00    +0.000 NA
ATOM      2  C   UNL     1       0.715   8.806  20.756  0.00  0.00    +0.000 C 
ATOM      3  C   UNL     1       0.493  10.295  21.127  0.00  0.00    +0.000 C 
ATOM      4  N   UNL     1       0.189  11.195  19.985  0.00  0.00    +0.000 NA
ATOM      5  C   UNL     1       1.209  10.953  18.936  0.00  0.00    +0.000 C 
ATOM      6  C   UNL     1       1.379   9.466  18.539  0.00  0.00    +0.000 C 
ENDROOT
BRANCH   1   7
ATOM      7  C   UNL     1       2.243   7.331  19.519  0.00  0.00    +0.000 C 
BRANCH   7   8
ATOM      8  C   UNL     1       2.328   6.923  18.034  0.00  0.00    +0.000 C 
BRANCH   8  18
ATOM      9  O   UNL     1       1.422   4.188  18.063  0.00  0.00    +0.000 OA
ATOM     10  C   UNL     1       2.593   4.475  17.857  0.00  0.00    +0.000 A 
ATOM     11  S   UNL     1       3.844   3.264  17.569  0.00  0.00    +0.000 S 
ATOM     12  C   UNL     1       5.078   4.517  17.372  0.00  0.00    +0.000 A 
ATOM     13  C   UNL     1       6.423   4.328  17.101  0.00  0.00    +0.000 A 
ATOM     14  C   UNL     1       7.242   5.448  16.981  0.00  0.00    +0.000 A 
ATOM     15  C   UNL     1       6.704   6.737  17.140  0.00  0.00    +0.000 A 
ATOM     16  C   UNL     1       5.344   6.914  17.419  0.00  0.00    +0.000 A 
ATOM     17  C   UNL     1       4.533   5.790  17.534  0.00  0.00    +0.000 A 
ATOM     18  N   UNL     1       3.148   5.752  17.806  0.00  0.00    +0.000 N 
ENDBRANCH   8  18
ENDBRANCH   7   8
ENDBRANCH   1   7
BRANCH   4  19
ATOM     19  C   UNL     1      -1.162  10.994  19.435  0.00  0.00    +0.000 C 
BRANCH  19  20
ATOM     20  C   UNL     1      -1.890  12.304  19.088  0.00  0.00    +0.000 C 
BRANCH  20  21
ATOM     21  N   UNL     1      -3.102  12.464  19.862  0.00  0.00    +0.000 N 
ATOM     22  C   UNL     1      -3.058  12.906  21.177  0.00  0.00    +0.000 A 
ATOM     23  O   UNL     1      -2.064  13.204  21.817  0.00  0.00    +0.000 OA
ATOM     24  S   UNL     1      -4.696  12.967  21.845  0.00  0.00    +0.000 S 
ATOM     25  C   UNL     1      -5.380  12.331  20.342  0.00  0.00    +0.000 A 
ATOM     26  C   UNL     1      -6.710  12.054  20.069  0.00  0.00    +0.000 A 
ATOM     27  C   UNL     1      -7.035  11.529  18.818  0.00  0.00    +0.000 A 
ATOM     28  C   UNL     1      -6.035  11.286  17.867  0.00  0.00    +0.000 A 
ATOM     29  C   UNL     1      -4.697  11.574  18.150  0.00  0.00    +0.000 A 
ATOM     30  C   UNL     1      -4.381  12.104  19.395  0.00  0.00    +0.000 A 
ENDBRANCH  20  21
ENDBRANCH  19  20
ENDBRANCH   4  19
TORSDOF 6
ENDMDL
