MODEL 1
REMARK VINA RESULT:      -8.2      0.000      0.000
REMARK  Name = 
REMARK  5 active torsions:
REMARK  status: ('A' for Active; 'I' for Inactive)
REMARK    1  A    between atoms: N_11  and  C_12
REMARK    2  A    between atoms: C_12  and  C_13
REMARK    3  A    between atoms: C_13  and  C_14
REMARK    4  A    between atoms: C_14  and  C_15
REMARK    5  A    between atoms: C_17  and  C_18
REMARK                            x       y       z     vdW  Elec       q    Type
REMARK                         _______ _______ _______ _____ _____    ______ ____
ROOT
ATOM      1  C   UNL     1       5.116   5.918  16.482  0.00  0.00    +0.000 C 
ENDROOT
BRANCH   1   2
ATOM      2  C   UNL     1       4.683   6.575  17.796  0.00  0.00    +0.000 C 
BRANCH   2  13
ATOM      3  O   UNL     1       1.861   6.692  18.686  0.00  0.00    +0.000 OA
ATOM      4  C   UNL     1       2.633   5.800  18.980  0.00  0.00    +0.000 C 
ATOM      5  C   UNL     1       2.278   4.640  19.794  0.00  0.00    +0.000 A 
ATOM      6  C   UNL     1       1.066   4.272  20.347  0.00  0.00    +0.000 A 
ATOM      7  C   UNL     1       1.031   3.073  21.068  0.00  0.00    +0.000 A 
ATOM      8  C   UNL     1       2.191   2.284  21.218  0.00  0.00    +0.000 A 
ATOM      9  C   UNL     1       3.406   2.679  20.646  0.00  0.00    +0.000 A 
ATOM     10  C   UNL     1       3.415   3.865  19.938  0.00  0.00    +0.000 A 
ATOM     11  C   UNL     1       4.495   4.530  19.209  0.00  0.00    +0.000 C 
ATOM     12  O   UNL     1       5.637   4.112  19.141  0.00  0.00    +0.000 OA
ATOM     13  N   UNL     1       3.956   5.657  18.654  0.00  0.00    +0.000 N 
ENDBRANCH   2  13
ENDBRANCH   1   2
BRANCH   1  14
ATOM     14  C   UNL     1       6.636   5.846  16.325  0.00  0.00    +0.000 C 
BRANCH  14  15
ATOM     15  C   UNL     1       7.347   6.806  17.202  0.00  0.00    +0.000 A 
ATOM     16  N   UNL     1       7.508   8.099  17.057  0.00  0.00    +0.000 NA
ATOM     17  C   UNL     1       8.238   8.436  18.179  0.00  0.00    +0.000 A 
ATOM     18  N   UNL     1       8.512   7.391  18.979  0.00  0.00    +0.000 NA
ATOM     19  O   UNL     1       7.918   6.310  18.334  0.00  0.00    +0.000 OA
BRANCH  17  20
ATOM     20  C   UNL     1       8.679   9.803  18.441  0.00  0.00    +0.000 A 
ATOM     21  C   UNL     1       8.337  10.842  17.562  0.00  0.00    +0.000 A 
ATOM     22  C   UNL     1       8.776  12.148  17.797  0.00  0.00    +0.000 A 
ATOM     23  C   UNL     1       9.559  12.430  18.915  0.00  0.00    +0.000 A 
ATOM     24  C   UNL     1       9.901  11.410  19.800  0.00  0.00    +0.000 A 
ATOM     25  C   UNL     1       9.462  10.104  19.566  0.00  0.00    +0.000 A 
ENDBRANCH  17  20
ENDBRANCH  14  15
ENDBRANCH   1  14
TORSDOF 5
ENDMDL
MODEL 2
REMARK VINA RESULT:      -8.1      4.027      6.971
REMARK  Name = 
REMARK  5 active torsions:
REMARK  status: ('A' for Active; 'I' for Inactive)
REMARK    1  A    between atoms: N_11  and  C_12
REMARK    2  A    between atoms: C_12  and  C_13
REMARK    3  A    between atoms: C_13  and  C_14
REMARK    4  A    between atoms: C_14  and  C_15
REMARK    5  A    between atoms: C_17  and  C_18
REMARK                            x       y       z     vdW  Elec       q    Type
REMARK                         _______ _______ _______ _____ _____    ______ ____
ROOT
ATOM      1  C   UNL     1       2.607   5.219  20.163  0.00  0.00    +0.000 C 
ENDROOT
BRANCH   1   2
ATOM      2  C   UNL     1       3.344   3.916  19.840  0.00  0.00    +0.000 C 
BRANCH   2  13
ATOM      3  O   UNL     1       2.771   3.343  16.992  0.00  0.00    +0.000 OA
ATOM      4  C   UNL     1       3.830   3.778  17.401  0.00  0.00    +0.000 C 
ATOM      5  C   UNL     1       4.969   4.108  16.548  0.00  0.00    +0.000 A 
ATOM      6  C   UNL     1       5.101   4.058  15.173  0.00  0.00    +0.000 A 
ATOM      7  C   UNL     1       6.326   4.465  14.634  0.00  0.00    +0.000 A 
ATOM      8  C   UNL     1       7.375   4.905  15.470  0.00  0.00    +0.000 A 
ATOM      9  C   UNL     1       7.214   4.948  16.859  0.00  0.00    +0.000 A 
ATOM     10  C   UNL     1       5.995   4.542  17.367  0.00  0.00    +0.000 A 
ATOM     11  C   UNL     1       5.508   4.494  18.746  0.00  0.00    +0.000 C 
ATOM     12  O   UNL     1       6.168   4.806  19.720  0.00  0.00    +0.000 OA
ATOM     13  N   UNL     1       4.215   4.051  18.688  0.00  0.00    +0.000 N 
ENDBRANCH   2  13
ENDBRANCH   1   2
BRANCH   1  14
ATOM     14  C   UNL     1       2.919   6.342  19.171  0.00  0.00    +0.000 C 
BRANCH  14  15
ATOM     15  C   UNL     1       2.145   7.575  19.441  0.00  0.00    +0.000 A 
ATOM     16  N   UNL     1       1.579   7.972  20.556  0.00  0.00    +0.000 NA
ATOM     17  C   UNL     1       1.024   9.183  20.194  0.00  0.00    +0.000 A 
ATOM     18  N   UNL     1       1.242   9.515  18.909  0.00  0.00    +0.000 NA
ATOM     19  O   UNL     1       1.989   8.451  18.411  0.00  0.00    +0.000 OA
BRANCH  17  20
ATOM     20  C   UNL     1       0.256  10.000  21.129  0.00  0.00    +0.000 A 
ATOM     21  C   UNL     1      -0.147   9.475  22.367  0.00  0.00    +0.000 A 
ATOM     22  C   UNL     1      -0.900  10.247  23.256  0.00  0.00    +0.000 A 
ATOM     23  C   UNL     1      -1.258  11.551  22.918  0.00  0.00    +0.000 A 
ATOM     24  C   UNL     1      -0.861  12.086  21.695  0.00  0.00    +0.000 A 
ATOM     25  C   UNL     1      -0.106  11.316  20.807  0.00  0.00    +0.000 A 
ENDBRANCH  17  20
ENDBRANCH  14  15
ENDBRANCH   1  14
TORSDOF 5
ENDMDL
MODEL 3
REMARK VINA RESULT:      -8.0      1.570      2.272
REMARK  Name = 
REMARK  5 active torsions:
REMARK  status: ('A' for Active; 'I' for Inactive)
REMARK    1  A    between atoms: N_11  and  C_12
REMARK    2  A    between atoms: C_12  and  C_13
REMARK    3  A    between atoms: C_13  and  C_14
REMARK    4  A    between atoms: C_14  and  C_15
REMARK    5  A    between atoms: C_17  and  C_18
REMARK                            x       y       z     vdW  Elec       q    Type
REMARK                         _______ _______ _______ _____ _____    ______ ____
ROOT
ATOM      1  C   UNL     1       6.188   5.660  17.111  0.00  0.00    +0.000 C 
ENDROOT
BRANCH   1   2
ATOM      2  C   UNL     1       5.828   4.172  17.076  0.00  0.00    +0.000 C 
BRANCH   2  13
ATOM      3  O   UNL     1       5.627   3.811  20.008  0.00  0.00    +0.000 OA
ATOM      4  C   UNL     1       4.681   3.752  19.246  0.00  0.00    +0.000 C 
ATOM      5  C   UNL     1       3.300   3.519  19.665  0.00  0.00    +0.000 A 
ATOM      6  C   UNL     1       2.762   3.369  20.929  0.00  0.00    +0.000 A 
ATOM      7  C   UNL     1       1.378   3.180  21.015  0.00  0.00    +0.000 A 
ATOM      8  C   UNL     1       0.579   3.144  19.853  0.00  0.00    +0.000 A 
ATOM      9  C   UNL     1       1.149   3.300  18.585  0.00  0.00    +0.000 A 
ATOM     10  C   UNL     1       2.517   3.487  18.526  0.00  0.00    +0.000 A 
ATOM     11  C   UNL     1       3.398   3.705  17.379  0.00  0.00    +0.000 C 
ATOM     12  O   UNL     1       3.025   3.729  16.220  0.00  0.00    +0.000 OA
ATOM     13  N   UNL     1       4.659   3.872  17.882  0.00  0.00    +0.000 N 
ENDBRANCH   2  13
ENDBRANCH   1   2
BRANCH   1  14
ATOM     14  C   UNL     1       7.341   5.972  18.067  0.00  0.00    +0.000 C 
BRANCH  14  15
ATOM     15  C   UNL     1       7.736   7.399  18.042  0.00  0.00    +0.000 A 
ATOM     16  N   UNL     1       8.613   8.030  18.784  0.00  0.00    +0.000 NA
ATOM     17  C   UNL     1       8.546   9.319  18.295  0.00  0.00    +0.000 A 
ATOM     18  N   UNL     1       7.664   9.471  17.291  0.00  0.00    +0.000 NA
ATOM     19  O   UNL     1       7.129   8.197  17.121  0.00  0.00    +0.000 OA
BRANCH  17  20
ATOM     20  C   UNL     1       9.351  10.406  18.844  0.00  0.00    +0.000 A 
ATOM     21  C   UNL     1      10.136  11.207  18.000  0.00  0.00    +0.000 A 
ATOM     22  C   UNL     1      10.925  12.234  18.524  0.00  0.00    +0.000 A 
ATOM     23  C   UNL     1      10.937  12.473  19.897  0.00  0.00    +0.000 A 
ATOM     24  C   UNL     1      10.159  11.690  20.747  0.00  0.00    +0.000 A 
ATOM     25  C   UNL     1       9.369  10.664  20.223  0.00  0.00    +0.000 A 
ENDBRANCH  17  20
ENDBRANCH  14  15
ENDBRANCH   1  14
TORSDOF 5
ENDMDL
MODEL 4
REMARK VINA RESULT:      -7.9      1.645      2.787
REMARK  Name = 
REMARK  5 active torsions:
REMARK  status: ('A' for Active; 'I' for Inactive)
REMARK    1  A    between atoms: N_11  and  C_12
REMARK    2  A    between atoms: C_12  and  C_13
REMARK    3  A    between atoms: C_13  and  C_14
REMARK    4  A    between atoms: C_14  and  C_15
REMARK    5  A    between atoms: C_17  and  C_18
REMARK                            x       y       z     vdW  Elec       q    Type
REMARK                         _______ _______ _______ _____ _____    ______ ____
ROOT
ATOM      1  C   UNL     1       7.245   5.075  16.731  0.00  0.00    +0.000 C 
ENDROOT
BRANCH   1   2
ATOM      2  C   UNL     1       5.866   4.468  16.457  0.00  0.00    +0.000 C 
BRANCH   2  13
ATOM      3  O   UNL     1       4.723   3.241  18.898  0.00  0.00    +0.000 OA
ATOM      4  C   UNL     1       4.414   4.339  18.476  0.00  0.00    +0.000 C 
ATOM      5  C   UNL     1       3.451   5.228  19.123  0.00  0.00    +0.000 A 
ATOM      6  C   UNL     1       2.747   5.077  20.303  0.00  0.00    +0.000 A 
ATOM      7  C   UNL     1       1.904   6.127  20.682  0.00  0.00    +0.000 A 
ATOM      8  C   UNL     1       1.786   7.285  19.883  0.00  0.00    +0.000 A 
ATOM      9  C   UNL     1       2.511   7.413  18.694  0.00  0.00    +0.000 A 
ATOM     10  C   UNL     1       3.338   6.364  18.342  0.00  0.00    +0.000 A 
ATOM     11  C   UNL     1       4.234   6.201  17.197  0.00  0.00    +0.000 C 
ATOM     12  O   UNL     1       4.369   7.022  16.308  0.00  0.00    +0.000 OA
ATOM     13  N   UNL     1       4.850   4.990  17.352  0.00  0.00    +0.000 N 
ENDBRANCH   2  13
ENDBRANCH   1   2
BRANCH   1  14
ATOM     14  C   UNL     1       7.349   5.715  18.117  0.00  0.00    +0.000 C 
BRANCH  14  15
ATOM     15  C   UNL     1       7.725   7.146  18.060  0.00  0.00    +0.000 A 
ATOM     16  N   UNL     1       8.577   7.811  18.804  0.00  0.00    +0.000 NA
ATOM     17  C   UNL     1       8.504   9.084  18.276  0.00  0.00    +0.000 A 
ATOM     18  N   UNL     1       7.643   9.195  17.249  0.00  0.00    +0.000 NA
ATOM     19  O   UNL     1       7.129   7.909  17.102  0.00  0.00    +0.000 OA
BRANCH  17  20
ATOM     20  C   UNL     1       9.282  10.197  18.812  0.00  0.00    +0.000 A 
ATOM     21  C   UNL     1       9.264  10.479  20.187  0.00  0.00    +0.000 A 
ATOM     22  C   UNL     1       9.990  11.557  20.702  0.00  0.00    +0.000 A 
ATOM     23  C   UNL     1      10.743  12.362  19.849  0.00  0.00    +0.000 A 
ATOM     24  C   UNL     1      10.774  12.090  18.483  0.00  0.00    +0.000 A 
ATOM     25  C   UNL     1      10.050  11.013  17.968  0.00  0.00    +0.000 A 
ENDBRANCH  17  20
ENDBRANCH  14  15
ENDBRANCH   1  14
TORSDOF 5
ENDMDL
MODEL 5
REMARK VINA RESULT:      -7.9      3.829      5.410
REMARK  Name = 
REMARK  5 active torsions:
REMARK  status: ('A' for Active; 'I' for Inactive)
REMARK    1  A    between atoms: N_11  and  C_12
REMARK    2  A    between atoms: C_12  and  C_13
REMARK    3  A    between atoms: C_13  and  C_14
REMARK    4  A    between atoms: C_14  and  C_15
REMARK    5  A    between atoms: C_17  and  C_18
REMARK                            x       y       z     vdW  Elec       q    Type
REMARK                         _______ _______ _______ _____ _____    ______ ____
ROOT
ATOM      1  C   UNL     1       4.816   5.235  16.035  0.00  0.00    +0.000 C 
ENDROOT
BRANCH   1   2
ATOM      2  C   UNL     1       4.979   3.816  16.586  0.00  0.00    +0.000 C 
BRANCH   2  13
ATOM      3  O   UNL     1       5.606   3.586  19.471  0.00  0.00    +0.000 OA
ATOM      4  C   UNL     1       4.486   3.495  19.006  0.00  0.00    +0.000 C 
ATOM      5  C   UNL     1       3.279   3.284  19.803  0.00  0.00    +0.000 A 
ATOM      6  C   UNL     1       3.116   3.191  21.172  0.00  0.00    +0.000 A 
ATOM      7  C   UNL     1       1.813   3.009  21.649  0.00  0.00    +0.000 A 
ATOM      8  C   UNL     1       0.722   2.922  20.758  0.00  0.00    +0.000 A 
ATOM      9  C   UNL     1       0.915   3.021  19.376  0.00  0.00    +0.000 A 
ATOM     10  C   UNL     1       2.210   3.203  18.930  0.00  0.00    +0.000 A 
ATOM     11  C   UNL     1       2.735   3.368  17.574  0.00  0.00    +0.000 C 
ATOM     12  O   UNL     1       2.054   3.340  16.566  0.00  0.00    +0.000 OA
ATOM     13  N   UNL     1       4.084   3.554  17.698  0.00  0.00    +0.000 N 
ENDBRANCH   2  13
ENDBRANCH   1   2
BRANCH   1  14
ATOM     14  C   UNL     1       5.209   6.315  17.045  0.00  0.00    +0.000 C 
BRANCH  14  15
ATOM     15  C   UNL     1       4.052   7.119  17.502  0.00  0.00    +0.000 A 
ATOM     16  N   UNL     1       3.469   7.140  18.677  0.00  0.00    +0.000 NA
ATOM     17  C   UNL     1       2.472   8.077  18.498  0.00  0.00    +0.000 A 
ATOM     18  N   UNL     1       2.445   8.610  17.264  0.00  0.00    +0.000 NA
ATOM     19  O   UNL     1       3.496   7.977  16.604  0.00  0.00    +0.000 OA
BRANCH  17  20
ATOM     20  C   UNL     1       1.530   8.426  19.558  0.00  0.00    +0.000 A 
ATOM     21  C   UNL     1       0.700   9.551  19.429  0.00  0.00    +0.000 A 
ATOM     22  C   UNL     1      -0.188   9.901  20.450  0.00  0.00    +0.000 A 
ATOM     23  C   UNL     1      -0.257   9.131  21.610  0.00  0.00    +0.000 A 
ATOM     24  C   UNL     1       0.557   8.009  21.749  0.00  0.00    +0.000 A 
ATOM     25  C   UNL     1       1.444   7.657  20.728  0.00  0.00    +0.000 A 
ENDBRANCH  17  20
ENDBRANCH  14  15
ENDBRANCH   1  14
TORSDOF 5
ENDMDL
MODEL 6
REMARK VINA RESULT:      -7.9      1.175      1.551
REMARK  Name = 
REMARK  5 active torsions:
REMARK  status: ('A' for Active; 'I' for Inactive)
REMARK    1  A    between atoms: N_11  and  C_12
REMARK    2  A    between atoms: C_12  and  C_13
REMARK    3  A    between atoms: C_13  and  C_14
REMARK    4  A    between atoms: C_14  and  C_15
REMARK    5  A    between atoms: C_17  and  C_18
REMARK                            x       y       z     vdW  Elec       q    Type
REMARK                         _______ _______ _______ _____ _____    ______ ____
ROOT
ATOM      1  C   UNL     1       5.280   6.067  15.955  0.00  0.00    +0.000 C 
ENDROOT
BRANCH   1   2
ATOM      2  C   UNL     1       4.504   6.645  17.142  0.00  0.00    +0.000 C 
BRANCH   2  13
ATOM      3  O   UNL     1       2.811   6.911  19.557  0.00  0.00    +0.000 OA
ATOM      4  C   UNL     1       2.897   5.897  18.892  0.00  0.00    +0.000 C 
ATOM      5  C   UNL     1       2.160   4.666  19.169  0.00  0.00    +0.000 A 
ATOM      6  C   UNL     1       1.223   4.385  20.144  0.00  0.00    +0.000 A 
ATOM      7  C   UNL     1       0.664   3.102  20.143  0.00  0.00    +0.000 A 
ATOM      8  C   UNL     1       1.051   2.146  19.181  0.00  0.00    +0.000 A 
ATOM      9  C   UNL     1       2.002   2.457  18.202  0.00  0.00    +0.000 A 
ATOM     10  C   UNL     1       2.538   3.730  18.223  0.00  0.00    +0.000 A 
ATOM     11  C   UNL     1       3.514   4.366  17.339  0.00  0.00    +0.000 C 
ATOM     12  O   UNL     1       4.054   3.812  16.400  0.00  0.00    +0.000 OA
ATOM     13  N   UNL     1       3.664   5.651  17.783  0.00  0.00    +0.000 N 
ENDBRANCH   2  13
ENDBRANCH   1   2
BRANCH   1  14
ATOM     14  C   UNL     1       6.719   5.689  16.312  0.00  0.00    +0.000 C 
BRANCH  14  15
ATOM     15  C   UNL     1       7.372   6.687  17.190  0.00  0.00    +0.000 A 
ATOM     16  N   UNL     1       7.548   7.973  16.996  0.00  0.00    +0.000 NA
ATOM     17  C   UNL     1       8.200   8.361  18.150  0.00  0.00    +0.000 A 
ATOM     18  N   UNL     1       8.413   7.354  19.015  0.00  0.00    +0.000 NA
ATOM     19  O   UNL     1       7.861   6.245  18.381  0.00  0.00    +0.000 OA
BRANCH  17  20
ATOM     20  C   UNL     1       8.629   9.738  18.378  0.00  0.00    +0.000 A 
ATOM     21  C   UNL     1       9.455  10.054  19.467  0.00  0.00    +0.000 A 
ATOM     22  C   UNL     1       9.850  11.374  19.702  0.00  0.00    +0.000 A 
ATOM     23  C   UNL     1       9.425  12.392  18.849  0.00  0.00    +0.000 A 
ATOM     24  C   UNL     1       8.609  12.092  17.760  0.00  0.00    +0.000 A 
ATOM     25  C   UNL     1       8.215  10.772  17.525  0.00  0.00    +0.000 A 
ENDBRANCH  17  20
ENDBRANCH  14  15
ENDBRANCH   1  14
TORSDOF 5
ENDMDL
MODEL 7
REMARK VINA RESULT:      -7.9      2.338      3.388
REMARK  Name = 
REMARK  5 active torsions:
REMARK  status: ('A' for Active; 'I' for Inactive)
REMARK    1  A    between atoms: N_11  and  C_12
REMARK    2  A    between atoms: C_12  and  C_13
REMARK    3  A    between atoms: C_13  and  C_14
REMARK    4  A    between atoms: C_14  and  C_15
REMARK    5  A    between atoms: C_17  and  C_18
REMARK                            x       y       z     vdW  Elec       q    Type
REMARK                         _______ _______ _______ _____ _____    ______ ____
ROOT
ATOM      1  C   UNL     1       7.700   8.153  17.569  0.00  0.00    +0.000 C 
ENDROOT
BRANCH   1   2
ATOM      2  C   UNL     1       7.466   6.671  17.258  0.00  0.00    +0.000 C 
BRANCH   2  13
ATOM      3  O   UNL     1       4.764   6.856  16.060  0.00  0.00    +0.000 OA
ATOM      4  C   UNL     1       5.004   6.316  17.122  0.00  0.00    +0.000 C 
ATOM      5  C   UNL     1       4.002   5.654  17.955  0.00  0.00    +0.000 A 
ATOM      6  C   UNL     1       2.652   5.452  17.738  0.00  0.00    +0.000 A 
ATOM      7  C   UNL     1       1.945   4.752  18.722  0.00  0.00    +0.000 A 
ATOM      8  C   UNL     1       2.596   4.279  19.882  0.00  0.00    +0.000 A 
ATOM      9  C   UNL     1       3.964   4.496  20.076  0.00  0.00    +0.000 A 
ATOM     10  C   UNL     1       4.640   5.188  19.090  0.00  0.00    +0.000 A 
ATOM     11  C   UNL     1       6.054   5.549  18.979  0.00  0.00    +0.000 C 
ATOM     12  O   UNL     1       6.896   5.291  19.819  0.00  0.00    +0.000 OA
ATOM     13  N   UNL     1       6.199   6.196  17.783  0.00  0.00    +0.000 N 
ENDBRANCH   2  13
ENDBRANCH   1   2
BRANCH   1  14
ATOM     14  C   UNL     1       8.592   8.371  18.793  0.00  0.00    +0.000 C 
BRANCH  14  15
ATOM     15  C   UNL     1       9.033   9.778  18.936  0.00  0.00    +0.000 A 
ATOM     16  N   UNL     1       9.382  10.636  18.008  0.00  0.00    +0.000 NA
ATOM     17  C   UNL     1       9.679  11.766  18.743  0.00  0.00    +0.000 A 
ATOM     18  N   UNL     1       9.517  11.606  20.068  0.00  0.00    +0.000 NA
ATOM     19  O   UNL     1       9.085  10.289  20.196  0.00  0.00    +0.000 OA
BRANCH  17  20
ATOM     20  C   UNL     1      10.144  13.002  18.120  0.00  0.00    +0.000 A 
ATOM     21  C   UNL     1      11.131  12.968  17.123  0.00  0.00    +0.000 A 
ATOM     22  C   UNL     1      11.594  14.151  16.540  0.00  0.00    +0.000 A 
ATOM     23  C   UNL     1      11.076  15.379  16.946  0.00  0.00    +0.000 A 
ATOM     24  C   UNL     1      10.092  15.428  17.931  0.00  0.00    +0.000 A 
ATOM     25  C   UNL     1       9.627  14.246  18.513  0.00  0.00    +0.000 A 
ENDBRANCH  17  20
ENDBRANCH  14  15
ENDBRANCH   1  14
TORSDOF 5
ENDMDL
MODEL 8
REMARK VINA RESULT:      -7.9      1.297      2.332
REMARK  Name = 
REMARK  5 active torsions:
REMARK  status: ('A' for Active; 'I' for Inactive)
REMARK    1  A    between atoms: N_11  and  C_12
REMARK    2  A    between atoms: C_12  and  C_13
REMARK    3  A    between atoms: C_13  and  C_14
REMARK    4  A    between atoms: C_14  and  C_15
REMARK    5  A    between atoms: C_17  and  C_18
REMARK                            x       y       z     vdW  Elec       q    Type
REMARK                         _______ _______ _______ _____ _____    ______ ____
ROOT
ATOM      1  C   UNL     1       6.990   4.523  17.088  0.00  0.00    +0.000 C 
ENDROOT
BRANCH   1   2
ATOM      2  C   UNL     1       5.643   4.970  16.509  0.00  0.00    +0.000 C 
BRANCH   2  13
ATOM      3  O   UNL     1       4.390   2.378  17.203  0.00  0.00    +0.000 OA
ATOM      4  C   UNL     1       4.059   3.446  17.679  0.00  0.00    +0.000 C 
ATOM      5  C   UNL     1       3.010   3.609  18.683  0.00  0.00    +0.000 A 
ATOM      6  C   UNL     1       2.231   2.665  19.325  0.00  0.00    +0.000 A 
ATOM      7  C   UNL     1       1.312   3.130  20.272  0.00  0.00    +0.000 A 
ATOM      8  C   UNL     1       1.195   4.509  20.549  0.00  0.00    +0.000 A 
ATOM      9  C   UNL     1       1.997   5.445  19.886  0.00  0.00    +0.000 A 
ATOM     10  C   UNL     1       2.897   4.960  18.957  0.00  0.00    +0.000 A 
ATOM     11  C   UNL     1       3.880   5.660  18.129  0.00  0.00    +0.000 C 
ATOM     12  O   UNL     1       4.037   6.867  18.123  0.00  0.00    +0.000 OA
ATOM     13  N   UNL     1       4.542   4.701  17.414  0.00  0.00    +0.000 N 
ENDBRANCH   2  13
ENDBRANCH   1   2
BRANCH   1  14
ATOM     14  C   UNL     1       7.376   5.289  18.355  0.00  0.00    +0.000 C 
BRANCH  14  15
ATOM     15  C   UNL     1       7.618   6.728  18.103  0.00  0.00    +0.000 A 
ATOM     16  N   UNL     1       8.327   7.585  18.799  0.00  0.00    +0.000 NA
ATOM     17  C   UNL     1       8.185   8.749  18.071  0.00  0.00    +0.000 A 
ATOM     18  N   UNL     1       7.423   8.611  16.973  0.00  0.00    +0.000 NA
ATOM     19  O   UNL     1       7.050   7.270  16.991  0.00  0.00    +0.000 OA
BRANCH  17  20
ATOM     20  C   UNL     1       8.798  10.008  18.486  0.00  0.00    +0.000 A 
ATOM     21  C   UNL     1       9.495  10.092  19.702  0.00  0.00    +0.000 A 
ATOM     22  C   UNL     1      10.064  11.300  20.113  0.00  0.00    +0.000 A 
ATOM     23  C   UNL     1       9.946  12.436  19.314  0.00  0.00    +0.000 A 
ATOM     24  C   UNL     1       9.263  12.365  18.102  0.00  0.00    +0.000 A 
ATOM     25  C   UNL     1       8.694  11.157  17.689  0.00  0.00    +0.000 A 
ENDBRANCH  17  20
ENDBRANCH  14  15
ENDBRANCH   1  14
TORSDOF 5
ENDMDL
MODEL 9
REMARK VINA RESULT:      -7.9      3.788      5.636
REMARK  Name = 
REMARK  5 active torsions:
REMARK  status: ('A' for Active; 'I' for Inactive)
REMARK    1  A    between atoms: N_11  and  C_12
REMARK    2  A    between atoms: C_12  and  C_13
REMARK    3  A    between atoms: C_13  and  C_14
REMARK    4  A    between atoms: C_14  and  C_15
REMARK    5  A    between atoms: C_17  and  C_18
REMARK                            x       y       z     vdW  Elec       q    Type
REMARK                         _______ _______ _______ _____ _____    ______ ____
ROOT
ATOM      1  C   UNL     1       4.865   3.797  19.389  0.00  0.00    +0.000 C 
ENDROOT
BRANCH   1   2
ATOM      2  C   UNL     1       3.568   4.051  18.615  0.00  0.00    +0.000 C 
BRANCH   2  13
ATOM      3  O   UNL     1       2.075   4.604  21.112  0.00  0.00    +0.000 OA
ATOM      4  C   UNL     1       2.266   5.423  20.234  0.00  0.00    +0.000 C 
ATOM      5  C   UNL     1       1.809   6.811  20.291  0.00  0.00    +0.000 A 
ATOM      6  C   UNL     1       1.146   7.494  21.292  0.00  0.00    +0.000 A 
ATOM      7  C   UNL     1       0.859   8.844  21.062  0.00  0.00    +0.000 A 
ATOM      8  C   UNL     1       1.237   9.468  19.855  0.00  0.00    +0.000 A 
ATOM      9  C   UNL     1       1.910   8.754  18.857  0.00  0.00    +0.000 A 
ATOM     10  C   UNL     1       2.182   7.423  19.108  0.00  0.00    +0.000 A 
ATOM     11  C   UNL     1       2.883   6.426  18.298  0.00  0.00    +0.000 C 
ATOM     12  O   UNL     1       3.337   6.639  17.189  0.00  0.00    +0.000 OA
ATOM     13  N   UNL     1       2.910   5.274  19.034  0.00  0.00    +0.000 N 
ENDBRANCH   2  13
ENDBRANCH   1   2
BRANCH   1  14
ATOM     14  C   UNL     1       5.855   4.960  19.289  0.00  0.00    +0.000 C 
BRANCH  14  15
ATOM     15  C   UNL     1       6.306   5.209  17.901  0.00  0.00    +0.000 A 
ATOM     16  N   UNL     1       6.120   4.482  16.825  0.00  0.00    +0.000 NA
ATOM     17  C   UNL     1       6.757   5.223  15.850  0.00  0.00    +0.000 A 
ATOM     18  N   UNL     1       7.310   6.359  16.310  0.00  0.00    +0.000 NA
ATOM     19  O   UNL     1       7.008   6.352  17.669  0.00  0.00    +0.000 OA
BRANCH  17  20
ATOM     20  C   UNL     1       6.830   4.785  14.459  0.00  0.00    +0.000 A 
ATOM     21  C   UNL     1       7.729   5.392  13.569  0.00  0.00    +0.000 A 
ATOM     22  C   UNL     1       7.787   4.990  12.232  0.00  0.00    +0.000 A 
ATOM     23  C   UNL     1       6.949   3.977  11.770  0.00  0.00    +0.000 A 
ATOM     24  C   UNL     1       6.055   3.361  12.644  0.00  0.00    +0.000 A 
ATOM     25  C   UNL     1       5.998   3.761  13.982  0.00  0.00    +0.000 A 
ENDBRANCH  17  20
ENDBRANCH  14  15
ENDBRANCH   1  14
TORSDOF 5
ENDMDL
