MODEL 1
REMARK VINA RESULT:      -8.2      0.000      0.000
REMARK  Name = 
REMARK  7 active torsions:
REMARK  status: ('A' for Active; 'I' for Inactive)
REMARK    1  A    between atoms: C_1  and  O_2
REMARK    2  A    between atoms: O_2  and  C_3
REMARK    3  A    between atoms: C_7  and  N_8
REMARK    4  A    between atoms: C_9  and  C_11
REMARK    5  A    between atoms: C_11  and  S_12
REMARK    6  A    between atoms: S_12  and  C_13
REMARK    7  A    between atoms: N_26  and  C_27
REMARK                            x       y       z     vdW  Elec       q    Type
REMARK                         _______ _______ _______ _____ _____    ______ ____
ROOT
ATOM      1  C   UNL     1       5.732   5.929  18.128  0.00  0.00    +0.000 A 
ATOM      2  N   UNL     1       5.597   4.912  18.937  0.00  0.00    +0.000 NA
ATOM      3  C   UNL     1       4.255   4.781  19.414  0.00  0.00    +0.000 A 
ATOM      4  C   UNL     1       3.466   5.903  19.492  0.00  0.00    +0.000 A 
ATOM      5  O   UNL     1       2.300   5.608  20.126  0.00  0.00    +0.000 OA
ATOM      6  C   UNL     1       2.095   4.298  19.829  0.00  0.00    +0.000 A 
ATOM      7  C   UNL     1       0.843   3.692  19.912  0.00  0.00    +0.000 A 
ATOM      8  C   UNL     1       0.684   2.533  19.163  0.00  0.00    +0.000 A 
ATOM      9  C   UNL     1       1.763   1.979  18.466  0.00  0.00    +0.000 A 
ATOM     10  C   UNL     1       3.067   2.535  18.549  0.00  0.00    +0.000 A 
ATOM     11  C   UNL     1       3.242   3.755  19.244  0.00  0.00    +0.000 A 
ATOM     12  C   UNL     1       3.457   6.751  18.321  0.00  0.00    +0.000 A 
ATOM     13  O   UNL     1       2.450   7.302  17.879  0.00  0.00    +0.000 OA
ATOM     14  N   UNL     1       4.654   6.649  17.607  0.00  0.00    +0.000 N 
ATOM     15  C   UNL     1       4.516   6.711  16.152  0.00  0.00    +0.000 C 
ENDROOT
BRANCH   1  16
ATOM     16  S   UNL     1       7.265   6.489  17.457  0.00  0.00    +0.000 S 
BRANCH  16  17
ATOM     17  C   UNL     1       8.346   7.222  18.724  0.00  0.00    +0.000 C 
BRANCH  17  19
ATOM     18  N   UNL     1       9.348   9.453  19.287  0.00  0.00    +0.000 N 
ATOM     19  C   UNL     1       8.428   8.767  18.496  0.00  0.00    +0.000 C 
ATOM     20  O   UNL     1       7.715   9.302  17.645  0.00  0.00    +0.000 OA
ATOM     21  H   UNL     1      10.048   8.910  19.773  0.00  0.00    +0.000 HD
BRANCH  18  26
ATOM     22  C   UNL     1      10.038  13.006  18.321  0.00  0.00    +0.000 A 
ATOM     23  C   UNL     1       9.834  13.658  19.531  0.00  0.00    +0.000 A 
ATOM     24  C   UNL     1       9.461  12.947  20.671  0.00  0.00    +0.000 A 
ATOM     25  C   UNL     1       9.291  11.560  20.596  0.00  0.00    +0.000 A 
ATOM     26  C   UNL     1       9.483  10.874  19.399  0.00  0.00    +0.000 A 
ATOM     27  C   UNL     1       9.867  11.612  18.256  0.00  0.00    +0.000 A 
BRANCH  22  29
ATOM     28  C   UNL     1      11.403  14.813  17.554  0.00  0.00    +0.000 C 
ATOM     29  O   UNL     1      10.401  13.837  17.296  0.00  0.00    +0.000 OA
ENDBRANCH  22  29
ENDBRANCH  18  26
ENDBRANCH  17  19
ENDBRANCH  16  17
ENDBRANCH   1  16
TORSDOF 5
ENDMDL
MODEL 2
REMARK VINA RESULT:      -8.1      0.951      1.631
REMARK  Name = 
REMARK  7 active torsions:
REMARK  status: ('A' for Active; 'I' for Inactive)
REMARK    1  A    between atoms: C_1  and  O_2
REMARK    2  A    between atoms: O_2  and  C_3
REMARK    3  A    between atoms: C_7  and  N_8
REMARK    4  A    between atoms: C_9  and  C_11
REMARK    5  A    between atoms: C_11  and  S_12
REMARK    6  A    between atoms: S_12  and  C_13
REMARK    7  A    between atoms: N_26  and  C_27
REMARK                            x       y       z     vdW  Elec       q    Type
REMARK                         _______ _______ _______ _____ _____    ______ ____
ROOT
ATOM      1  C   UNL     1       5.848   5.658  18.290  0.00  0.00    +0.000 A 
ATOM      2  N   UNL     1       5.668   4.622  19.064  0.00  0.00    +0.000 NA
ATOM      3  C   UNL     1       4.312   4.510  19.504  0.00  0.00    +0.000 A 
ATOM      4  C   UNL     1       3.548   5.648  19.596  0.00  0.00    +0.000 A 
ATOM      5  O   UNL     1       2.360   5.364  20.193  0.00  0.00    +0.000 OA
ATOM      6  C   UNL     1       2.132   4.068  19.851  0.00  0.00    +0.000 A 
ATOM      7  C   UNL     1       0.864   3.492  19.887  0.00  0.00    +0.000 A 
ATOM      8  C   UNL     1       0.696   2.359  19.099  0.00  0.00    +0.000 A 
ATOM      9  C   UNL     1       1.779   1.799  18.412  0.00  0.00    +0.000 A 
ATOM     10  C   UNL     1       3.093   2.320  18.544  0.00  0.00    +0.000 A 
ATOM     11  C   UNL     1       3.279   3.514  19.279  0.00  0.00    +0.000 A 
ATOM     12  C   UNL     1       3.590   6.530  18.452  0.00  0.00    +0.000 A 
ATOM     13  O   UNL     1       2.607   7.118  18.002  0.00  0.00    +0.000 OA
ATOM     14  N   UNL     1       4.801   6.419  17.763  0.00  0.00    +0.000 N 
ATOM     15  C   UNL     1       4.701   6.528  16.308  0.00  0.00    +0.000 C 
ENDROOT
BRANCH   1  16
ATOM     16  S   UNL     1       7.411   6.200  17.672  0.00  0.00    +0.000 S 
BRANCH  16  17
ATOM     17  C   UNL     1       8.354   7.137  18.914  0.00  0.00    +0.000 C 
BRANCH  17  19
ATOM     18  N   UNL     1       9.371   9.420  19.141  0.00  0.00    +0.000 N 
ATOM     19  C   UNL     1       8.429   8.636  18.477  0.00  0.00    +0.000 C 
ATOM     20  O   UNL     1       7.691   9.054  17.582  0.00  0.00    +0.000 OA
ATOM     21  H   UNL     1      10.085   8.946  19.676  0.00  0.00    +0.000 HD
BRANCH  18  26
ATOM     22  C   UNL     1       9.184  13.034  20.109  0.00  0.00    +0.000 A 
ATOM     23  C   UNL     1       9.678  13.646  18.963  0.00  0.00    +0.000 A 
ATOM     24  C   UNL     1      10.085  12.885  17.867  0.00  0.00    +0.000 A 
ATOM     25  C   UNL     1       9.994  11.490  17.922  0.00  0.00    +0.000 A 
ATOM     26  C   UNL     1       9.508  10.843  19.055  0.00  0.00    +0.000 A 
ATOM     27  C   UNL     1       9.094  11.632  20.154  0.00  0.00    +0.000 A 
BRANCH  22  29
ATOM     28  C   UNL     1       8.966  13.487  22.446  0.00  0.00    +0.000 C 
ATOM     29  O   UNL     1       8.825  13.912  21.096  0.00  0.00    +0.000 OA
ENDBRANCH  22  29
ENDBRANCH  18  26
ENDBRANCH  17  19
ENDBRANCH  16  17
ENDBRANCH   1  16
TORSDOF 5
ENDMDL
MODEL 3
REMARK VINA RESULT:      -8.0      1.280      1.688
REMARK  Name = 
REMARK  7 active torsions:
REMARK  status: ('A' for Active; 'I' for Inactive)
REMARK    1  A    between atoms: C_1  and  O_2
REMARK    2  A    between atoms: O_2  and  C_3
REMARK    3  A    between atoms: C_7  and  N_8
REMARK    4  A    between atoms: C_9  and  C_11
REMARK    5  A    between atoms: C_11  and  S_12
REMARK    6  A    between atoms: S_12  and  C_13
REMARK    7  A    between atoms: N_26  and  C_27
REMARK                            x       y       z     vdW  Elec       q    Type
REMARK                         _______ _______ _______ _____ _____    ______ ____
ROOT
ATOM      1  C   UNL     1       5.911   5.873  18.326  0.00  0.00    +0.000 A 
ATOM      2  N   UNL     1       5.741   4.872  19.147  0.00  0.00    +0.000 NA
ATOM      3  C   UNL     1       4.368   4.698  19.505  0.00  0.00    +0.000 A 
ATOM      4  C   UNL     1       3.533   5.789  19.481  0.00  0.00    +0.000 A 
ATOM      5  O   UNL     1       2.326   5.463  20.016  0.00  0.00    +0.000 OA
ATOM      6  C   UNL     1       2.199   4.138  19.738  0.00  0.00    +0.000 A 
ATOM      7  C   UNL     1       0.969   3.485  19.726  0.00  0.00    +0.000 A 
ATOM      8  C   UNL     1       0.923   2.302  18.998  0.00  0.00    +0.000 A 
ATOM      9  C   UNL     1       2.081   1.775  18.416  0.00  0.00    +0.000 A 
ATOM     10  C   UNL     1       3.349   2.385  18.600  0.00  0.00    +0.000 A 
ATOM     11  C   UNL     1       3.414   3.628  19.274  0.00  0.00    +0.000 A 
ATOM     12  C   UNL     1       3.598   6.607  18.291  0.00  0.00    +0.000 A 
ATOM     13  O   UNL     1       2.615   7.106  17.745  0.00  0.00    +0.000 OA
ATOM     14  N   UNL     1       4.858   6.536  17.689  0.00  0.00    +0.000 N 
ATOM     15  C   UNL     1       4.849   6.557  16.227  0.00  0.00    +0.000 C 
ENDROOT
BRANCH   1  16
ATOM     16  S   UNL     1       7.476   6.478  17.778  0.00  0.00    +0.000 S 
BRANCH  16  17
ATOM     17  C   UNL     1       7.427   8.253  17.381  0.00  0.00    +0.000 C 
BRANCH  17  19
ATOM     18  N   UNL     1       8.655  10.355  17.989  0.00  0.00    +0.000 N 
ATOM     19  C   UNL     1       8.450   9.010  18.289  0.00  0.00    +0.000 C 
ATOM     20  O   UNL     1       9.009   8.416  19.214  0.00  0.00    +0.000 OA
ATOM     21  H   UNL     1       7.986  10.810  17.382  0.00  0.00    +0.000 HD
BRANCH  18  26
ATOM     22  C   UNL     1      10.343  12.728  20.346  0.00  0.00    +0.000 A 
ATOM     23  C   UNL     1      11.545  12.952  19.687  0.00  0.00    +0.000 A 
ATOM     24  C   UNL     1      11.821  12.325  18.471  0.00  0.00    +0.000 A 
ATOM     25  C   UNL     1      10.875  11.461  17.910  0.00  0.00    +0.000 A 
ATOM     26  C   UNL     1       9.661  11.209  18.545  0.00  0.00    +0.000 A 
ATOM     27  C   UNL     1       9.398  11.859  19.772  0.00  0.00    +0.000 A 
BRANCH  22  29
ATOM     28  C   UNL     1      10.094  14.829  21.459  0.00  0.00    +0.000 C 
ATOM     29  O   UNL     1      10.219  13.414  21.524  0.00  0.00    +0.000 OA
ENDBRANCH  22  29
ENDBRANCH  18  26
ENDBRANCH  17  19
ENDBRANCH  16  17
ENDBRANCH   1  16
TORSDOF 5
ENDMDL
MODEL 4
REMARK VINA RESULT:      -8.0      1.636      2.102
REMARK  Name = 
REMARK  7 active torsions:
REMARK  status: ('A' for Active; 'I' for Inactive)
REMARK    1  A    between atoms: C_1  and  O_2
REMARK    2  A    between atoms: O_2  and  C_3
REMARK    3  A    between atoms: C_7  and  N_8
REMARK    4  A    between atoms: C_9  and  C_11
REMARK    5  A    between atoms: C_11  and  S_12
REMARK    6  A    between atoms: S_12  and  C_13
REMARK    7  A    between atoms: N_26  and  C_27
REMARK                            x       y       z     vdW  Elec       q    Type
REMARK                         _______ _______ _______ _____ _____    ______ ____
ROOT
ATOM      1  C   UNL     1       5.019   6.187  17.371  0.00  0.00    +0.000 A 
ATOM      2  N   UNL     1       3.932   6.574  17.983  0.00  0.00    +0.000 NA
ATOM      3  C   UNL     1       3.001   5.501  18.154  0.00  0.00    +0.000 A 
ATOM      4  C   UNL     1       3.019   4.459  17.258  0.00  0.00    +0.000 A 
ATOM      5  O   UNL     1       1.959   3.638  17.479  0.00  0.00    +0.000 OA
ATOM      6  C   UNL     1       1.726   3.766  18.812  0.00  0.00    +0.000 A 
ATOM      7  C   UNL     1       1.020   2.818  19.549  0.00  0.00    +0.000 A 
ATOM      8  C   UNL     1       1.250   2.828  20.920  0.00  0.00    +0.000 A 
ATOM      9  C   UNL     1       2.061   3.809  21.501  0.00  0.00    +0.000 A 
ATOM     10  C   UNL     1       2.623   4.861  20.732  0.00  0.00    +0.000 A 
ATOM     11  C   UNL     1       2.466   4.834  19.327  0.00  0.00    +0.000 A 
ATOM     12  C   UNL     1       4.320   3.899  16.968  0.00  0.00    +0.000 A 
ATOM     13  O   UNL     1       4.535   2.695  16.833  0.00  0.00    +0.000 OA
ATOM     14  N   UNL     1       5.334   4.848  17.129  0.00  0.00    +0.000 N 
ATOM     15  C   UNL     1       6.585   4.330  17.682  0.00  0.00    +0.000 C 
ENDROOT
BRANCH   1  16
ATOM     16  S   UNL     1       6.326   7.258  16.859  0.00  0.00    +0.000 S 
BRANCH  16  17
ATOM     17  C   UNL     1       7.640   7.386  18.111  0.00  0.00    +0.000 C 
BRANCH  17  19
ATOM     18  N   UNL     1       9.039   9.162  19.199  0.00  0.00    +0.000 N 
ATOM     19  C   UNL     1       8.155   8.860  18.164  0.00  0.00    +0.000 C 
ATOM     20  O   UNL     1       7.789   9.672  17.312  0.00  0.00    +0.000 OA
ATOM     21  H   UNL     1       9.466   8.390  19.694  0.00  0.00    +0.000 HD
BRANCH  18  26
ATOM     22  C   UNL     1      10.682  12.517  18.930  0.00  0.00    +0.000 A 
ATOM     23  C   UNL     1      10.508  13.007  20.219  0.00  0.00    +0.000 A 
ATOM     24  C   UNL     1       9.845  12.251  21.186  0.00  0.00    +0.000 A 
ATOM     25  C   UNL     1       9.351  10.985  20.854  0.00  0.00    +0.000 A 
ATOM     26  C   UNL     1       9.504  10.464  19.571  0.00  0.00    +0.000 A 
ATOM     27  C   UNL     1      10.184  11.244  18.607  0.00  0.00    +0.000 A 
BRANCH  22  29
ATOM     28  C   UNL     1      10.718  14.600  17.757  0.00  0.00    +0.000 C 
ATOM     29  O   UNL     1      11.352  13.373  18.097  0.00  0.00    +0.000 OA
ENDBRANCH  22  29
ENDBRANCH  18  26
ENDBRANCH  17  19
ENDBRANCH  16  17
ENDBRANCH   1  16
TORSDOF 5
ENDMDL
MODEL 5
REMARK VINA RESULT:      -7.9      1.964      2.805
REMARK  Name = 
REMARK  7 active torsions:
REMARK  status: ('A' for Active; 'I' for Inactive)
REMARK    1  A    between atoms: C_1  and  O_2
REMARK    2  A    between atoms: O_2  and  C_3
REMARK    3  A    between atoms: C_7  and  N_8
REMARK    4  A    between atoms: C_9  and  C_11
REMARK    5  A    between atoms: C_11  and  S_12
REMARK    6  A    between atoms: S_12  and  C_13
REMARK    7  A    between atoms: N_26  and  C_27
REMARK                            x       y       z     vdW  Elec       q    Type
REMARK                         _______ _______ _______ _____ _____    ______ ____
ROOT
ATOM      1  C   UNL     1       5.089   6.148  17.334  0.00  0.00    +0.000 A 
ATOM      2  N   UNL     1       3.998   6.569  17.917  0.00  0.00    +0.000 NA
ATOM      3  C   UNL     1       3.040   5.521  18.085  0.00  0.00    +0.000 A 
ATOM      4  C   UNL     1       3.052   4.464  17.206  0.00  0.00    +0.000 A 
ATOM      5  O   UNL     1       1.969   3.671  17.418  0.00  0.00    +0.000 OA
ATOM      6  C   UNL     1       1.711   3.826  18.744  0.00  0.00    +0.000 A 
ATOM      7  C   UNL     1       0.968   2.907  19.481  0.00  0.00    +0.000 A 
ATOM      8  C   UNL     1       1.169   2.935  20.855  0.00  0.00    +0.000 A 
ATOM      9  C   UNL     1       1.990   3.906  21.438  0.00  0.00    +0.000 A 
ATOM     10  C   UNL     1       2.592   4.933  20.665  0.00  0.00    +0.000 A 
ATOM     11  C   UNL     1       2.464   4.886  19.257  0.00  0.00    +0.000 A 
ATOM     12  C   UNL     1       4.345   3.870  16.954  0.00  0.00    +0.000 A 
ATOM     13  O   UNL     1       4.535   2.659  16.843  0.00  0.00    +0.000 OA
ATOM     14  N   UNL     1       5.377   4.798  17.121  0.00  0.00    +0.000 N 
ATOM     15  C   UNL     1       6.605   4.261  17.709  0.00  0.00    +0.000 C 
ENDROOT
BRANCH   1  16
ATOM     16  S   UNL     1       6.431   7.180  16.834  0.00  0.00    +0.000 S 
BRANCH  16  17
ATOM     17  C   UNL     1       7.685   7.359  18.140  0.00  0.00    +0.000 C 
BRANCH  17  19
ATOM     18  N   UNL     1       9.141   9.142  19.138  0.00  0.00    +0.000 N 
ATOM     19  C   UNL     1       8.152   8.849  18.201  0.00  0.00    +0.000 C 
ATOM     20  O   UNL     1       7.659   9.680  17.435  0.00  0.00    +0.000 OA
ATOM     21  H   UNL     1       9.650   8.368  19.544  0.00  0.00    +0.000 HD
BRANCH  18  26
ATOM     22  C   UNL     1       9.642  12.240  21.184  0.00  0.00    +0.000 A 
ATOM     23  C   UNL     1      10.403  13.015  20.317  0.00  0.00    +0.000 A 
ATOM     24  C   UNL     1      10.768  12.530  19.060  0.00  0.00    +0.000 A 
ATOM     25  C   UNL     1      10.362  11.251  18.668  0.00  0.00    +0.000 A 
ATOM     26  C   UNL     1       9.602  10.445  19.513  0.00  0.00    +0.000 A 
ATOM     27  C   UNL     1       9.237  10.956  20.780  0.00  0.00    +0.000 A 
BRANCH  22  29
ATOM     28  C   UNL     1       8.268  12.358  23.137  0.00  0.00    +0.000 C 
ATOM     29  O   UNL     1       9.364  12.851  22.376  0.00  0.00    +0.000 OA
ENDBRANCH  22  29
ENDBRANCH  18  26
ENDBRANCH  17  19
ENDBRANCH  16  17
ENDBRANCH   1  16
TORSDOF 5
ENDMDL
MODEL 6
REMARK VINA RESULT:      -7.9      5.338      8.045
REMARK  Name = 
REMARK  7 active torsions:
REMARK  status: ('A' for Active; 'I' for Inactive)
REMARK    1  A    between atoms: C_1  and  O_2
REMARK    2  A    between atoms: O_2  and  C_3
REMARK    3  A    between atoms: C_7  and  N_8
REMARK    4  A    between atoms: C_9  and  C_11
REMARK    5  A    between atoms: C_11  and  S_12
REMARK    6  A    between atoms: S_12  and  C_13
REMARK    7  A    between atoms: N_26  and  C_27
REMARK                            x       y       z     vdW  Elec       q    Type
REMARK                         _______ _______ _______ _____ _____    ______ ____
ROOT
ATOM      1  C   UNL     1       3.034   5.674  19.668  0.00  0.00    +0.000 A 
ATOM      2  N   UNL     1       3.762   6.507  18.974  0.00  0.00    +0.000 NA
ATOM      3  C   UNL     1       4.956   5.895  18.481  0.00  0.00    +0.000 A 
ATOM      4  C   UNL     1       5.494   4.836  19.173  0.00  0.00    +0.000 A 
ATOM      5  O   UNL     1       6.707   4.508  18.654  0.00  0.00    +0.000 OA
ATOM      6  C   UNL     1       6.599   4.855  17.344  0.00  0.00    +0.000 A 
ATOM      7  C   UNL     1       7.427   4.331  16.355  0.00  0.00    +0.000 A 
ATOM      8  C   UNL     1       6.932   4.396  15.058  0.00  0.00    +0.000 A 
ATOM      9  C   UNL     1       5.725   5.048  14.786  0.00  0.00    +0.000 A 
ATOM     10  C   UNL     1       4.998   5.721  15.803  0.00  0.00    +0.000 A 
ATOM     11  C   UNL     1       5.440   5.608  17.142  0.00  0.00    +0.000 A 
ATOM     12  C   UNL     1       4.566   3.796  19.556  0.00  0.00    +0.000 A 
ATOM     13  O   UNL     1       4.825   2.594  19.510  0.00  0.00    +0.000 OA
ATOM     14  N   UNL     1       3.272   4.298  19.718  0.00  0.00    +0.000 N 
ATOM     15  C   UNL     1       2.200   3.404  19.280  0.00  0.00    +0.000 C 
ENDROOT
BRANCH   1  16
ATOM     16  S   UNL     1       1.567   6.106  20.551  0.00  0.00    +0.000 S 
BRANCH  16  17
ATOM     17  C   UNL     1       1.626   7.807  21.194  0.00  0.00    +0.000 C 
BRANCH  17  19
ATOM     18  N   UNL     1      -0.062   9.442  20.316  0.00  0.00    +0.000 N 
ATOM     19  C   UNL     1       1.149   8.793  20.079  0.00  0.00    +0.000 C 
ATOM     20  O   UNL     1       1.841   8.968  19.074  0.00  0.00    +0.000 OA
ATOM     21  H   UNL     1      -0.430   9.424  21.257  0.00  0.00    +0.000 HD
BRANCH  18  26
ATOM     22  C   UNL     1      -1.976  10.385  17.237  0.00  0.00    +0.000 A 
ATOM     23  C   UNL     1      -2.195  11.739  17.460  0.00  0.00    +0.000 A 
ATOM     24  C   UNL     1      -1.729  12.356  18.622  0.00  0.00    +0.000 A 
ATOM     25  C   UNL     1      -1.032  11.602  19.572  0.00  0.00    +0.000 A 
ATOM     26  C   UNL     1      -0.796  10.242  19.383  0.00  0.00    +0.000 A 
ATOM     27  C   UNL     1      -1.272   9.637  18.196  0.00  0.00    +0.000 A 
BRANCH  22  29
ATOM     28  C   UNL     1      -3.241  10.837  15.259  0.00  0.00    +0.000 C 
ATOM     29  O   UNL     1      -2.491   9.927  16.055  0.00  0.00    +0.000 OA
ENDBRANCH  22  29
ENDBRANCH  18  26
ENDBRANCH  17  19
ENDBRANCH  16  17
ENDBRANCH   1  16
TORSDOF 5
ENDMDL
MODEL 7
REMARK VINA RESULT:      -7.8      5.482      7.820
REMARK  Name = 
REMARK  7 active torsions:
REMARK  status: ('A' for Active; 'I' for Inactive)
REMARK    1  A    between atoms: C_1  and  O_2
REMARK    2  A    between atoms: O_2  and  C_3
REMARK    3  A    between atoms: C_7  and  N_8
REMARK    4  A    between atoms: C_9  and  C_11
REMARK    5  A    between atoms: C_11  and  S_12
REMARK    6  A    between atoms: S_12  and  C_13
REMARK    7  A    between atoms: N_26  and  C_27
REMARK                            x       y       z     vdW  Elec       q    Type
REMARK                         _______ _______ _______ _____ _____    ______ ____
ROOT
ATOM      1  C   UNL     1       2.913   5.639  19.676  0.00  0.00    +0.000 A 
ATOM      2  N   UNL     1       3.731   6.474  19.092  0.00  0.00    +0.000 NA
ATOM      3  C   UNL     1       4.889   5.815  18.572  0.00  0.00    +0.000 A 
ATOM      4  C   UNL     1       5.313   4.651  19.166  0.00  0.00    +0.000 A 
ATOM      5  O   UNL     1       6.513   4.276  18.649  0.00  0.00    +0.000 OA
ATOM      6  C   UNL     1       6.482   4.761  17.380  0.00  0.00    +0.000 A 
ATOM      7  C   UNL     1       7.301   4.271  16.365  0.00  0.00    +0.000 A 
ATOM      8  C   UNL     1       6.860   4.508  15.069  0.00  0.00    +0.000 A 
ATOM      9  C   UNL     1       5.720   5.284  14.832  0.00  0.00    +0.000 A 
ATOM     10  C   UNL     1       5.013   5.910  15.892  0.00  0.00    +0.000 A 
ATOM     11  C   UNL     1       5.396   5.626  17.224  0.00  0.00    +0.000 A 
ATOM     12  C   UNL     1       4.291   3.660  19.413  0.00  0.00    +0.000 A 
ATOM     13  O   UNL     1       4.453   2.451  19.250  0.00  0.00    +0.000 OA
ATOM     14  N   UNL     1       3.036   4.250  19.590  0.00  0.00    +0.000 N 
ATOM     15  C   UNL     1       1.912   3.499  19.032  0.00  0.00    +0.000 C 
ENDROOT
BRANCH   1  16
ATOM     16  S   UNL     1       1.455   6.102  20.557  0.00  0.00    +0.000 S 
BRANCH  16  17
ATOM     17  C   UNL     1       1.663   7.671  21.456  0.00  0.00    +0.000 C 
BRANCH  17  19
ATOM     18  N   UNL     1       0.836   9.428  19.868  0.00  0.00    +0.000 N 
ATOM     19  C   UNL     1       0.551   8.671  21.003  0.00  0.00    +0.000 C 
ATOM     20  O   UNL     1      -0.507   8.743  21.632  0.00  0.00    +0.000 OA
ATOM     21  H   UNL     1       1.609   9.134  19.287  0.00  0.00    +0.000 HD
BRANCH  18  26
ATOM     22  C   UNL     1      -1.628  11.341  17.793  0.00  0.00    +0.000 A 
ATOM     23  C   UNL     1      -1.432  12.633  18.265  0.00  0.00    +0.000 A 
ATOM     24  C   UNL     1      -0.501  12.892  19.271  0.00  0.00    +0.000 A 
ATOM     25  C   UNL     1       0.245  11.838  19.810  0.00  0.00    +0.000 A 
ATOM     26  C   UNL     1       0.072  10.530  19.364  0.00  0.00    +0.000 A 
ATOM     27  C   UNL     1      -0.873  10.289  18.339  0.00  0.00    +0.000 A 
BRANCH  22  29
ATOM     28  C   UNL     1      -2.598  10.063  16.021  0.00  0.00    +0.000 C 
ATOM     29  O   UNL     1      -2.573  11.248  16.807  0.00  0.00    +0.000 OA
ENDBRANCH  22  29
ENDBRANCH  18  26
ENDBRANCH  17  19
ENDBRANCH  16  17
ENDBRANCH   1  16
TORSDOF 5
ENDMDL
MODEL 8
REMARK VINA RESULT:      -7.8      3.997      6.632
REMARK  Name = 
REMARK  7 active torsions:
REMARK  status: ('A' for Active; 'I' for Inactive)
REMARK    1  A    between atoms: C_1  and  O_2
REMARK    2  A    between atoms: O_2  and  C_3
REMARK    3  A    between atoms: C_7  and  N_8
REMARK    4  A    between atoms: C_9  and  C_11
REMARK    5  A    between atoms: C_11  and  S_12
REMARK    6  A    between atoms: S_12  and  C_13
REMARK    7  A    between atoms: N_26  and  C_27
REMARK                            x       y       z     vdW  Elec       q    Type
REMARK                         _______ _______ _______ _____ _____    ______ ____
ROOT
ATOM      1  C   UNL     1       2.599   4.258  20.362  0.00  0.00    +0.000 A 
ATOM      2  N   UNL     1       3.089   5.423  20.690  0.00  0.00    +0.000 NA
ATOM      3  C   UNL     1       2.823   6.417  19.697  0.00  0.00    +0.000 A 
ATOM      4  C   UNL     1       2.656   6.022  18.391  0.00  0.00    +0.000 A 
ATOM      5  O   UNL     1       2.588   7.111  17.581  0.00  0.00    +0.000 OA
ATOM      6  C   UNL     1       2.052   8.072  18.379  0.00  0.00    +0.000 A 
ATOM      7  C   UNL     1       1.427   9.209  17.873  0.00  0.00    +0.000 A 
ATOM      8  C   UNL     1       0.545   9.846  18.738  0.00  0.00    +0.000 A 
ATOM      9  C   UNL     1       0.399   9.409  20.059  0.00  0.00    +0.000 A 
ATOM     10  C   UNL     1       1.187   8.351  20.584  0.00  0.00    +0.000 A 
ATOM     11  C   UNL     1       2.038   7.639  19.707  0.00  0.00    +0.000 A 
ATOM     12  C   UNL     1       1.761   4.907  18.179  0.00  0.00    +0.000 A 
ATOM     13  O   UNL     1       0.961   4.835  17.247  0.00  0.00    +0.000 OA
ATOM     14  N   UNL     1       1.719   4.064  19.294  0.00  0.00    +0.000 N 
ATOM     15  C   UNL     1       0.408   3.485  19.586  0.00  0.00    +0.000 C 
ENDROOT
BRANCH   1  16
ATOM     16  S   UNL     1       2.851   2.764  21.268  0.00  0.00    +0.000 S 
BRANCH  16  17
ATOM     17  C   UNL     1       4.174   1.739  20.552  0.00  0.00    +0.000 C 
BRANCH  17  19
ATOM     18  N   UNL     1       5.258   3.354  18.968  0.00  0.00    +0.000 N 
ATOM     19  C   UNL     1       4.460   2.218  19.093  0.00  0.00    +0.000 C 
ATOM     20  O   UNL     1       4.001   1.589  18.137  0.00  0.00    +0.000 OA
ATOM     21  H   UNL     1       5.781   3.654  19.779  0.00  0.00    +0.000 HD
BRANCH  18  26
ATOM     22  C   UNL     1       6.321   6.155  16.718  0.00  0.00    +0.000 A 
ATOM     23  C   UNL     1       5.989   5.639  15.471  0.00  0.00    +0.000 A 
ATOM     24  C   UNL     1       5.424   4.369  15.351  0.00  0.00    +0.000 A 
ATOM     25  C   UNL     1       5.188   3.607  16.500  0.00  0.00    +0.000 A 
ATOM     26  C   UNL     1       5.511   4.090  17.766  0.00  0.00    +0.000 A 
ATOM     27  C   UNL     1       6.078   5.382  17.867  0.00  0.00    +0.000 A 
BRANCH  22  29
ATOM     28  C   UNL     1       7.788   7.772  17.694  0.00  0.00    +0.000 C 
ATOM     29  O   UNL     1       6.865   7.410  16.673  0.00  0.00    +0.000 OA
ENDBRANCH  22  29
ENDBRANCH  18  26
ENDBRANCH  17  19
ENDBRANCH  16  17
ENDBRANCH   1  16
TORSDOF 5
ENDMDL
MODEL 9
REMARK VINA RESULT:      -7.6      5.482      8.499
REMARK  Name = 
REMARK  7 active torsions:
REMARK  status: ('A' for Active; 'I' for Inactive)
REMARK    1  A    between atoms: C_1  and  O_2
REMARK    2  A    between atoms: O_2  and  C_3
REMARK    3  A    between atoms: C_7  and  N_8
REMARK    4  A    between atoms: C_9  and  C_11
REMARK    5  A    between atoms: C_11  and  S_12
REMARK    6  A    between atoms: S_12  and  C_13
REMARK    7  A    between atoms: N_26  and  C_27
REMARK                            x       y       z     vdW  Elec       q    Type
REMARK                         _______ _______ _______ _____ _____    ______ ____
ROOT
ATOM      1  C   UNL     1       2.833   5.803  19.730  0.00  0.00    +0.000 A 
ATOM      2  N   UNL     1       3.722   6.593  19.190  0.00  0.00    +0.000 NA
ATOM      3  C   UNL     1       4.835   5.867  18.662  0.00  0.00    +0.000 A 
ATOM      4  C   UNL     1       5.160   4.653  19.219  0.00  0.00    +0.000 A 
ATOM      5  O   UNL     1       6.337   4.207  18.707  0.00  0.00    +0.000 OA
ATOM      6  C   UNL     1       6.365   4.738  17.456  0.00  0.00    +0.000 A 
ATOM      7  C   UNL     1       7.162   4.223  16.436  0.00  0.00    +0.000 A 
ATOM      8  C   UNL     1       6.763   4.539  15.143  0.00  0.00    +0.000 A 
ATOM      9  C   UNL     1       5.689   5.408  14.918  0.00  0.00    +0.000 A 
ATOM     10  C   UNL     1       5.013   6.047  15.990  0.00  0.00    +0.000 A 
ATOM     11  C   UNL     1       5.350   5.688  17.316  0.00  0.00    +0.000 A 
ATOM     12  C   UNL     1       4.062   3.734  19.414  0.00  0.00    +0.000 A 
ATOM     13  O   UNL     1       4.135   2.523  19.209  0.00  0.00    +0.000 OA
ATOM     14  N   UNL     1       2.853   4.412  19.594  0.00  0.00    +0.000 N 
ATOM     15  C   UNL     1       1.685   3.769  18.993  0.00  0.00    +0.000 C 
ENDROOT
BRANCH   1  16
ATOM     16  S   UNL     1       1.399   6.343  20.606  0.00  0.00    +0.000 S 
BRANCH  16  17
ATOM     17  C   UNL     1       1.622   7.994  21.339  0.00  0.00    +0.000 C 
BRANCH  17  19
ATOM     18  N   UNL     1       0.278  10.099  21.101  0.00  0.00    +0.000 N 
ATOM     19  C   UNL     1       0.244   8.732  21.368  0.00  0.00    +0.000 C 
ATOM     20  O   UNL     1      -0.788   8.099  21.601  0.00  0.00    +0.000 OA
ATOM     21  H   UNL     1       1.119  10.478  20.688  0.00  0.00    +0.000 HD
BRANCH  18  26
ATOM     22  C   UNL     1      -2.381  12.172  22.735  0.00  0.00    +0.000 A 
ATOM     23  C   UNL     1      -2.972  12.772  21.630  0.00  0.00    +0.000 A 
ATOM     24  C   UNL     1      -2.503  12.513  20.341  0.00  0.00    +0.000 A 
ATOM     25  C   UNL     1      -1.426  11.639  20.160  0.00  0.00    +0.000 A 
ATOM     26  C   UNL     1      -0.807  11.023  21.245  0.00  0.00    +0.000 A 
ATOM     27  C   UNL     1      -1.301  11.293  22.543  0.00  0.00    +0.000 A 
BRANCH  22  29
ATOM     28  C   UNL     1      -3.658  13.756  23.991  0.00  0.00    +0.000 C 
ATOM     29  O   UNL     1      -2.951  12.523  23.929  0.00  0.00    +0.000 OA
ENDBRANCH  22  29
ENDBRANCH  18  26
ENDBRANCH  17  19
ENDBRANCH  16  17
ENDBRANCH   1  16
TORSDOF 5
ENDMDL
