MODEL 1
REMARK VINA RESULT:      -5.4      0.000      0.000
REMARK  Name = 
REMARK  1 active torsions:
REMARK  status: ('A' for Active; 'I' for Inactive)
REMARK    1  A    between atoms: C_3  and  C_4
REMARK                            x       y       z     vdW  Elec       q    Type
REMARK                         _______ _______ _______ _____ _____    ______ ____
ROOT
ATOM      1  C   UNL     1       1.581   4.461  17.843  0.00  0.00    +0.000 A 
ATOM      2  C   UNL     1       2.846   5.009  17.740  0.00  0.00    +0.000 A 
ATOM      3  C   UNL     1       3.930   4.136  17.724  0.00  0.00    +0.000 A 
ATOM      4  C   UNL     1       3.723   2.762  17.830  0.00  0.00    +0.000 A 
ATOM      5  C   UNL     1       2.418   2.318  17.941  0.00  0.00    +0.000 A 
ATOM      6  N   UNL     1       1.342   3.135  17.939  0.00  0.00    +0.000 NA
ENDROOT
BRANCH   3   7
ATOM      7  C   UNL     1       5.303   4.672  17.619  0.00  0.00    +0.000 C 
ATOM      8  N   UNL     1       5.558   5.770  16.958  0.00  0.00    +0.000 NA
ATOM      9  C   UNL     1       7.027   5.964  17.083  0.00  0.00    +0.000 C 
ATOM     10  C   UNL     1       7.582   4.739  17.811  0.00  0.00    +0.000 C 
ATOM     11  N   UNL     1       6.378   4.037  18.198  0.00  0.00    +0.000 N 
ATOM     12  H   UNL     1       6.399   3.031  18.094  0.00  0.00    +0.000 HD
ENDBRANCH   3   7
TORSDOF 1
ENDMDL
MODEL 2
REMARK VINA RESULT:      -5.3      0.763      1.600
REMARK  Name = 
REMARK  1 active torsions:
REMARK  status: ('A' for Active; 'I' for Inactive)
REMARK    1  A    between atoms: C_3  and  C_4
REMARK                            x       y       z     vdW  Elec       q    Type
REMARK                         _______ _______ _______ _____ _____    ______ ____
ROOT
ATOM      1  C   UNL     1       2.335   1.999  18.424  0.00  0.00    +0.000 A 
ATOM      2  C   UNL     1       3.632   2.373  18.128  0.00  0.00    +0.000 A 
ATOM      3  C   UNL     1       3.845   3.675  17.685  0.00  0.00    +0.000 A 
ATOM      4  C   UNL     1       2.769   4.547  17.535  0.00  0.00    +0.000 A 
ATOM      5  C   UNL     1       1.510   4.070  17.847  0.00  0.00    +0.000 A 
ATOM      6  N   UNL     1       1.269   2.820  18.298  0.00  0.00    +0.000 NA
ENDROOT
BRANCH   3   7
ATOM      7  C   UNL     1       5.213   4.123  17.352  0.00  0.00    +0.000 C 
ATOM      8  N   UNL     1       5.542   4.463  16.133  0.00  0.00    +0.000 NA
ATOM      9  C   UNL     1       6.978   4.841  16.211  0.00  0.00    +0.000 C 
ATOM     10  C   UNL     1       7.445   4.544  17.638  0.00  0.00    +0.000 C 
ATOM     11  N   UNL     1       6.208   4.193  18.301  0.00  0.00    +0.000 N 
ATOM     12  H   UNL     1       6.255   3.411  18.942  0.00  0.00    +0.000 HD
ENDBRANCH   3   7
TORSDOF 1
ENDMDL
MODEL 3
REMARK VINA RESULT:      -5.3      1.704      4.591
REMARK  Name = 
REMARK  1 active torsions:
REMARK  status: ('A' for Active; 'I' for Inactive)
REMARK    1  A    between atoms: C_3  and  C_4
REMARK                            x       y       z     vdW  Elec       q    Type
REMARK                         _______ _______ _______ _____ _____    ______ ____
ROOT
ATOM      1  C   UNL     1       6.838   4.628  15.003  0.00  0.00    +0.000 A 
ATOM      2  C   UNL     1       5.765   3.915  15.504  0.00  0.00    +0.000 A 
ATOM      3  C   UNL     1       5.264   4.287  16.748  0.00  0.00    +0.000 A 
ATOM      4  C   UNL     1       5.855   5.334  17.454  0.00  0.00    +0.000 A 
ATOM      5  C   UNL     1       6.931   5.975  16.869  0.00  0.00    +0.000 A 
ATOM      6  N   UNL     1       7.429   5.653  15.655  0.00  0.00    +0.000 NA
ENDROOT
BRANCH   3   7
ATOM      7  C   UNL     1       4.121   3.555  17.329  0.00  0.00    +0.000 C 
ATOM      8  N   UNL     1       2.942   4.108  17.442  0.00  0.00    +0.000 NA
ATOM      9  C   UNL     1       2.084   3.068  18.066  0.00  0.00    +0.000 C 
ATOM     10  C   UNL     1       2.989   1.881  18.405  0.00  0.00    +0.000 C 
ATOM     11  N   UNL     1       4.242   2.264  17.791  0.00  0.00    +0.000 N 
ATOM     12  H   UNL     1       5.076   2.068  18.329  0.00  0.00    +0.000 HD
ENDBRANCH   3   7
TORSDOF 1
ENDMDL
MODEL 4
REMARK VINA RESULT:      -5.3      0.331      1.459
REMARK  Name = 
REMARK  1 active torsions:
REMARK  status: ('A' for Active; 'I' for Inactive)
REMARK    1  A    between atoms: C_3  and  C_4
REMARK                            x       y       z     vdW  Elec       q    Type
REMARK                         _______ _______ _______ _____ _____    ______ ____
ROOT
ATOM      1  C   UNL     1       2.530   2.283  17.991  0.00  0.00    +0.000 A 
ATOM      2  C   UNL     1       3.812   2.799  17.983  0.00  0.00    +0.000 A 
ATOM      3  C   UNL     1       3.954   4.181  17.899  0.00  0.00    +0.000 A 
ATOM      4  C   UNL     1       2.827   4.994  17.807  0.00  0.00    +0.000 A 
ATOM      5  C   UNL     1       1.590   4.378  17.812  0.00  0.00    +0.000 A 
ATOM      6  N   UNL     1       1.415   3.042  17.913  0.00  0.00    +0.000 NA
ENDROOT
BRANCH   3   7
ATOM      7  C   UNL     1       5.304   4.781  17.883  0.00  0.00    +0.000 C 
ATOM      8  N   UNL     1       5.484   6.048  17.614  0.00  0.00    +0.000 NA
ATOM      9  C   UNL     1       6.954   6.255  17.693  0.00  0.00    +0.000 C 
ATOM     10  C   UNL     1       7.590   4.883  17.925  0.00  0.00    +0.000 C 
ATOM     11  N   UNL     1       6.434   4.039  18.137  0.00  0.00    +0.000 N 
ATOM     12  H   UNL     1       6.466   3.127  17.699  0.00  0.00    +0.000 HD
ENDBRANCH   3   7
TORSDOF 1
ENDMDL
MODEL 5
REMARK VINA RESULT:      -5.3      1.938      3.976
REMARK  Name = 
REMARK  1 active torsions:
REMARK  status: ('A' for Active; 'I' for Inactive)
REMARK    1  A    between atoms: C_3  and  C_4
REMARK                            x       y       z     vdW  Elec       q    Type
REMARK                         _______ _______ _______ _____ _____    ______ ____
ROOT
ATOM      1  C   UNL     1       4.945   6.802  16.397  0.00  0.00    +0.000 A 
ATOM      2  C   UNL     1       4.541   5.862  17.326  0.00  0.00    +0.000 A 
ATOM      3  C   UNL     1       4.766   4.520  17.030  0.00  0.00    +0.000 A 
ATOM      4  C   UNL     1       5.364   4.162  15.823  0.00  0.00    +0.000 A 
ATOM      5  C   UNL     1       5.721   5.179  14.958  0.00  0.00    +0.000 A 
ATOM      6  N   UNL     1       5.535   6.491  15.221  0.00  0.00    +0.000 NA
ENDROOT
BRANCH   3   7
ATOM      7  C   UNL     1       4.350   3.476  17.989  0.00  0.00    +0.000 C 
ATOM      8  N   UNL     1       3.265   2.772  17.802  0.00  0.00    +0.000 NA
ATOM      9  C   UNL     1       3.196   1.851  18.966  0.00  0.00    +0.000 C 
ATOM     10  C   UNL     1       4.342   2.227  19.907  0.00  0.00    +0.000 C 
ATOM     11  N   UNL     1       5.073   3.203  19.127  0.00  0.00    +0.000 N 
ATOM     12  H   UNL     1       5.412   4.011  19.634  0.00  0.00    +0.000 HD
ENDBRANCH   3   7
TORSDOF 1
ENDMDL
MODEL 6
REMARK VINA RESULT:      -5.3      0.882      1.146
REMARK  Name = 
REMARK  1 active torsions:
REMARK  status: ('A' for Active; 'I' for Inactive)
REMARK    1  A    between atoms: C_3  and  C_4
REMARK                            x       y       z     vdW  Elec       q    Type
REMARK                         _______ _______ _______ _____ _____    ______ ____
ROOT
ATOM      1  C   UNL     1       1.563   4.177  17.882  0.00  0.00    +0.000 A 
ATOM      2  C   UNL     1       2.869   4.581  17.678  0.00  0.00    +0.000 A 
ATOM      3  C   UNL     1       3.867   3.614  17.766  0.00  0.00    +0.000 A 
ATOM      4  C   UNL     1       3.537   2.295  18.070  0.00  0.00    +0.000 A 
ATOM      5  C   UNL     1       2.202   1.998  18.268  0.00  0.00    +0.000 A 
ATOM      6  N   UNL     1       1.206   2.906  18.171  0.00  0.00    +0.000 NA
ENDROOT
BRANCH   3   7
ATOM      7  C   UNL     1       5.280   3.995  17.559  0.00  0.00    +0.000 C 
ATOM      8  N   UNL     1       6.016   4.445  18.541  0.00  0.00    +0.000 NA
ATOM      9  C   UNL     1       7.346   4.714  17.935  0.00  0.00    +0.000 C 
ATOM     10  C   UNL     1       7.215   4.465  16.431  0.00  0.00    +0.000 C 
ATOM     11  N   UNL     1       5.884   3.907  16.326  0.00  0.00    +0.000 N 
ATOM     12  H   UNL     1       5.329   4.230  15.543  0.00  0.00    +0.000 HD
ENDBRANCH   3   7
TORSDOF 1
ENDMDL
MODEL 7
REMARK VINA RESULT:      -5.3      1.608      4.442
REMARK  Name = 
REMARK  1 active torsions:
REMARK  status: ('A' for Active; 'I' for Inactive)
REMARK    1  A    between atoms: C_3  and  C_4
REMARK                            x       y       z     vdW  Elec       q    Type
REMARK                         _______ _______ _______ _____ _____    ______ ____
ROOT
ATOM      1  C   UNL     1       6.772   6.131  17.011  0.00  0.00    +0.000 A 
ATOM      2  C   UNL     1       5.759   5.388  17.587  0.00  0.00    +0.000 A 
ATOM      3  C   UNL     1       5.325   4.251  16.910  0.00  0.00    +0.000 A 
ATOM      4  C   UNL     1       5.894   3.907  15.686  0.00  0.00    +0.000 A 
ATOM      5  C   UNL     1       6.893   4.725  15.191  0.00  0.00    +0.000 A 
ATOM      6  N   UNL     1       7.353   5.822  15.831  0.00  0.00    +0.000 NA
ENDROOT
BRANCH   3   7
ATOM      7  C   UNL     1       4.242   3.424  17.482  0.00  0.00    +0.000 C 
ATOM      8  N   UNL     1       3.011   3.519  17.052  0.00  0.00    +0.000 NA
ATOM      9  C   UNL     1       2.240   2.545  17.867  0.00  0.00    +0.000 C 
ATOM     10  C   UNL     1       3.201   1.973  18.912  0.00  0.00    +0.000 C 
ATOM     11  N   UNL     1       4.472   2.526  18.499  0.00  0.00    +0.000 N 
ATOM     12  H   UNL     1       5.075   2.854  19.243  0.00  0.00    +0.000 HD
ENDBRANCH   3   7
TORSDOF 1
ENDMDL
MODEL 8
REMARK VINA RESULT:      -5.2      1.675      4.487
REMARK  Name = 
REMARK  1 active torsions:
REMARK  status: ('A' for Active; 'I' for Inactive)
REMARK    1  A    between atoms: C_3  and  C_4
REMARK                            x       y       z     vdW  Elec       q    Type
REMARK                         _______ _______ _______ _____ _____    ______ ____
ROOT
ATOM      1  C   UNL     1       6.673   4.984  15.259  0.00  0.00    +0.000 A 
ATOM      2  C   UNL     1       5.780   4.226  15.991  0.00  0.00    +0.000 A 
ATOM      3  C   UNL     1       5.643   4.514  17.346  0.00  0.00    +0.000 A 
ATOM      4  C   UNL     1       6.408   5.525  17.925  0.00  0.00    +0.000 A 
ATOM      5  C   UNL     1       7.281   6.217  17.107  0.00  0.00    +0.000 A 
ATOM      6  N   UNL     1       7.423   5.977  15.785  0.00  0.00    +0.000 NA
ENDROOT
BRANCH   3   7
ATOM      7  C   UNL     1       4.704   3.730  18.173  0.00  0.00    +0.000 C 
ATOM      8  N   UNL     1       3.434   3.649  17.873  0.00  0.00    +0.000 NA
ATOM      9  C   UNL     1       2.840   2.790  18.932  0.00  0.00    +0.000 C 
ATOM     10  C   UNL     1       3.946   2.499  19.948  0.00  0.00    +0.000 C 
ATOM     11  N   UNL     1       5.114   3.059  19.303  0.00  0.00    +0.000 N 
ATOM     12  H   UNL     1       5.752   3.565  19.904  0.00  0.00    +0.000 HD
ENDBRANCH   3   7
TORSDOF 1
ENDMDL
MODEL 9
REMARK VINA RESULT:      -5.2      1.890      4.235
REMARK  Name = 
REMARK  1 active torsions:
REMARK  status: ('A' for Active; 'I' for Inactive)
REMARK    1  A    between atoms: C_3  and  C_4
REMARK                            x       y       z     vdW  Elec       q    Type
REMARK                         _______ _______ _______ _____ _____    ______ ____
ROOT
ATOM      1  C   UNL     1       6.130   4.857  15.066  0.00  0.00    +0.000 A 
ATOM      2  C   UNL     1       5.659   3.940  15.987  0.00  0.00    +0.000 A 
ATOM      3  C   UNL     1       4.816   4.406  16.992  0.00  0.00    +0.000 A 
ATOM      4  C   UNL     1       4.489   5.759  17.058  0.00  0.00    +0.000 A 
ATOM      5  C   UNL     1       5.023   6.595  16.095  0.00  0.00    +0.000 A 
ATOM      6  N   UNL     1       5.827   6.174  15.095  0.00  0.00    +0.000 NA
ENDROOT
BRANCH   3   7
ATOM      7  C   UNL     1       4.288   3.466  18.002  0.00  0.00    +0.000 C 
ATOM      8  N   UNL     1       3.086   2.962  17.903  0.00  0.00    +0.000 NA
ATOM      9  C   UNL     1       2.935   2.085  19.093  0.00  0.00    +0.000 C 
ATOM     10  C   UNL     1       4.190   2.267  19.949  0.00  0.00    +0.000 C 
ATOM     11  N   UNL     1       5.027   3.087  19.100  0.00  0.00    +0.000 N 
ATOM     12  H   UNL     1       5.535   3.830  19.563  0.00  0.00    +0.000 HD
ENDBRANCH   3   7
TORSDOF 1
ENDMDL
