MODEL 1
REMARK VINA RESULT:      -8.3      0.000      0.000
REMARK  Name = 
REMARK  6 active torsions:
REMARK  status: ('A' for Active; 'I' for Inactive)
REMARK    1  A    between atoms: C_1  and  C_2
REMARK    2  A    between atoms: C_4  and  N_5
REMARK    3  A    between atoms: N_5  and  C_6
REMARK    4  A    between atoms: C_15  and  C_16
REMARK    5  A    between atoms: C_16  and  C_17
REMARK    6  A    between atoms: C_16  and  C_18
REMARK                            x       y       z     vdW  Elec       q    Type
REMARK                         _______ _______ _______ _____ _____    ______ ____
ROOT
ATOM      1  C   UNL     1       7.929   7.467  18.160  0.00  0.00    +0.000 C 
ATOM      2  C   UNL     1       7.086   6.597  17.262  0.00  0.00    +0.000 A 
ATOM      3  C   UNL     1       5.682   6.350  17.688  0.00  0.00    +0.000 A 
ATOM      4  C   UNL     1       4.911   5.603  16.877  0.00  0.00    +0.000 A 
ATOM      5  N   UNL     1       5.492   5.089  15.695  0.00  0.00    +0.000 N 
ATOM      6  N   UNL     1       4.954   4.294  14.728  0.00  0.00    +0.000 NA
ATOM      7  C   UNL     1       6.003   4.085  13.921  0.00  0.00    +0.000 A 
ATOM      8  N   UNL     1       7.158   4.717  14.288  0.00  0.00    +0.000 NA
ATOM      9  C   UNL     1       6.842   5.345  15.386  0.00  0.00    +0.000 A 
ATOM     10  N   UNL     1       7.630   6.126  16.181  0.00  0.00    +0.000 NA
ENDROOT
BRANCH   7  11
ATOM     11  C   UNL     1       5.940   3.255  12.675  0.00  0.00    +0.000 C 
ATOM     12  C   UNL     1       4.657   3.548  11.894  0.00  0.00    +0.000 C 
ATOM     13  C   UNL     1       7.159   3.487  11.777  0.00  0.00    +0.000 C 
ENDBRANCH   7  11
BRANCH   4  14
ATOM     14  N   UNL     1       3.572   5.343  17.171  0.00  0.00    +0.000 N 
ATOM     15  H   UNL     1       3.013   5.065  16.361  0.00  0.00    +0.000 HD
BRANCH  14  16
ATOM     16  C   UNL     1       3.150   4.720  18.369  0.00  0.00    +0.000 A 
ATOM     17  C   UNL     1       3.719   3.494  18.735  0.00  0.00    +0.000 A 
ATOM     18  C   UNL     1       3.245   2.791  19.849  0.00  0.00    +0.000 A 
ATOM     19  C   UNL     1       2.221   3.326  20.626  0.00  0.00    +0.000 A 
ATOM     20 CL   UNL     1       1.609   2.444  21.969  0.00  0.00    +0.000 Cl
ATOM     21  C   UNL     1       1.678   4.567  20.310  0.00  0.00    +0.000 A 
ATOM     22  C   UNL     1       2.142   5.259  19.187  0.00  0.00    +0.000 A 
ENDBRANCH  14  16
ENDBRANCH   4  14
TORSDOF 3
ENDMDL
MODEL 2
REMARK VINA RESULT:      -8.2      1.384      1.692
REMARK  Name = 
REMARK  6 active torsions:
REMARK  status: ('A' for Active; 'I' for Inactive)
REMARK    1  A    between atoms: C_1  and  C_2
REMARK    2  A    between atoms: C_4  and  N_5
REMARK    3  A    between atoms: N_5  and  C_6
REMARK    4  A    between atoms: C_15  and  C_16
REMARK    5  A    between atoms: C_16  and  C_17
REMARK    6  A    between atoms: C_16  and  C_18
REMARK                            x       y       z     vdW  Elec       q    Type
REMARK                         _______ _______ _______ _____ _____    ______ ____
ROOT
ATOM      1  C   UNL     1       8.099   8.074  18.199  0.00  0.00    +0.000 C 
ATOM      2  C   UNL     1       7.549   6.847  17.518  0.00  0.00    +0.000 A 
ATOM      3  C   UNL     1       6.990   5.782  18.395  0.00  0.00    +0.000 A 
ATOM      4  C   UNL     1       6.466   4.698  17.796  0.00  0.00    +0.000 A 
ATOM      5  N   UNL     1       6.503   4.635  16.384  0.00  0.00    +0.000 N 
ATOM      6  N   UNL     1       6.074   3.656  15.539  0.00  0.00    +0.000 NA
ATOM      7  C   UNL     1       6.449   4.134  14.344  0.00  0.00    +0.000 A 
ATOM      8  N   UNL     1       7.052   5.359  14.367  0.00  0.00    +0.000 NA
ATOM      9  C   UNL     1       7.082   5.675  15.631  0.00  0.00    +0.000 A 
ATOM     10  N   UNL     1       7.592   6.796  16.220  0.00  0.00    +0.000 NA
ENDROOT
BRANCH   7  11
ATOM     11  C   UNL     1       6.204   3.418  13.050  0.00  0.00    +0.000 C 
ATOM     12  C   UNL     1       4.767   3.643  12.572  0.00  0.00    +0.000 C 
ATOM     13  C   UNL     1       7.187   3.861  11.963  0.00  0.00    +0.000 C 
ENDBRANCH   7  11
BRANCH   4  14
ATOM     14  N   UNL     1       5.888   3.661  18.530  0.00  0.00    +0.000 N 
ATOM     15  H   UNL     1       6.439   3.366  19.339  0.00  0.00    +0.000 HD
BRANCH  14  16
ATOM     16  C   UNL     1       4.495   3.547  18.743  0.00  0.00    +0.000 A 
ATOM     17  C   UNL     1       3.871   4.421  19.642  0.00  0.00    +0.000 A 
ATOM     18  C   UNL     1       2.517   4.265  19.967  0.00  0.00    +0.000 A 
ATOM     19  C   UNL     1       1.770   3.253  19.369  0.00  0.00    +0.000 A 
ATOM     20 CL   UNL     1       0.120   3.033  19.800  0.00  0.00    +0.000 Cl
ATOM     21  C   UNL     1       2.358   2.408  18.434  0.00  0.00    +0.000 A 
ATOM     22  C   UNL     1       3.713   2.556  18.124  0.00  0.00    +0.000 A 
ENDBRANCH  14  16
ENDBRANCH   4  14
TORSDOF 3
ENDMDL
MODEL 3
REMARK VINA RESULT:      -8.2      0.868      1.344
REMARK  Name = 
REMARK  6 active torsions:
REMARK  status: ('A' for Active; 'I' for Inactive)
REMARK    1  A    between atoms: C_1  and  C_2
REMARK    2  A    between atoms: C_4  and  N_5
REMARK    3  A    between atoms: N_5  and  C_6
REMARK    4  A    between atoms: C_15  and  C_16
REMARK    5  A    between atoms: C_16  and  C_17
REMARK    6  A    between atoms: C_16  and  C_18
REMARK                            x       y       z     vdW  Elec       q    Type
REMARK                         _______ _______ _______ _____ _____    ______ ____
ROOT
ATOM      1  C   UNL     1       7.860   5.955  19.269  0.00  0.00    +0.000 C 
ATOM      2  C   UNL     1       7.084   5.457  18.077  0.00  0.00    +0.000 A 
ATOM      3  C   UNL     1       5.617   5.277  18.255  0.00  0.00    +0.000 A 
ATOM      4  C   UNL     1       4.909   4.865  17.188  0.00  0.00    +0.000 A 
ATOM      5  N   UNL     1       5.607   4.612  15.985  0.00  0.00    +0.000 N 
ATOM      6  N   UNL     1       5.146   4.167  14.782  0.00  0.00    +0.000 NA
ATOM      7  C   UNL     1       6.279   4.052  14.074  0.00  0.00    +0.000 A 
ATOM      8  N   UNL     1       7.418   4.424  14.729  0.00  0.00    +0.000 NA
ATOM      9  C   UNL     1       7.004   4.777  15.914  0.00  0.00    +0.000 A 
ATOM     10  N   UNL     1       7.734   5.223  16.977  0.00  0.00    +0.000 NA
ENDROOT
BRANCH   7  11
ATOM     11  C   UNL     1       6.323   3.589  12.650  0.00  0.00    +0.000 C 
ATOM     12  C   UNL     1       4.918   3.576  12.041  0.00  0.00    +0.000 C 
ATOM     13  C   UNL     1       7.249   4.463  11.798  0.00  0.00    +0.000 C 
ENDBRANCH   7  11
BRANCH   4  14
ATOM     14  N   UNL     1       3.525   4.699  17.245  0.00  0.00    +0.000 N 
ATOM     15  H   UNL     1       3.096   4.465  16.347  0.00  0.00    +0.000 HD
BRANCH  14  16
ATOM     16  C   UNL     1       2.861   4.102  18.343  0.00  0.00    +0.000 A 
ATOM     17  C   UNL     1       2.074   4.903  19.179  0.00  0.00    +0.000 A 
ATOM     18  C   UNL     1       1.497   4.372  20.339  0.00  0.00    +0.000 A 
ATOM     19  C   UNL     1       1.676   3.028  20.653  0.00  0.00    +0.000 A 
ATOM     20 CL   UNL     1       1.004   2.385  22.100  0.00  0.00    +0.000 Cl
ATOM     21  C   UNL     1       2.410   2.203  19.808  0.00  0.00    +0.000 A 
ATOM     22  C   UNL     1       2.999   2.739  18.659  0.00  0.00    +0.000 A 
ENDBRANCH  14  16
ENDBRANCH   4  14
TORSDOF 3
ENDMDL
MODEL 4
REMARK VINA RESULT:      -8.2      1.148      1.463
REMARK  Name = 
REMARK  6 active torsions:
REMARK  status: ('A' for Active; 'I' for Inactive)
REMARK    1  A    between atoms: C_1  and  C_2
REMARK    2  A    between atoms: C_4  and  N_5
REMARK    3  A    between atoms: N_5  and  C_6
REMARK    4  A    between atoms: C_15  and  C_16
REMARK    5  A    between atoms: C_16  and  C_17
REMARK    6  A    between atoms: C_16  and  C_18
REMARK                            x       y       z     vdW  Elec       q    Type
REMARK                         _______ _______ _______ _____ _____    ______ ____
ROOT
ATOM      1  C   UNL     1       7.727   6.789  18.210  0.00  0.00    +0.000 C 
ATOM      2  C   UNL     1       7.130   5.844  17.198  0.00  0.00    +0.000 A 
ATOM      3  C   UNL     1       6.245   4.768  17.721  0.00  0.00    +0.000 A 
ATOM      4  C   UNL     1       5.680   3.940  16.824  0.00  0.00    +0.000 A 
ATOM      5  N   UNL     1       5.982   4.136  15.457  0.00  0.00    +0.000 N 
ATOM      6  N   UNL     1       5.574   3.436  14.361  0.00  0.00    +0.000 NA
ATOM      7  C   UNL     1       6.247   4.044  13.374  0.00  0.00    +0.000 A 
ATOM      8  N   UNL     1       7.025   5.099  13.760  0.00  0.00    +0.000 NA
ATOM      9  C   UNL     1       6.858   5.161  15.052  0.00  0.00    +0.000 A 
ATOM     10  N   UNL     1       7.417   6.029  15.945  0.00  0.00    +0.000 NA
ENDROOT
BRANCH   7  11
ATOM     11  C   UNL     1       6.147   3.646  11.933  0.00  0.00    +0.000 C 
ATOM     12  C   UNL     1       7.118   2.504  11.619  0.00  0.00    +0.000 C 
ATOM     13  C   UNL     1       4.722   3.232  11.557  0.00  0.00    +0.000 C 
ENDBRANCH   7  11
BRANCH   4  14
ATOM     14  N   UNL     1       4.809   2.921  17.212  0.00  0.00    +0.000 N 
ATOM     15  H   UNL     1       5.183   1.979  17.074  0.00  0.00    +0.000 HD
BRANCH  14  16
ATOM     16  C   UNL     1       3.960   3.015  18.338  0.00  0.00    +0.000 A 
ATOM     17  C   UNL     1       4.370   2.445  19.550  0.00  0.00    +0.000 A 
ATOM     18  C   UNL     1       3.509   2.416  20.653  0.00  0.00    +0.000 A 
ATOM     19  C   UNL     1       2.243   2.989  20.563  0.00  0.00    +0.000 A 
ATOM     20 CL   UNL     1       1.169   2.915  21.904  0.00  0.00    +0.000 Cl
ATOM     21  C   UNL     1       1.836   3.607  19.386  0.00  0.00    +0.000 A 
ATOM     22  C   UNL     1       2.692   3.619  18.281  0.00  0.00    +0.000 A 
ENDBRANCH  14  16
ENDBRANCH   4  14
TORSDOF 3
ENDMDL
MODEL 5
REMARK VINA RESULT:      -8.1      1.394      1.488
REMARK  Name = 
REMARK  6 active torsions:
REMARK  status: ('A' for Active; 'I' for Inactive)
REMARK    1  A    between atoms: C_1  and  C_2
REMARK    2  A    between atoms: C_4  and  N_5
REMARK    3  A    between atoms: N_5  and  C_6
REMARK    4  A    between atoms: C_15  and  C_16
REMARK    5  A    between atoms: C_16  and  C_17
REMARK    6  A    between atoms: C_16  and  C_18
REMARK                            x       y       z     vdW  Elec       q    Type
REMARK                         _______ _______ _______ _____ _____    ______ ____
ROOT
ATOM      1  C   UNL     1       8.130   8.139  18.283  0.00  0.00    +0.000 C 
ATOM      2  C   UNL     1       7.584   6.906  17.608  0.00  0.00    +0.000 A 
ATOM      3  C   UNL     1       7.075   5.823  18.493  0.00  0.00    +0.000 A 
ATOM      4  C   UNL     1       6.554   4.733  17.901  0.00  0.00    +0.000 A 
ATOM      5  N   UNL     1       6.547   4.684  16.488  0.00  0.00    +0.000 N 
ATOM      6  N   UNL     1       6.111   3.703  15.648  0.00  0.00    +0.000 NA
ATOM      7  C   UNL     1       6.437   4.199  14.446  0.00  0.00    +0.000 A 
ATOM      8  N   UNL     1       7.016   5.435  14.461  0.00  0.00    +0.000 NA
ATOM      9  C   UNL     1       7.080   5.742  15.727  0.00  0.00    +0.000 A 
ATOM     10  N   UNL     1       7.585   6.868  16.309  0.00  0.00    +0.000 NA
ENDROOT
BRANCH   7  11
ATOM     11  C   UNL     1       6.166   3.489  13.154  0.00  0.00    +0.000 C 
ATOM     12  C   UNL     1       4.721   3.721  12.704  0.00  0.00    +0.000 C 
ATOM     13  C   UNL     1       7.130   3.933  12.050  0.00  0.00    +0.000 C 
ENDBRANCH   7  11
BRANCH   4  14
ATOM     14  N   UNL     1       6.021   3.679  18.643  0.00  0.00    +0.000 N 
ATOM     15  H   UNL     1       6.660   3.298  19.344  0.00  0.00    +0.000 HD
BRANCH  14  16
ATOM     16  C   UNL     1       4.667   3.623  19.047  0.00  0.00    +0.000 A 
ATOM     17  C   UNL     1       3.931   2.458  18.799  0.00  0.00    +0.000 A 
ATOM     18  C   UNL     1       2.559   2.406  19.078  0.00  0.00    +0.000 A 
ATOM     19  C   UNL     1       1.922   3.510  19.639  0.00  0.00    +0.000 A 
ATOM     20 CL   UNL     1       0.229   3.464  19.942  0.00  0.00    +0.000 Cl
ATOM     21  C   UNL     1       2.645   4.658  19.942  0.00  0.00    +0.000 A 
ATOM     22  C   UNL     1       4.011   4.712  19.647  0.00  0.00    +0.000 A 
ENDBRANCH  14  16
ENDBRANCH   4  14
TORSDOF 3
ENDMDL
MODEL 6
REMARK VINA RESULT:      -7.8      1.758      2.289
REMARK  Name = 
REMARK  6 active torsions:
REMARK  status: ('A' for Active; 'I' for Inactive)
REMARK    1  A    between atoms: C_1  and  C_2
REMARK    2  A    between atoms: C_4  and  N_5
REMARK    3  A    between atoms: N_5  and  C_6
REMARK    4  A    between atoms: C_15  and  C_16
REMARK    5  A    between atoms: C_16  and  C_17
REMARK    6  A    between atoms: C_16  and  C_18
REMARK                            x       y       z     vdW  Elec       q    Type
REMARK                         _______ _______ _______ _____ _____    ______ ____
ROOT
ATOM      1  C   UNL     1       7.995   7.822  18.184  0.00  0.00    +0.000 C 
ATOM      2  C   UNL     1       7.189   6.885  17.321  0.00  0.00    +0.000 A 
ATOM      3  C   UNL     1       5.818   6.548  17.791  0.00  0.00    +0.000 A 
ATOM      4  C   UNL     1       5.077   5.740  17.011  0.00  0.00    +0.000 A 
ATOM      5  N   UNL     1       5.657   5.252  15.818  0.00  0.00    +0.000 N 
ATOM      6  N   UNL     1       5.147   4.410  14.875  0.00  0.00    +0.000 NA
ATOM      7  C   UNL     1       6.185   4.264  14.039  0.00  0.00    +0.000 A 
ATOM      8  N   UNL     1       7.303   4.977  14.365  0.00  0.00    +0.000 NA
ATOM      9  C   UNL     1       6.977   5.596  15.466  0.00  0.00    +0.000 A 
ATOM     10  N   UNL     1       7.733   6.438  16.229  0.00  0.00    +0.000 NA
ENDROOT
BRANCH   7  11
ATOM     11  C   UNL     1       6.143   3.416  12.805  0.00  0.00    +0.000 C 
ATOM     12  C   UNL     1       4.747   3.444  12.177  0.00  0.00    +0.000 C 
ATOM     13  C   UNL     1       7.184   3.862  11.775  0.00  0.00    +0.000 C 
ENDBRANCH   7  11
BRANCH   4  14
ATOM     14  N   UNL     1       3.768   5.392  17.348  0.00  0.00    +0.000 N 
ATOM     15  H   UNL     1       3.589   4.385  17.340  0.00  0.00    +0.000 HD
BRANCH  14  16
ATOM     16  C   UNL     1       3.013   6.077  18.329  0.00  0.00    +0.000 A 
ATOM     17  C   UNL     1       2.618   7.398  18.084  0.00  0.00    +0.000 A 
ATOM     18  C   UNL     1       1.972   8.145  19.075  0.00  0.00    +0.000 A 
ATOM     19  C   UNL     1       1.685   7.565  20.308  0.00  0.00    +0.000 A 
ATOM     20 CL   UNL     1       0.931   8.496  21.542  0.00  0.00    +0.000 Cl
ATOM     21  C   UNL     1       2.022   6.238  20.554  0.00  0.00    +0.000 A 
ATOM     22  C   UNL     1       2.682   5.500  19.567  0.00  0.00    +0.000 A 
ENDBRANCH  14  16
ENDBRANCH   4  14
TORSDOF 3
ENDMDL
MODEL 7
REMARK VINA RESULT:      -7.8      3.514      5.709
REMARK  Name = 
REMARK  6 active torsions:
REMARK  status: ('A' for Active; 'I' for Inactive)
REMARK    1  A    between atoms: C_1  and  C_2
REMARK    2  A    between atoms: C_4  and  N_5
REMARK    3  A    between atoms: N_5  and  C_6
REMARK    4  A    between atoms: C_15  and  C_16
REMARK    5  A    between atoms: C_16  and  C_17
REMARK    6  A    between atoms: C_16  and  C_18
REMARK                            x       y       z     vdW  Elec       q    Type
REMARK                         _______ _______ _______ _____ _____    ______ ____
ROOT
ATOM      1  C   UNL     1       0.602   2.260  18.922  0.00  0.00    +0.000 C 
ATOM      2  C   UNL     1       1.723   3.266  18.851  0.00  0.00    +0.000 A 
ATOM      3  C   UNL     1       1.574   4.499  19.671  0.00  0.00    +0.000 A 
ATOM      4  C   UNL     1       2.584   5.388  19.642  0.00  0.00    +0.000 A 
ATOM      5  N   UNL     1       3.699   5.100  18.822  0.00  0.00    +0.000 N 
ATOM      6  N   UNL     1       4.827   5.829  18.590  0.00  0.00    +0.000 NA
ATOM      7  C   UNL     1       5.461   5.080  17.677  0.00  0.00    +0.000 A 
ATOM      8  N   UNL     1       4.834   3.915  17.338  0.00  0.00    +0.000 NA
ATOM      9  C   UNL     1       3.742   3.922  18.052  0.00  0.00    +0.000 A 
ATOM     10  N   UNL     1       2.741   2.995  18.092  0.00  0.00    +0.000 NA
ENDROOT
BRANCH   7  11
ATOM     11  C   UNL     1       6.785   5.446  17.077  0.00  0.00    +0.000 C 
ATOM     12  C   UNL     1       7.157   6.889  17.429  0.00  0.00    +0.000 C 
ATOM     13  C   UNL     1       7.897   4.498  17.535  0.00  0.00    +0.000 C 
ENDBRANCH   7  11
BRANCH   4  14
ATOM     14  N   UNL     1       2.554   6.559  20.400  0.00  0.00    +0.000 N 
ATOM     15  H   UNL     1       3.407   6.729  20.938  0.00  0.00    +0.000 HD
BRANCH  14  16
ATOM     16  C   UNL     1       1.936   7.752  19.959  0.00  0.00    +0.000 A 
ATOM     17  C   UNL     1       1.135   8.473  20.852  0.00  0.00    +0.000 A 
ATOM     18  C   UNL     1       0.414   9.594  20.420  0.00  0.00    +0.000 A 
ATOM     19  C   UNL     1       0.517  10.020  19.099  0.00  0.00    +0.000 A 
ATOM     20 CL   UNL     1      -0.401  11.369  18.556  0.00  0.00    +0.000 Cl
ATOM     21  C   UNL     1       1.348   9.349  18.209  0.00  0.00    +0.000 A 
ATOM     22  C   UNL     1       2.053   8.220  18.639  0.00  0.00    +0.000 A 
ENDBRANCH  14  16
ENDBRANCH   4  14
TORSDOF 3
ENDMDL
MODEL 8
REMARK VINA RESULT:      -7.8      1.262      1.774
REMARK  Name = 
REMARK  6 active torsions:
REMARK  status: ('A' for Active; 'I' for Inactive)
REMARK    1  A    between atoms: C_1  and  C_2
REMARK    2  A    between atoms: C_4  and  N_5
REMARK    3  A    between atoms: N_5  and  C_6
REMARK    4  A    between atoms: C_15  and  C_16
REMARK    5  A    between atoms: C_16  and  C_17
REMARK    6  A    between atoms: C_16  and  C_18
REMARK                            x       y       z     vdW  Elec       q    Type
REMARK                         _______ _______ _______ _____ _____    ______ ____
ROOT
ATOM      1  C   UNL     1       7.934   6.904  18.125  0.00  0.00    +0.000 C 
ATOM      2  C   UNL     1       7.322   5.932  17.149  0.00  0.00    +0.000 A 
ATOM      3  C   UNL     1       6.474   4.849  17.717  0.00  0.00    +0.000 A 
ATOM      4  C   UNL     1       5.896   3.997  16.852  0.00  0.00    +0.000 A 
ATOM      5  N   UNL     1       6.151   4.174  15.473  0.00  0.00    +0.000 N 
ATOM      6  N   UNL     1       5.722   3.449  14.402  0.00  0.00    +0.000 NA
ATOM      7  C   UNL     1       6.352   4.052  13.384  0.00  0.00    +0.000 A 
ATOM      8  N   UNL     1       7.122   5.127  13.728  0.00  0.00    +0.000 NA
ATOM      9  C   UNL     1       6.995   5.208  15.023  0.00  0.00    +0.000 A 
ATOM     10  N   UNL     1       7.566   6.101  15.884  0.00  0.00    +0.000 NA
ENDROOT
BRANCH   7  11
ATOM     11  C   UNL     1       6.214   3.628  11.954  0.00  0.00    +0.000 C 
ATOM     12  C   UNL     1       7.161   2.466  11.641  0.00  0.00    +0.000 C 
ATOM     13  C   UNL     1       4.775   3.228  11.618  0.00  0.00    +0.000 C 
ENDBRANCH   7  11
BRANCH   4  14
ATOM     14  N   UNL     1       5.057   2.969  17.284  0.00  0.00    +0.000 N 
ATOM     15  H   UNL     1       5.548   2.107  17.532  0.00  0.00    +0.000 HD
BRANCH  14  16
ATOM     16  C   UNL     1       3.904   3.191  18.072  0.00  0.00    +0.000 A 
ATOM     17  C   UNL     1       2.851   3.945  17.540  0.00  0.00    +0.000 A 
ATOM     18  C   UNL     1       1.745   4.283  18.329  0.00  0.00    +0.000 A 
ATOM     19  C   UNL     1       1.669   3.840  19.647  0.00  0.00    +0.000 A 
ATOM     20 CL   UNL     1       0.332   4.292  20.631  0.00  0.00    +0.000 Cl
ATOM     21  C   UNL     1       2.679   3.046  20.179  0.00  0.00    +0.000 A 
ATOM     22  C   UNL     1       3.790   2.723  19.393  0.00  0.00    +0.000 A 
ENDBRANCH  14  16
ENDBRANCH   4  14
TORSDOF 3
ENDMDL
MODEL 9
REMARK VINA RESULT:      -7.8      0.779      1.510
REMARK  Name = 
REMARK  6 active torsions:
REMARK  status: ('A' for Active; 'I' for Inactive)
REMARK    1  A    between atoms: C_1  and  C_2
REMARK    2  A    between atoms: C_4  and  N_5
REMARK    3  A    between atoms: N_5  and  C_6
REMARK    4  A    between atoms: C_15  and  C_16
REMARK    5  A    between atoms: C_16  and  C_17
REMARK    6  A    between atoms: C_16  and  C_18
REMARK                            x       y       z     vdW  Elec       q    Type
REMARK                         _______ _______ _______ _____ _____    ______ ____
ROOT
ATOM      1  C   UNL     1       7.653   6.553  18.237  0.00  0.00    +0.000 C 
ATOM      2  C   UNL     1       6.907   5.833  17.142  0.00  0.00    +0.000 A 
ATOM      3  C   UNL     1       5.536   5.352  17.464  0.00  0.00    +0.000 A 
ATOM      4  C   UNL     1       4.848   4.739  16.484  0.00  0.00    +0.000 A 
ATOM      5  N   UNL     1       5.481   4.575  15.231  0.00  0.00    +0.000 N 
ATOM      6  N   UNL     1       5.030   3.975  14.093  0.00  0.00    +0.000 NA
ATOM      7  C   UNL     1       6.096   4.067  13.286  0.00  0.00    +0.000 A 
ATOM      8  N   UNL     1       7.177   4.711  13.817  0.00  0.00    +0.000 NA
ATOM      9  C   UNL     1       6.797   5.032  15.022  0.00  0.00    +0.000 A 
ATOM     10  N   UNL     1       7.498   5.683  15.995  0.00  0.00    +0.000 NA
ENDROOT
BRANCH   7  11
ATOM     11  C   UNL     1       6.121   3.546  11.881  0.00  0.00    +0.000 C 
ATOM     12  C   UNL     1       7.212   2.484  11.718  0.00  0.00    +0.000 C 
ATOM     13  C   UNL     1       4.766   2.964  11.468  0.00  0.00    +0.000 C 
ENDBRANCH   7  11
BRANCH   4  14
ATOM     14  N   UNL     1       3.544   4.282  16.677  0.00  0.00    +0.000 N 
ATOM     15  H   UNL     1       3.160   3.768  15.880  0.00  0.00    +0.000 HD
BRANCH  14  16
ATOM     16  C   UNL     1       3.067   3.804  17.920  0.00  0.00    +0.000 A 
ATOM     17  C   UNL     1       2.023   4.488  18.556  0.00  0.00    +0.000 A 
ATOM     18  C   UNL     1       1.603   4.115  19.838  0.00  0.00    +0.000 A 
ATOM     19  C   UNL     1       2.201   3.034  20.480  0.00  0.00    +0.000 A 
ATOM     20 CL   UNL     1       1.716   2.604  22.073  0.00  0.00    +0.000 Cl
ATOM     21  C   UNL     1       3.203   2.309  19.844  0.00  0.00    +0.000 A 
ATOM     22  C   UNL     1       3.632   2.694  18.570  0.00  0.00    +0.000 A 
ENDBRANCH  14  16
ENDBRANCH   4  14
TORSDOF 3
ENDMDL
