MODEL 1
REMARK VINA RESULT:      -7.5      0.000      0.000
REMARK  Name = 
REMARK  4 active torsions:
REMARK  status: ('A' for Active; 'I' for Inactive)
REMARK    1  A    between atoms: C_1  and  N_2
REMARK    2  A    between atoms: C_4  and  C_5
REMARK    3  A    between atoms: C_5  and  N_6
REMARK    4  A    between atoms: C_12  and  C_13
REMARK                            x       y       z     vdW  Elec       q    Type
REMARK                         _______ _______ _______ _____ _____    ______ ____
ROOT
ATOM      1  N   UNL     1       2.217   7.030  20.344  0.00  0.00    +0.000 NA
ATOM      2  C   UNL     1       1.342   5.973  20.829  0.00  0.00    +0.000 C 
ATOM      3  C   UNL     1       1.775   4.739  20.048  0.00  0.00    +0.000 C 
ATOM      4  C   UNL     1       1.615   3.536  20.930  0.00  0.00    +0.000 C 
ATOM      5  O   UNL     1       2.574   2.624  20.457  0.00  0.00    +0.000 OA
ATOM      6  C   UNL     1       3.594   3.380  19.760  0.00  0.00    +0.000 C 
ATOM      7  C   UNL     1       3.248   4.914  19.682  0.00  0.00    +0.000 C 
ATOM      8  C   UNL     1       2.995   6.401  19.242  0.00  0.00    +0.000 C 
ENDROOT
BRANCH   7   9
ATOM      9  C   UNL     1       4.022   4.817  18.269  0.00  0.00    +0.000 C 
ATOM     10  O   UNL     1       3.431   4.687  17.211  0.00  0.00    +0.000 OA
ATOM     11  N   UNL     1       5.415   4.748  18.341  0.00  0.00    +0.000 N 
ATOM     12  C   UNL     1       6.321   4.539  17.220  0.00  0.00    +0.000 C 
ATOM     13  C   UNL     1       7.686   4.659  17.844  0.00  0.00    +0.000 C 
ATOM     14  C   UNL     1       7.416   5.748  18.855  0.00  0.00    +0.000 C 
ATOM     15  O   UNL     1       6.096   5.457  19.367  0.00  0.00    +0.000 OA
ENDBRANCH   7   9
BRANCH   1  16
ATOM     16  C   UNL     1       1.470   8.218  19.905  0.00  0.00    +0.000 C 
BRANCH  16  20
ATOM     17  C   UNL     1      -1.321  11.037  23.023  0.00  0.00    +0.000 C 
ATOM     18  N   UNL     1      -0.277  10.228  22.441  0.00  0.00    +0.000 N 
ATOM     19  C   UNL     1      -0.190   9.795  21.148  0.00  0.00    +0.000 A 
ATOM     20  C   UNL     1       0.942   8.999  21.077  0.00  0.00    +0.000 A 
ATOM     21  C   UNL     1       1.461   9.046  22.381  0.00  0.00    +0.000 A 
ATOM     22  N   UNL     1       0.734   9.794  23.215  0.00  0.00    +0.000 NA
ENDBRANCH  16  20
ENDBRANCH   1  16
TORSDOF 3
ENDMDL
MODEL 2
REMARK VINA RESULT:      -7.2      2.032      2.685
REMARK  Name = 
REMARK  4 active torsions:
REMARK  status: ('A' for Active; 'I' for Inactive)
REMARK    1  A    between atoms: C_1  and  N_2
REMARK    2  A    between atoms: C_4  and  C_5
REMARK    3  A    between atoms: C_5  and  N_6
REMARK    4  A    between atoms: C_12  and  C_13
REMARK                            x       y       z     vdW  Elec       q    Type
REMARK                         _______ _______ _______ _____ _____    ______ ____
ROOT
ATOM      1  N   UNL     1       2.735   6.595  18.627  0.00  0.00    +0.000 NA
ATOM      2  C   UNL     1       1.822   5.597  18.090  0.00  0.00    +0.000 C 
ATOM      3  C   UNL     1       2.716   4.410  17.758  0.00  0.00    +0.000 C 
ATOM      4  C   UNL     1       1.942   3.147  17.996  0.00  0.00    +0.000 C 
ATOM      5  O   UNL     1       2.920   2.188  18.309  0.00  0.00    +0.000 OA
ATOM      6  C   UNL     1       4.093   2.895  18.782  0.00  0.00    +0.000 C 
ATOM      7  C   UNL     1       3.920   4.458  18.698  0.00  0.00    +0.000 C 
ATOM      8  C   UNL     1       4.088   6.001  18.455  0.00  0.00    +0.000 C 
ENDROOT
BRANCH   7   9
ATOM      9  C   UNL     1       5.508   4.422  18.412  0.00  0.00    +0.000 C 
ATOM     10  O   UNL     1       6.330   4.374  19.309  0.00  0.00    +0.000 OA
ATOM     11  N   UNL     1       5.890   4.593  17.079  0.00  0.00    +0.000 N 
ATOM     12  C   UNL     1       7.256   4.714  16.589  0.00  0.00    +0.000 C 
ATOM     13  C   UNL     1       7.090   4.767  15.093  0.00  0.00    +0.000 C 
ATOM     14  C   UNL     1       5.940   3.803  14.924  0.00  0.00    +0.000 C 
ATOM     15  O   UNL     1       5.067   4.070  16.045  0.00  0.00    +0.000 OA
ENDBRANCH   7   9
BRANCH   1  16
ATOM     16  C   UNL     1       2.597   7.897  17.959  0.00  0.00    +0.000 C 
BRANCH  16  20
ATOM     17  C   UNL     1      -1.008  11.216  19.162  0.00  0.00    +0.000 C 
ATOM     18  N   UNL     1       0.050  10.235  19.212  0.00  0.00    +0.000 N 
ATOM     19  C   UNL     1       0.780   9.753  18.162  0.00  0.00    +0.000 A 
ATOM     20  C   UNL     1       1.626   8.789  18.684  0.00  0.00    +0.000 A 
ATOM     21  C   UNL     1       1.328   8.795  20.057  0.00  0.00    +0.000 A 
ATOM     22  N   UNL     1       0.379   9.674  20.389  0.00  0.00    +0.000 NA
ENDBRANCH  16  20
ENDBRANCH   1  16
TORSDOF 3
ENDMDL
MODEL 3
REMARK VINA RESULT:      -7.1      3.639      7.381
REMARK  Name = 
REMARK  4 active torsions:
REMARK  status: ('A' for Active; 'I' for Inactive)
REMARK    1  A    between atoms: C_1  and  N_2
REMARK    2  A    between atoms: C_4  and  C_5
REMARK    3  A    between atoms: C_5  and  N_6
REMARK    4  A    between atoms: C_12  and  C_13
REMARK                            x       y       z     vdW  Elec       q    Type
REMARK                         _______ _______ _______ _____ _____    ______ ____
ROOT
ATOM      1  N   UNL     1       6.164   5.222  18.108  0.00  0.00    +0.000 NA
ATOM      2  C   UNL     1       5.821   6.481  17.465  0.00  0.00    +0.000 C 
ATOM      3  C   UNL     1       4.312   6.407  17.273  0.00  0.00    +0.000 C 
ATOM      4  C   UNL     1       3.743   7.787  17.420  0.00  0.00    +0.000 C 
ATOM      5  O   UNL     1       2.430   7.581  17.875  0.00  0.00    +0.000 OA
ATOM      6  C   UNL     1       2.381   6.272  18.494  0.00  0.00    +0.000 C 
ATOM      7  C   UNL     1       3.749   5.501  18.367  0.00  0.00    +0.000 C 
ATOM      8  C   UNL     1       4.891   4.450  18.129  0.00  0.00    +0.000 C 
ENDROOT
BRANCH   7   9
ATOM      9  C   UNL     1       2.789   4.206  18.299  0.00  0.00    +0.000 C 
ATOM     10  O   UNL     1       2.478   3.681  17.245  0.00  0.00    +0.000 OA
ATOM     11  N   UNL     1       2.219   3.806  19.511  0.00  0.00    +0.000 N 
ATOM     12  C   UNL     1       1.235   2.747  19.685  0.00  0.00    +0.000 C 
ATOM     13  C   UNL     1       1.058   2.674  21.179  0.00  0.00    +0.000 C 
ATOM     14  C   UNL     1       2.476   2.946  21.623  0.00  0.00    +0.000 C 
ATOM     15  O   UNL     1       2.959   3.960  20.714  0.00  0.00    +0.000 OA
ENDBRANCH   7   9
BRANCH   1  16
ATOM     16  C   UNL     1       7.246   4.513  17.410  0.00  0.00    +0.000 C 
BRANCH  16  20
ATOM     17  C   UNL     1       5.553   3.513  12.764  0.00  0.00    +0.000 C 
ATOM     18  N   UNL     1       6.274   4.047  13.895  0.00  0.00    +0.000 N 
ATOM     19  C   UNL     1       6.198   3.632  15.194  0.00  0.00    +0.000 A 
ATOM     20  C   UNL     1       7.014   4.480  15.924  0.00  0.00    +0.000 A 
ATOM     21  C   UNL     1       7.542   5.347  14.954  0.00  0.00    +0.000 A 
ATOM     22  N   UNL     1       7.106   5.089  13.719  0.00  0.00    +0.000 NA
ENDBRANCH  16  20
ENDBRANCH   1  16
TORSDOF 3
ENDMDL
MODEL 4
REMARK VINA RESULT:      -7.1      1.463      2.194
REMARK  Name = 
REMARK  4 active torsions:
REMARK  status: ('A' for Active; 'I' for Inactive)
REMARK    1  A    between atoms: C_1  and  N_2
REMARK    2  A    between atoms: C_4  and  C_5
REMARK    3  A    between atoms: C_5  and  N_6
REMARK    4  A    between atoms: C_12  and  C_13
REMARK                            x       y       z     vdW  Elec       q    Type
REMARK                         _______ _______ _______ _____ _____    ______ ____
ROOT
ATOM      1  N   UNL     1       2.649   6.351  19.526  0.00  0.00    +0.000 NA
ATOM      2  C   UNL     1       1.843   5.247  19.023  0.00  0.00    +0.000 C 
ATOM      3  C   UNL     1       2.864   4.220  18.554  0.00  0.00    +0.000 C 
ATOM      4  C   UNL     1       2.308   2.848  18.796  0.00  0.00    +0.000 C 
ATOM      5  O   UNL     1       3.441   2.035  18.972  0.00  0.00    +0.000 OA
ATOM      6  C   UNL     1       4.538   2.891  19.374  0.00  0.00    +0.000 C 
ATOM      7  C   UNL     1       4.133   4.413  19.384  0.00  0.00    +0.000 C 
ATOM      8  C   UNL     1       4.051   5.971  19.204  0.00  0.00    +0.000 C 
ENDROOT
BRANCH   7   9
ATOM      9  C   UNL     1       5.674   4.625  18.955  0.00  0.00    +0.000 C 
ATOM     10  O   UNL     1       6.558   4.812  19.773  0.00  0.00    +0.000 OA
ATOM     11  N   UNL     1       5.917   4.722  17.583  0.00  0.00    +0.000 N 
ATOM     12  C   UNL     1       7.197   5.028  16.960  0.00  0.00    +0.000 C 
ATOM     13  C   UNL     1       6.911   4.899  15.487  0.00  0.00    +0.000 C 
ATOM     14  C   UNL     1       5.945   3.738  15.509  0.00  0.00    +0.000 C 
ATOM     15  O   UNL     1       5.127   3.962  16.679  0.00  0.00    +0.000 OA
ENDBRANCH   7   9
BRANCH   1  16
ATOM     16  C   UNL     1       2.260   7.641  18.939  0.00  0.00    +0.000 C 
BRANCH  16  20
ATOM     17  C   UNL     1       0.041   9.530  23.058  0.00  0.00    +0.000 C 
ATOM     18  N   UNL     1       0.501   9.301  21.709  0.00  0.00    +0.000 N 
ATOM     19  C   UNL     1       1.189   8.216  21.243  0.00  0.00    +0.000 A 
ATOM     20  C   UNL     1       1.468   8.472  19.911  0.00  0.00    +0.000 A 
ATOM     21  C   UNL     1       0.882   9.729  19.686  0.00  0.00    +0.000 A 
ATOM     22  N   UNL     1       0.286  10.237  20.767  0.00  0.00    +0.000 NA
ENDBRANCH  16  20
ENDBRANCH   1  16
TORSDOF 3
ENDMDL
MODEL 5
REMARK VINA RESULT:      -7.1      4.207      8.330
REMARK  Name = 
REMARK  4 active torsions:
REMARK  status: ('A' for Active; 'I' for Inactive)
REMARK    1  A    between atoms: C_1  and  N_2
REMARK    2  A    between atoms: C_4  and  C_5
REMARK    3  A    between atoms: C_5  and  N_6
REMARK    4  A    between atoms: C_12  and  C_13
REMARK                            x       y       z     vdW  Elec       q    Type
REMARK                         _______ _______ _______ _____ _____    ______ ____
ROOT
ATOM      1  N   UNL     1       6.606   4.237  15.369  0.00  0.00    +0.000 NA
ATOM      2  C   UNL     1       7.628   4.768  16.259  0.00  0.00    +0.000 C 
ATOM      3  C   UNL     1       6.845   5.345  17.430  0.00  0.00    +0.000 C 
ATOM      4  C   UNL     1       7.650   5.160  18.682  0.00  0.00    +0.000 C 
ATOM      5  O   UNL     1       6.694   5.086  19.709  0.00  0.00    +0.000 OA
ATOM      6  C   UNL     1       5.437   4.686  19.110  0.00  0.00    +0.000 C 
ATOM      7  C   UNL     1       5.535   4.565  17.543  0.00  0.00    +0.000 C 
ATOM      8  C   UNL     1       5.316   4.647  15.990  0.00  0.00    +0.000 C 
ENDROOT
BRANCH   7   9
ATOM      9  C   UNL     1       3.998   5.052  17.605  0.00  0.00    +0.000 C 
ATOM     10  O   UNL     1       3.660   6.182  17.300  0.00  0.00    +0.000 OA
ATOM     11  N   UNL     1       3.094   4.144  18.164  0.00  0.00    +0.000 N 
ATOM     12  C   UNL     1       1.686   4.397  18.434  0.00  0.00    +0.000 C 
ATOM     13  C   UNL     1       1.179   3.066  18.925  0.00  0.00    +0.000 C 
ATOM     14  C   UNL     1       1.984   2.139  18.045  0.00  0.00    +0.000 C 
ATOM     15  O   UNL     1       3.290   2.752  17.963  0.00  0.00    +0.000 OA
ENDBRANCH   7   9
BRANCH   1  16
ATOM     16  C   UNL     1       6.754   4.728  13.992  0.00  0.00    +0.000 C 
BRANCH  16  20
ATOM     17  C   UNL     1       3.400   2.865  10.715  0.00  0.00    +0.000 C 
ATOM     18  N   UNL     1       4.538   3.052  11.583  0.00  0.00    +0.000 N 
ATOM     19  C   UNL     1       4.750   4.078  12.459  0.00  0.00    +0.000 A 
ATOM     20  C   UNL     1       6.000   3.866  13.016  0.00  0.00    +0.000 A 
ATOM     21  C   UNL     1       6.432   2.673  12.414  0.00  0.00    +0.000 A 
ATOM     22  N   UNL     1       5.550   2.166  11.548  0.00  0.00    +0.000 NA
ENDBRANCH  16  20
ENDBRANCH   1  16
TORSDOF 3
ENDMDL
MODEL 6
REMARK VINA RESULT:      -7.0      3.993      8.555
REMARK  Name = 
REMARK  4 active torsions:
REMARK  status: ('A' for Active; 'I' for Inactive)
REMARK    1  A    between atoms: C_1  and  N_2
REMARK    2  A    between atoms: C_4  and  C_5
REMARK    3  A    between atoms: C_5  and  N_6
REMARK    4  A    between atoms: C_12  and  C_13
REMARK                            x       y       z     vdW  Elec       q    Type
REMARK                         _______ _______ _______ _____ _____    ______ ____
ROOT
ATOM      1  N   UNL     1       6.021   4.369  15.309  0.00  0.00    +0.000 NA
ATOM      2  C   UNL     1       7.177   4.837  16.059  0.00  0.00    +0.000 C 
ATOM      3  C   UNL     1       6.593   5.366  17.361  0.00  0.00    +0.000 C 
ATOM      4  C   UNL     1       7.572   5.104  18.466  0.00  0.00    +0.000 C 
ATOM      5  O   UNL     1       6.779   4.993  19.621  0.00  0.00    +0.000 OA
ATOM      6  C   UNL     1       5.437   4.644  19.201  0.00  0.00    +0.000 C 
ATOM      7  C   UNL     1       5.297   4.602  17.632  0.00  0.00    +0.000 C 
ATOM      8  C   UNL     1       4.849   4.766  16.136  0.00  0.00    +0.000 C 
ENDROOT
BRANCH   7   9
ATOM      9  C   UNL     1       3.798   5.110  17.949  0.00  0.00    +0.000 C 
ATOM     10  O   UNL     1       3.458   6.269  17.797  0.00  0.00    +0.000 OA
ATOM     11  N   UNL     1       2.950   4.171  18.543  0.00  0.00    +0.000 N 
ATOM     12  C   UNL     1       1.600   4.423  19.026  0.00  0.00    +0.000 C 
ATOM     13  C   UNL     1       1.122   3.062  19.460  0.00  0.00    +0.000 C 
ATOM     14  C   UNL     1       1.771   2.207  18.398  0.00  0.00    +0.000 C 
ATOM     15  O   UNL     1       3.074   2.800  18.192  0.00  0.00    +0.000 OA
ENDBRANCH   7   9
BRANCH   1  16
ATOM     16  C   UNL     1       5.972   4.926  13.950  0.00  0.00    +0.000 C 
BRANCH  16  20
ATOM     17  C   UNL     1       6.329   0.865  10.976  0.00  0.00    +0.000 C 
ATOM     18  N   UNL     1       5.891   2.078  11.625  0.00  0.00    +0.000 N 
ATOM     19  C   UNL     1       6.584   2.828  12.533  0.00  0.00    +0.000 A 
ATOM     20  C   UNL     1       5.739   3.853  12.922  0.00  0.00    +0.000 A 
ATOM     21  C   UNL     1       4.576   3.627  12.167  0.00  0.00    +0.000 A 
ATOM     22  N   UNL     1       4.659   2.558  11.372  0.00  0.00    +0.000 NA
ENDBRANCH  16  20
ENDBRANCH   1  16
TORSDOF 3
ENDMDL
MODEL 7
REMARK VINA RESULT:      -6.8      2.427      7.141
REMARK  Name = 
REMARK  4 active torsions:
REMARK  status: ('A' for Active; 'I' for Inactive)
REMARK    1  A    between atoms: C_1  and  N_2
REMARK    2  A    between atoms: C_4  and  C_5
REMARK    3  A    between atoms: C_5  and  N_6
REMARK    4  A    between atoms: C_12  and  C_13
REMARK                            x       y       z     vdW  Elec       q    Type
REMARK                         _______ _______ _______ _____ _____    ______ ____
ROOT
ATOM      1  N   UNL     1       4.298   4.251  17.662  0.00  0.00    +0.000 NA
ATOM      2  C   UNL     1       3.800   2.890  17.795  0.00  0.00    +0.000 C 
ATOM      3  C   UNL     1       2.843   2.953  18.978  0.00  0.00    +0.000 C 
ATOM      4  C   UNL     1       1.719   1.990  18.736  0.00  0.00    +0.000 C 
ATOM      5  O   UNL     1       0.631   2.533  19.440  0.00  0.00    +0.000 OA
ATOM      6  C   UNL     1       0.881   3.950  19.611  0.00  0.00    +0.000 C 
ATOM      7  C   UNL     1       2.291   4.377  19.053  0.00  0.00    +0.000 C 
ATOM      8  C   UNL     1       3.724   4.978  18.827  0.00  0.00    +0.000 C 
ENDROOT
BRANCH   7   9
ATOM      9  C   UNL     1       2.230   5.442  20.263  0.00  0.00    +0.000 C 
ATOM     10  O   UNL     1       2.450   5.128  21.419  0.00  0.00    +0.000 OA
ATOM     11  N   UNL     1       1.770   6.719  19.928  0.00  0.00    +0.000 N 
ATOM     12  C   UNL     1       1.518   7.809  20.860  0.00  0.00    +0.000 C 
ATOM     13  C   UNL     1       1.150   8.961  19.962  0.00  0.00    +0.000 C 
ATOM     14  C   UNL     1       2.081   8.695  18.803  0.00  0.00    +0.000 C 
ATOM     15  O   UNL     1       2.079   7.257  18.650  0.00  0.00    +0.000 OA
ENDBRANCH   7   9
BRANCH   1  16
ATOM     16  C   UNL     1       5.766   4.308  17.624  0.00  0.00    +0.000 C 
BRANCH  16  20
ATOM     17  C   UNL     1       6.538   3.811  12.663  0.00  0.00    +0.000 C 
ATOM     18  N   UNL     1       6.613   4.214  14.047  0.00  0.00    +0.000 N 
ATOM     19  C   UNL     1       5.934   3.675  15.103  0.00  0.00    +0.000 A 
ATOM     20  C   UNL     1       6.277   4.427  16.214  0.00  0.00    +0.000 A 
ATOM     21  C   UNL     1       7.182   5.373  15.706  0.00  0.00    +0.000 A 
ATOM     22  N   UNL     1       7.399   5.249  14.395  0.00  0.00    +0.000 NA
ENDBRANCH  16  20
ENDBRANCH   1  16
TORSDOF 3
ENDMDL
MODEL 8
REMARK VINA RESULT:      -6.8      2.676      6.281
REMARK  Name = 
REMARK  4 active torsions:
REMARK  status: ('A' for Active; 'I' for Inactive)
REMARK    1  A    between atoms: C_1  and  N_2
REMARK    2  A    between atoms: C_4  and  C_5
REMARK    3  A    between atoms: C_5  and  N_6
REMARK    4  A    between atoms: C_12  and  C_13
REMARK                            x       y       z     vdW  Elec       q    Type
REMARK                         _______ _______ _______ _____ _____    ______ ____
ROOT
ATOM      1  N   UNL     1       5.234   4.735  16.452  0.00  0.00    +0.000 NA
ATOM      2  C   UNL     1       4.615   3.417  16.445  0.00  0.00    +0.000 C 
ATOM      3  C   UNL     1       3.593   3.475  17.573  0.00  0.00    +0.000 C 
ATOM      4  C   UNL     1       2.411   2.636  17.189  0.00  0.00    +0.000 C 
ATOM      5  O   UNL     1       1.329   3.218  17.872  0.00  0.00    +0.000 OA
ATOM      6  C   UNL     1       1.686   4.590  18.172  0.00  0.00    +0.000 C 
ATOM      7  C   UNL     1       3.159   4.932  17.731  0.00  0.00    +0.000 C 
ATOM      8  C   UNL     1       4.649   5.420  17.637  0.00  0.00    +0.000 C 
ENDROOT
BRANCH   7   9
ATOM      9  C   UNL     1       3.110   5.904  19.019  0.00  0.00    +0.000 C 
ATOM     10  O   UNL     1       3.606   5.594  20.087  0.00  0.00    +0.000 OA
ATOM     11  N   UNL     1       2.342   7.063  18.878  0.00  0.00    +0.000 N 
ATOM     12  C   UNL     1       2.052   8.028  19.928  0.00  0.00    +0.000 C 
ATOM     13  C   UNL     1       1.290   9.111  19.209  0.00  0.00    +0.000 C 
ATOM     14  C   UNL     1       2.019   9.107  17.885  0.00  0.00    +0.000 C 
ATOM     15  O   UNL     1       2.284   7.712  17.616  0.00  0.00    +0.000 OA
ENDBRANCH   7   9
BRANCH   1  16
ATOM     16  C   UNL     1       6.701   4.664  16.503  0.00  0.00    +0.000 C 
BRANCH  16  20
ATOM     17  C   UNL     1       8.166   9.262  17.977  0.00  0.00    +0.000 C 
ATOM     18  N   UNL     1       7.921   7.842  17.895  0.00  0.00    +0.000 N 
ATOM     19  C   UNL     1       7.387   7.155  16.842  0.00  0.00    +0.000 A 
ATOM     20  C   UNL     1       7.283   5.835  17.248  0.00  0.00    +0.000 A 
ATOM     21  C   UNL     1       7.803   5.848  18.553  0.00  0.00    +0.000 A 
ATOM     22  N   UNL     1       8.200   7.059  18.953  0.00  0.00    +0.000 NA
ENDBRANCH  16  20
ENDBRANCH   1  16
TORSDOF 3
ENDMDL
MODEL 9
REMARK VINA RESULT:      -6.5      2.357      6.147
REMARK  Name = 
REMARK  4 active torsions:
REMARK  status: ('A' for Active; 'I' for Inactive)
REMARK    1  A    between atoms: C_1  and  N_2
REMARK    2  A    between atoms: C_4  and  C_5
REMARK    3  A    between atoms: C_5  and  N_6
REMARK    4  A    between atoms: C_12  and  C_13
REMARK                            x       y       z     vdW  Elec       q    Type
REMARK                         _______ _______ _______ _____ _____    ______ ____
ROOT
ATOM      1  N   UNL     1       4.681   4.239  17.891  0.00  0.00    +0.000 NA
ATOM      2  C   UNL     1       4.153   2.882  17.875  0.00  0.00    +0.000 C 
ATOM      3  C   UNL     1       3.062   2.890  18.936  0.00  0.00    +0.000 C 
ATOM      4  C   UNL     1       1.964   1.966  18.500  0.00  0.00    +0.000 C 
ATOM      5  O   UNL     1       0.806   2.485  19.103  0.00  0.00    +0.000 OA
ATOM      6  C   UNL     1       1.051   3.883  19.394  0.00  0.00    +0.000 C 
ATOM      7  C   UNL     1       2.522   4.316  19.037  0.00  0.00    +0.000 C 
ATOM      8  C   UNL     1       3.979   4.903  19.023  0.00  0.00    +0.000 C 
ENDROOT
BRANCH   7   9
ATOM      9  C   UNL     1       2.329   5.305  20.298  0.00  0.00    +0.000 C 
ATOM     10  O   UNL     1       2.502   4.937  21.446  0.00  0.00    +0.000 OA
ATOM     11  N   UNL     1       1.813   6.570  20.006  0.00  0.00    +0.000 N 
ATOM     12  C   UNL     1       1.443   7.588  20.979  0.00  0.00    +0.000 C 
ATOM     13  C   UNL     1       1.057   8.767  20.125  0.00  0.00    +0.000 C 
ATOM     14  C   UNL     1       2.066   8.623  19.011  0.00  0.00    +0.000 C 
ATOM     15  O   UNL     1       2.159   7.199  18.780  0.00  0.00    +0.000 OA
ENDBRANCH   7   9
BRANCH   1  16
ATOM     16  C   UNL     1       6.143   4.269  18.032  0.00  0.00    +0.000 C 
BRANCH  16  20
ATOM     17  C   UNL     1       8.673   8.612  18.482  0.00  0.00    +0.000 C 
ATOM     18  N   UNL     1       7.791   7.557  18.042  0.00  0.00    +0.000 N 
ATOM     19  C   UNL     1       7.536   6.374  18.677  0.00  0.00    +0.000 A 
ATOM     20  C   UNL     1       6.686   5.661  17.850  0.00  0.00    +0.000 A 
ATOM     21  C   UNL     1       6.484   6.524  16.760  0.00  0.00    +0.000 A 
ATOM     22  N   UNL     1       7.143   7.679  16.870  0.00  0.00    +0.000 NA
ENDBRANCH  16  20
ENDBRANCH   1  16
TORSDOF 3
ENDMDL
