MODEL 1
REMARK VINA RESULT:      -6.4      0.000      0.000
REMARK  Name = 
REMARK  12 active torsions:
REMARK  status: ('A' for Active; 'I' for Inactive)
REMARK    1  A    between atoms: C_1  and  N_2
REMARK    2  A    between atoms: N_2  and  C_3
REMARK    3  A    between atoms: N_2  and  C_4
REMARK    4  A    between atoms: C_4  and  C_5
REMARK    5  A    between atoms: C_5  and  C_6
REMARK    6  A    between atoms: C_6  and  N_7
REMARK    7  A    between atoms: C_12  and  N_13
REMARK    8  A    between atoms: N_13  and  C_14
REMARK    9  A    between atoms: C_14  and  C_15
REMARK   10  A    between atoms: C_15  and  N_16
REMARK   11  A    between atoms: C_23  and  O_24
REMARK   12  A    between atoms: C_27  and  O_28
REMARK                            x       y       z     vdW  Elec       q    Type
REMARK                         _______ _______ _______ _____ _____    ______ ____
ROOT
ATOM      1  N   UNL     1       2.665   8.361  18.225  0.00  0.00    +0.000 N 
ATOM      2  N   UNL     1       3.436   7.979  17.206  0.00  0.00    +0.000 NA
ATOM      3  C   UNL     1       3.750   6.679  17.407  0.00  0.00    +0.000 A 
ATOM      4  C   UNL     1       3.175   6.254  18.555  0.00  0.00    +0.000 A 
ATOM      5  C   UNL     1       3.237   4.993  19.118  0.00  0.00    +0.000 A 
ATOM      6  C   UNL     1       2.476   4.807  20.329  0.00  0.00    +0.000 A 
ATOM      7  C   UNL     1       1.740   5.935  20.843  0.00  0.00    +0.000 A 
ATOM      8  C   UNL     1       1.753   7.188  20.215  0.00  0.00    +0.000 A 
ATOM      9  C   UNL     1       2.493   7.306  19.050  0.00  0.00    +0.000 A 
ATOM     10  C   UNL     1       4.060   4.001  18.337  0.00  0.00    +0.000 C 
ATOM     11  O   UNL     1       4.173   2.866  18.758  0.00  0.00    +0.000 OA
ATOM     12  C   UNL     1       4.714   4.423  17.011  0.00  0.00    +0.000 A 
ATOM     13  C   UNL     1       5.479   3.549  16.177  0.00  0.00    +0.000 A 
ATOM     14  C   UNL     1       6.018   4.022  14.971  0.00  0.00    +0.000 A 
ATOM     15  C   UNL     1       5.821   5.335  14.557  0.00  0.00    +0.000 A 
ATOM     16  C   UNL     1       5.085   6.217  15.343  0.00  0.00    +0.000 A 
ATOM     17  C   UNL     1       4.538   5.773  16.562  0.00  0.00    +0.000 A 
ENDROOT
BRANCH   6  18
ATOM     18  N   UNL     1       2.405   3.550  21.028  0.00  0.00    +0.000 N 
ATOM     19  H   UNL     1       3.179   3.234  21.626  0.00  0.00    +0.000 HD
BRANCH  18  20
ATOM     20  C   UNL     1       1.265   2.663  20.826  0.00  0.00    +0.000 C 
BRANCH  20  21
ATOM     21  C   UNL     1       0.713   2.646  19.401  0.00  0.00    +0.000 C 
BRANCH  21  22
ATOM     22  N   UNL     1       1.408   1.605  18.640  0.00  0.00    +0.000 NA
ATOM     23  H   UNL     1       2.077   1.091  19.261  0.00  0.00    +0.000 HD
ATOM     24  H   UNL     1       1.955   2.042  17.865  0.00  0.00    +0.000 HD
ENDBRANCH  21  22
ENDBRANCH  20  21
ENDBRANCH  18  20
ENDBRANCH   6  18
BRANCH  13  25
ATOM     25  O   UNL     1       5.734   2.254  16.469  0.00  0.00    +0.000 OA
ATOM     26  H   UNL     1       6.537   1.770  16.266  0.00  0.00    +0.000 HD
ENDBRANCH  13  25
BRANCH  16  27
ATOM     27  O   UNL     1       4.892   7.489  14.927  0.00  0.00    +0.000 OA
ATOM     28  H   UNL     1       4.366   8.125  15.432  0.00  0.00    +0.000 HD
ENDBRANCH  16  27
BRANCH   1  29
ATOM     29  C   UNL     1       2.092   9.700  18.353  0.00  0.00    +0.000 C 
BRANCH  29  30
ATOM     30  C   UNL     1       0.619   9.690  17.937  0.00  0.00    +0.000 C 
BRANCH  30  31
ATOM     31  C   UNL     1      -0.280  10.229  19.069  0.00  0.00    +0.000 C 
BRANCH  31  33
ATOM     32  C   UNL     1      -1.393  12.178  18.217  0.00  0.00    +0.000 C 
ATOM     33  N   UNL     1      -1.572  10.762  18.585  0.00  0.00    +0.000 NA
ATOM     34  C   UNL     1      -2.090  10.018  17.424  0.00  0.00    +0.000 C 
ENDBRANCH  31  33
ENDBRANCH  30  31
ENDBRANCH  29  30
ENDBRANCH   1  29
TORSDOF 10
ENDMDL
MODEL 2
REMARK VINA RESULT:      -6.3      2.322      4.796
REMARK  Name = 
REMARK  12 active torsions:
REMARK  status: ('A' for Active; 'I' for Inactive)
REMARK    1  A    between atoms: C_1  and  N_2
REMARK    2  A    between atoms: N_2  and  C_3
REMARK    3  A    between atoms: N_2  and  C_4
REMARK    4  A    between atoms: C_4  and  C_5
REMARK    5  A    between atoms: C_5  and  C_6
REMARK    6  A    between atoms: C_6  and  N_7
REMARK    7  A    between atoms: C_12  and  N_13
REMARK    8  A    between atoms: N_13  and  C_14
REMARK    9  A    between atoms: C_14  and  C_15
REMARK   10  A    between atoms: C_15  and  N_16
REMARK   11  A    between atoms: C_23  and  O_24
REMARK   12  A    between atoms: C_27  and  O_28
REMARK                            x       y       z     vdW  Elec       q    Type
REMARK                         _______ _______ _______ _____ _____    ______ ____
ROOT
ATOM      1  N   UNL     1       3.026   7.786  17.954  0.00  0.00    +0.000 N 
ATOM      2  N   UNL     1       2.374   7.001  18.812  0.00  0.00    +0.000 NA
ATOM      3  C   UNL     1       2.749   5.727  18.553  0.00  0.00    +0.000 A 
ATOM      4  C   UNL     1       3.631   5.722  17.529  0.00  0.00    +0.000 A 
ATOM      5  C   UNL     1       4.264   4.632  16.961  0.00  0.00    +0.000 A 
ATOM      6  C   UNL     1       5.206   4.929  15.910  0.00  0.00    +0.000 A 
ATOM      7  C   UNL     1       5.394   6.310  15.543  0.00  0.00    +0.000 A 
ATOM      8  C   UNL     1       4.690   7.353  16.161  0.00  0.00    +0.000 A 
ATOM      9  C   UNL     1       3.805   7.009  17.171  0.00  0.00    +0.000 A 
ATOM     10  C   UNL     1       3.894   3.306  17.574  0.00  0.00    +0.000 C 
ATOM     11  O   UNL     1       4.399   2.290  17.137  0.00  0.00    +0.000 OA
ATOM     12  C   UNL     1       2.914   3.256  18.759  0.00  0.00    +0.000 A 
ATOM     13  C   UNL     1       2.530   2.057  19.435  0.00  0.00    +0.000 A 
ATOM     14  C   UNL     1       1.646   2.116  20.523  0.00  0.00    +0.000 A 
ATOM     15  C   UNL     1       1.130   3.327  20.970  0.00  0.00    +0.000 A 
ATOM     16  C   UNL     1       1.478   4.517  20.335  0.00  0.00    +0.000 A 
ATOM     17  C   UNL     1       2.357   4.487  19.236  0.00  0.00    +0.000 A 
ENDROOT
BRANCH   6  18
ATOM     18  N   UNL     1       5.973   3.917  15.232  0.00  0.00    +0.000 N 
ATOM     19  H   UNL     1       6.234   3.044  15.709  0.00  0.00    +0.000 HD
BRANCH  18  20
ATOM     20  C   UNL     1       6.468   4.155  13.881  0.00  0.00    +0.000 C 
BRANCH  20  21
ATOM     21  C   UNL     1       5.682   3.447  12.778  0.00  0.00    +0.000 C 
BRANCH  21  22
ATOM     22  N   UNL     1       6.614   2.665  11.964  0.00  0.00    +0.000 NA
ATOM     23  H   UNL     1       7.350   3.289  11.557  0.00  0.00    +0.000 HD
ATOM     24  H   UNL     1       6.099   2.213  11.175  0.00  0.00    +0.000 HD
ENDBRANCH  21  22
ENDBRANCH  20  21
ENDBRANCH  18  20
ENDBRANCH   6  18
BRANCH  13  25
ATOM     25  O   UNL     1       2.968   0.823  19.097  0.00  0.00    +0.000 OA
ATOM     26  H   UNL     1       2.429   0.038  18.978  0.00  0.00    +0.000 HD
ENDBRANCH  13  25
BRANCH  16  27
ATOM     27  O   UNL     1       0.978   5.690  20.783  0.00  0.00    +0.000 OA
ATOM     28  H   UNL     1       0.255   5.733  21.425  0.00  0.00    +0.000 HD
ENDBRANCH  16  27
BRANCH   1  29
ATOM     29  C   UNL     1       2.911   9.243  17.937  0.00  0.00    +0.000 C 
BRANCH  29  30
ATOM     30  C   UNL     1       1.439   9.660  17.887  0.00  0.00    +0.000 C 
BRANCH  30  31
ATOM     31  C   UNL     1       0.996  10.288  19.224  0.00  0.00    +0.000 C 
BRANCH  31  33
ATOM     32  C   UNL     1      -0.463  12.195  19.266  0.00  0.00    +0.000 C 
ATOM     33  N   UNL     1      -0.418  10.722  19.225  0.00  0.00    +0.000 NA
ATOM     34  C   UNL     1      -1.156  10.245  18.042  0.00  0.00    +0.000 C 
ENDBRANCH  31  33
ENDBRANCH  30  31
ENDBRANCH  29  30
ENDBRANCH   1  29
TORSDOF 10
ENDMDL
MODEL 3
REMARK VINA RESULT:      -6.2      2.198      4.927
REMARK  Name = 
REMARK  12 active torsions:
REMARK  status: ('A' for Active; 'I' for Inactive)
REMARK    1  A    between atoms: C_1  and  N_2
REMARK    2  A    between atoms: N_2  and  C_3
REMARK    3  A    between atoms: N_2  and  C_4
REMARK    4  A    between atoms: C_4  and  C_5
REMARK    5  A    between atoms: C_5  and  C_6
REMARK    6  A    between atoms: C_6  and  N_7
REMARK    7  A    between atoms: C_12  and  N_13
REMARK    8  A    between atoms: N_13  and  C_14
REMARK    9  A    between atoms: C_14  and  C_15
REMARK   10  A    between atoms: C_15  and  N_16
REMARK   11  A    between atoms: C_23  and  O_24
REMARK   12  A    between atoms: C_27  and  O_28
REMARK                            x       y       z     vdW  Elec       q    Type
REMARK                         _______ _______ _______ _____ _____    ______ ____
ROOT
ATOM      1  N   UNL     1       2.798   7.722  18.118  0.00  0.00    +0.000 N 
ATOM      2  N   UNL     1       2.181   6.805  18.863  0.00  0.00    +0.000 NA
ATOM      3  C   UNL     1       2.710   5.603  18.538  0.00  0.00    +0.000 A 
ATOM      4  C   UNL     1       3.655   5.775  17.587  0.00  0.00    +0.000 A 
ATOM      5  C   UNL     1       4.441   4.808  16.988  0.00  0.00    +0.000 A 
ATOM      6  C   UNL     1       5.413   5.288  16.036  0.00  0.00    +0.000 A 
ATOM      7  C   UNL     1       5.471   6.707  15.789  0.00  0.00    +0.000 A 
ATOM      8  C   UNL     1       4.616   7.615  16.429  0.00  0.00    +0.000 A 
ATOM      9  C   UNL     1       3.709   7.099  17.340  0.00  0.00    +0.000 A 
ATOM     10  C   UNL     1       4.179   3.405  17.470  0.00  0.00    +0.000 C 
ATOM     11  O   UNL     1       4.821   2.487  16.997  0.00  0.00    +0.000 OA
ATOM     12  C   UNL     1       3.133   3.154  18.571  0.00  0.00    +0.000 A 
ATOM     13  C   UNL     1       2.839   1.870  19.124  0.00  0.00    +0.000 A 
ATOM     14  C   UNL     1       1.883   1.746  20.144  0.00  0.00    +0.000 A 
ATOM     15  C   UNL     1       1.208   2.856  20.640  0.00  0.00    +0.000 A 
ATOM     16  C   UNL     1       1.464   4.123  20.124  0.00  0.00    +0.000 A 
ATOM     17  C   UNL     1       2.413   4.277  19.096  0.00  0.00    +0.000 A 
ENDROOT
BRANCH   6  18
ATOM     18  N   UNL     1       6.330   4.421  15.344  0.00  0.00    +0.000 N 
ATOM     19  H   UNL     1       7.216   4.134  15.779  0.00  0.00    +0.000 HD
BRANCH  18  20
ATOM     20  C   UNL     1       6.053   4.006  13.974  0.00  0.00    +0.000 C 
BRANCH  20  21
ATOM     21  C   UNL     1       7.082   4.471  12.944  0.00  0.00    +0.000 C 
BRANCH  21  22
ATOM     22  N   UNL     1       7.953   5.470  13.568  0.00  0.00    +0.000 NA
ATOM     23  H   UNL     1       8.303   5.118  14.490  0.00  0.00    +0.000 HD
ATOM     24  H   UNL     1       7.414   6.348  13.739  0.00  0.00    +0.000 HD
ENDBRANCH  21  22
ENDBRANCH  20  21
ENDBRANCH  18  20
ENDBRANCH   6  18
BRANCH  13  25
ATOM     25  O   UNL     1       3.432   0.721  18.729  0.00  0.00    +0.000 OA
ATOM     26  H   UNL     1       4.375   0.567  18.635  0.00  0.00    +0.000 HD
ENDBRANCH  13  25
BRANCH  16  27
ATOM     27  O   UNL     1       0.809   5.196  20.620  0.00  0.00    +0.000 OA
ATOM     28  H   UNL     1       0.963   6.094  20.293  0.00  0.00    +0.000 HD
ENDBRANCH  16  27
BRANCH   1  29
ATOM     29  C   UNL     1       2.525   9.156  18.202  0.00  0.00    +0.000 C 
BRANCH  29  30
ATOM     30  C   UNL     1       1.054   9.436  17.886  0.00  0.00    +0.000 C 
BRANCH  30  31
ATOM     31  C   UNL     1       0.487  10.532  18.812  0.00  0.00    +0.000 C 
BRANCH  31  33
ATOM     32  C   UNL     1       0.822  11.632  20.920  0.00  0.00    +0.000 C 
ATOM     33  N   UNL     1       0.831  10.327  20.236  0.00  0.00    +0.000 NA
ATOM     34  C   UNL     1      -0.103   9.413  20.916  0.00  0.00    +0.000 C 
ENDBRANCH  31  33
ENDBRANCH  30  31
ENDBRANCH  29  30
ENDBRANCH   1  29
TORSDOF 10
ENDMDL
MODEL 4
REMARK VINA RESULT:      -6.1      2.235      4.898
REMARK  Name = 
REMARK  12 active torsions:
REMARK  status: ('A' for Active; 'I' for Inactive)
REMARK    1  A    between atoms: C_1  and  N_2
REMARK    2  A    between atoms: N_2  and  C_3
REMARK    3  A    between atoms: N_2  and  C_4
REMARK    4  A    between atoms: C_4  and  C_5
REMARK    5  A    between atoms: C_5  and  C_6
REMARK    6  A    between atoms: C_6  and  N_7
REMARK    7  A    between atoms: C_12  and  N_13
REMARK    8  A    between atoms: N_13  and  C_14
REMARK    9  A    between atoms: C_14  and  C_15
REMARK   10  A    between atoms: C_15  and  N_16
REMARK   11  A    between atoms: C_23  and  O_24
REMARK   12  A    between atoms: C_27  and  O_28
REMARK                            x       y       z     vdW  Elec       q    Type
REMARK                         _______ _______ _______ _____ _____    ______ ____
ROOT
ATOM      1  N   UNL     1       3.001   7.837  17.935  0.00  0.00    +0.000 N 
ATOM      2  N   UNL     1       2.358   7.050  18.798  0.00  0.00    +0.000 NA
ATOM      3  C   UNL     1       2.729   5.776  18.531  0.00  0.00    +0.000 A 
ATOM      4  C   UNL     1       3.600   5.774  17.497  0.00  0.00    +0.000 A 
ATOM      5  C   UNL     1       4.226   4.686  16.918  0.00  0.00    +0.000 A 
ATOM      6  C   UNL     1       5.156   4.986  15.857  0.00  0.00    +0.000 A 
ATOM      7  C   UNL     1       5.340   6.368  15.493  0.00  0.00    +0.000 A 
ATOM      8  C   UNL     1       4.644   7.409  16.123  0.00  0.00    +0.000 A 
ATOM      9  C   UNL     1       3.770   7.063  17.141  0.00  0.00    +0.000 A 
ATOM     10  C   UNL     1       3.862   3.358  17.531  0.00  0.00    +0.000 C 
ATOM     11  O   UNL     1       4.361   2.343  17.084  0.00  0.00    +0.000 OA
ATOM     12  C   UNL     1       2.895   3.304  18.726  0.00  0.00    +0.000 A 
ATOM     13  C   UNL     1       2.518   2.103  19.403  0.00  0.00    +0.000 A 
ATOM     14  C   UNL     1       1.646   2.159  20.501  0.00  0.00    +0.000 A 
ATOM     15  C   UNL     1       1.137   3.369  20.958  0.00  0.00    +0.000 A 
ATOM     16  C   UNL     1       1.478   4.560  20.323  0.00  0.00    +0.000 A 
ATOM     17  C   UNL     1       2.344   4.534  19.214  0.00  0.00    +0.000 A 
ENDROOT
BRANCH   6  18
ATOM     18  N   UNL     1       5.915   3.975  15.168  0.00  0.00    +0.000 N 
ATOM     19  H   UNL     1       5.994   3.023  15.547  0.00  0.00    +0.000 HD
BRANCH  18  20
ATOM     20  C   UNL     1       6.657   4.315  13.958  0.00  0.00    +0.000 C 
BRANCH  20  21
ATOM     21  C   UNL     1       6.317   3.458  12.739  0.00  0.00    +0.000 C 
BRANCH  21  22
ATOM     22  N   UNL     1       4.894   3.619  12.432  0.00  0.00    +0.000 NA
ATOM     23  H   UNL     1       4.670   4.631  12.284  0.00  0.00    +0.000 HD
ATOM     24  H   UNL     1       4.321   3.273  13.234  0.00  0.00    +0.000 HD
ENDBRANCH  21  22
ENDBRANCH  20  21
ENDBRANCH  18  20
ENDBRANCH   6  18
BRANCH  13  25
ATOM     25  O   UNL     1       2.951   0.870  19.056  0.00  0.00    +0.000 OA
ATOM     26  H   UNL     1       3.458   0.642  18.273  0.00  0.00    +0.000 HD
ENDBRANCH  13  25
BRANCH  16  27
ATOM     27  O   UNL     1       0.984   5.732  20.781  0.00  0.00    +0.000 OA
ATOM     28  H   UNL     1       0.265   6.201  20.334  0.00  0.00    +0.000 HD
ENDBRANCH  16  27
BRANCH   1  29
ATOM     29  C   UNL     1       2.887   9.294  17.925  0.00  0.00    +0.000 C 
BRANCH  29  30
ATOM     30  C   UNL     1       1.422   9.715  18.072  0.00  0.00    +0.000 C 
BRANCH  30  31
ATOM     31  C   UNL     1       1.293  10.975  18.951  0.00  0.00    +0.000 C 
BRANCH  31  33
ATOM     32  C   UNL     1       0.266   9.518  20.560  0.00  0.00    +0.000 C 
ATOM     33  N   UNL     1       0.227  10.869  19.971  0.00  0.00    +0.000 NA
ATOM     34  C   UNL     1       0.366  11.872  21.040  0.00  0.00    +0.000 C 
ENDBRANCH  31  33
ENDBRANCH  30  31
ENDBRANCH  29  30
ENDBRANCH   1  29
TORSDOF 10
ENDMDL
MODEL 5
REMARK VINA RESULT:      -6.1      0.884      1.155
REMARK  Name = 
REMARK  12 active torsions:
REMARK  status: ('A' for Active; 'I' for Inactive)
REMARK    1  A    between atoms: C_1  and  N_2
REMARK    2  A    between atoms: N_2  and  C_3
REMARK    3  A    between atoms: N_2  and  C_4
REMARK    4  A    between atoms: C_4  and  C_5
REMARK    5  A    between atoms: C_5  and  C_6
REMARK    6  A    between atoms: C_6  and  N_7
REMARK    7  A    between atoms: C_12  and  N_13
REMARK    8  A    between atoms: N_13  and  C_14
REMARK    9  A    between atoms: C_14  and  C_15
REMARK   10  A    between atoms: C_15  and  N_16
REMARK   11  A    between atoms: C_23  and  O_24
REMARK   12  A    between atoms: C_27  and  O_28
REMARK                            x       y       z     vdW  Elec       q    Type
REMARK                         _______ _______ _______ _____ _____    ______ ____
ROOT
ATOM      1  N   UNL     1       2.625   8.524  18.170  0.00  0.00    +0.000 N 
ATOM      2  N   UNL     1       3.406   8.100  17.176  0.00  0.00    +0.000 NA
ATOM      3  C   UNL     1       3.706   6.805  17.429  0.00  0.00    +0.000 A 
ATOM      4  C   UNL     1       3.114   6.428  18.584  0.00  0.00    +0.000 A 
ATOM      5  C   UNL     1       3.159   5.188  19.194  0.00  0.00    +0.000 A 
ATOM      6  C   UNL     1       2.382   5.052  20.401  0.00  0.00    +0.000 A 
ATOM      7  C   UNL     1       1.649   6.204  20.864  0.00  0.00    +0.000 A 
ATOM      8  C   UNL     1       1.679   7.433  20.191  0.00  0.00    +0.000 A 
ATOM      9  C   UNL     1       2.435   7.502  19.031  0.00  0.00    +0.000 A 
ATOM     10  C   UNL     1       3.984   4.162  18.461  0.00  0.00    +0.000 C 
ATOM     11  O   UNL     1       4.083   3.042  18.924  0.00  0.00    +0.000 OA
ATOM     12  C   UNL     1       4.658   4.529  17.128  0.00  0.00    +0.000 A 
ATOM     13  C   UNL     1       5.427   3.620  16.337  0.00  0.00    +0.000 A 
ATOM     14  C   UNL     1       5.984   4.043  15.121  0.00  0.00    +0.000 A 
ATOM     15  C   UNL     1       5.802   5.342  14.657  0.00  0.00    +0.000 A 
ATOM     16  C   UNL     1       5.063   6.258  15.400  0.00  0.00    +0.000 A 
ATOM     17  C   UNL     1       4.498   5.863  16.628  0.00  0.00    +0.000 A 
ENDROOT
BRANCH   6  18
ATOM     18  N   UNL     1       2.292   3.823  21.145  0.00  0.00    +0.000 N 
ATOM     19  H   UNL     1       3.054   3.526  21.769  0.00  0.00    +0.000 HD
BRANCH  18  20
ATOM     20  C   UNL     1       1.152   2.934  20.955  0.00  0.00    +0.000 C 
BRANCH  20  21
ATOM     21  C   UNL     1       0.681   2.798  19.507  0.00  0.00    +0.000 C 
BRANCH  21  22
ATOM     22  N   UNL     1       1.433   1.716  18.868  0.00  0.00    +0.000 NA
ATOM     23  H   UNL     1       2.461   1.909  18.926  0.00  0.00    +0.000 HD
ATOM     24  H   UNL     1       1.171   1.654  17.859  0.00  0.00    +0.000 HD
ENDBRANCH  21  22
ENDBRANCH  20  21
ENDBRANCH  18  20
ENDBRANCH   6  18
BRANCH  13  25
ATOM     25  O   UNL     1       5.667   2.334  16.680  0.00  0.00    +0.000 OA
ATOM     26  H   UNL     1       6.351   1.765  16.320  0.00  0.00    +0.000 HD
ENDBRANCH  13  25
BRANCH  16  27
ATOM     27  O   UNL     1       4.885   7.514  14.935  0.00  0.00    +0.000 OA
ATOM     28  H   UNL     1       4.024   7.840  14.640  0.00  0.00    +0.000 HD
ENDBRANCH  16  27
BRANCH   1  29
ATOM     29  C   UNL     1       2.060   9.871  18.242  0.00  0.00    +0.000 C 
BRANCH  29  30
ATOM     30  C   UNL     1       0.541   9.821  18.067  0.00  0.00    +0.000 C 
BRANCH  30  31
ATOM     31  C   UNL     1      -0.136  11.022  18.760  0.00  0.00    +0.000 C 
BRANCH  31  33
ATOM     32  C   UNL     1       0.601  13.304  18.648  0.00  0.00    +0.000 C 
ATOM     33  N   UNL     1       0.829  12.003  19.302  0.00  0.00    +0.000 NA
ATOM     34  C   UNL     1       0.712  12.163  20.761  0.00  0.00    +0.000 C 
ENDBRANCH  31  33
ENDBRANCH  30  31
ENDBRANCH  29  30
ENDBRANCH   1  29
TORSDOF 10
ENDMDL
MODEL 6
REMARK VINA RESULT:      -6.1      2.606      6.285
REMARK  Name = 
REMARK  12 active torsions:
REMARK  status: ('A' for Active; 'I' for Inactive)
REMARK    1  A    between atoms: C_1  and  N_2
REMARK    2  A    between atoms: N_2  and  C_3
REMARK    3  A    between atoms: N_2  and  C_4
REMARK    4  A    between atoms: C_4  and  C_5
REMARK    5  A    between atoms: C_5  and  C_6
REMARK    6  A    between atoms: C_6  and  N_7
REMARK    7  A    between atoms: C_12  and  N_13
REMARK    8  A    between atoms: N_13  and  C_14
REMARK    9  A    between atoms: C_14  and  C_15
REMARK   10  A    between atoms: C_15  and  N_16
REMARK   11  A    between atoms: C_23  and  O_24
REMARK   12  A    between atoms: C_27  and  O_28
REMARK                            x       y       z     vdW  Elec       q    Type
REMARK                         _______ _______ _______ _____ _____    ______ ____
ROOT
ATOM      1  N   UNL     1       4.331   6.796  16.779  0.00  0.00    +0.000 N 
ATOM      2  N   UNL     1       3.648   7.926  16.965  0.00  0.00    +0.000 NA
ATOM      3  C   UNL     1       2.893   7.759  18.075  0.00  0.00    +0.000 A 
ATOM      4  C   UNL     1       3.106   6.521  18.576  0.00  0.00    +0.000 A 
ATOM      5  C   UNL     1       2.542   5.955  19.704  0.00  0.00    +0.000 A 
ATOM      6  C   UNL     1       2.997   4.627  20.036  0.00  0.00    +0.000 A 
ATOM      7  C   UNL     1       3.973   4.013  19.172  0.00  0.00    +0.000 A 
ATOM      8  C   UNL     1       4.477   4.657  18.033  0.00  0.00    +0.000 A 
ATOM      9  C   UNL     1       4.011   5.935  17.768  0.00  0.00    +0.000 A 
ATOM     10  C   UNL     1       1.570   6.848  20.431  0.00  0.00    +0.000 C 
ATOM     11  O   UNL     1       1.022   6.434  21.434  0.00  0.00    +0.000 OA
ATOM     12  C   UNL     1       1.310   8.276  19.920  0.00  0.00    +0.000 A 
ATOM     13  C   UNL     1       0.441   9.214  20.558  0.00  0.00    +0.000 A 
ATOM     14  C   UNL     1       0.287  10.503  20.028  0.00  0.00    +0.000 A 
ATOM     15  C   UNL     1       0.971  10.900  18.884  0.00  0.00    +0.000 A 
ATOM     16  C   UNL     1       1.824  10.014  18.232  0.00  0.00    +0.000 A 
ATOM     17  C   UNL     1       1.993   8.712  18.737  0.00  0.00    +0.000 A 
ENDROOT
BRANCH   6  18
ATOM     18  N   UNL     1       2.535   3.904  21.192  0.00  0.00    +0.000 N 
ATOM     19  H   UNL     1       2.905   4.112  22.128  0.00  0.00    +0.000 HD
BRANCH  18  20
ATOM     20  C   UNL     1       1.594   2.800  21.038  0.00  0.00    +0.000 C 
BRANCH  20  21
ATOM     21  C   UNL     1       0.720   2.876  19.786  0.00  0.00    +0.000 C 
BRANCH  21  22
ATOM     22  N   UNL     1       1.150   1.836  18.849  0.00  0.00    +0.000 NA
ATOM     23  H   UNL     1       2.107   2.052  18.485  0.00  0.00    +0.000 HD
ATOM     24  H   UNL     1       0.494   1.801  18.037  0.00  0.00    +0.000 HD
ENDBRANCH  21  22
ENDBRANCH  20  21
ENDBRANCH  18  20
ENDBRANCH   6  18
BRANCH  13  25
ATOM     25  O   UNL     1      -0.272   8.947  21.676  0.00  0.00    +0.000 OA
ATOM     26  H   UNL     1      -0.195   8.166  22.229  0.00  0.00    +0.000 HD
ENDBRANCH  13  25
BRANCH  16  27
ATOM     27  O   UNL     1       2.491  10.413  17.126  0.00  0.00    +0.000 OA
ATOM     28  H   UNL     1       2.207  10.170  16.233  0.00  0.00    +0.000 HD
ENDBRANCH  16  27
BRANCH   1  29
ATOM     29  C   UNL     1       5.288   6.594  15.692  0.00  0.00    +0.000 C 
BRANCH  29  30
ATOM     30  C   UNL     1       6.626   6.098  16.246  0.00  0.00    +0.000 C 
BRANCH  30  31
ATOM     31  C   UNL     1       7.181   4.937  15.395  0.00  0.00    +0.000 C 
BRANCH  31  33
ATOM     32  C   UNL     1       7.967   5.312  13.157  0.00  0.00    +0.000 C 
ATOM     33  N   UNL     1       6.778   5.011  13.974  0.00  0.00    +0.000 NA
ATOM     34  C   UNL     1       6.161   3.762  13.496  0.00  0.00    +0.000 C 
ENDBRANCH  31  33
ENDBRANCH  30  31
ENDBRANCH  29  30
ENDBRANCH   1  29
TORSDOF 10
ENDMDL
MODEL 7
REMARK VINA RESULT:      -6.0      2.157      4.633
REMARK  Name = 
REMARK  12 active torsions:
REMARK  status: ('A' for Active; 'I' for Inactive)
REMARK    1  A    between atoms: C_1  and  N_2
REMARK    2  A    between atoms: N_2  and  C_3
REMARK    3  A    between atoms: N_2  and  C_4
REMARK    4  A    between atoms: C_4  and  C_5
REMARK    5  A    between atoms: C_5  and  C_6
REMARK    6  A    between atoms: C_6  and  N_7
REMARK    7  A    between atoms: C_12  and  N_13
REMARK    8  A    between atoms: N_13  and  C_14
REMARK    9  A    between atoms: C_14  and  C_15
REMARK   10  A    between atoms: C_15  and  N_16
REMARK   11  A    between atoms: C_23  and  O_24
REMARK   12  A    between atoms: C_27  and  O_28
REMARK                            x       y       z     vdW  Elec       q    Type
REMARK                         _______ _______ _______ _____ _____    ______ ____
ROOT
ATOM      1  N   UNL     1       2.726   7.694  18.278  0.00  0.00    +0.000 N 
ATOM      2  N   UNL     1       2.105   6.681  18.884  0.00  0.00    +0.000 NA
ATOM      3  C   UNL     1       2.746   5.546  18.523  0.00  0.00    +0.000 A 
ATOM      4  C   UNL     1       3.764   5.854  17.689  0.00  0.00    +0.000 A 
ATOM      5  C   UNL     1       4.669   4.991  17.101  0.00  0.00    +0.000 A 
ATOM      6  C   UNL     1       5.693   5.607  16.293  0.00  0.00    +0.000 A 
ATOM      7  C   UNL     1       5.675   7.043  16.162  0.00  0.00    +0.000 A 
ATOM      8  C   UNL     1       4.702   7.840  16.780  0.00  0.00    +0.000 A 
ATOM      9  C   UNL     1       3.749   7.195  17.552  0.00  0.00    +0.000 A 
ATOM     10  C   UNL     1       4.460   3.538  17.444  0.00  0.00    +0.000 C 
ATOM     11  O   UNL     1       5.208   2.705  16.970  0.00  0.00    +0.000 OA
ATOM     12  C   UNL     1       3.333   3.133  18.410  0.00  0.00    +0.000 A 
ATOM     13  C   UNL     1       3.077   1.791  18.830  0.00  0.00    +0.000 A 
ATOM     14  C   UNL     1       2.038   1.524  19.734  0.00  0.00    +0.000 A 
ATOM     15  C   UNL     1       1.243   2.545  20.243  0.00  0.00    +0.000 A 
ATOM     16  C   UNL     1       1.458   3.865  19.855  0.00  0.00    +0.000 A 
ATOM     17  C   UNL     1       2.489   4.162  18.944  0.00  0.00    +0.000 A 
ENDROOT
BRANCH   6  18
ATOM     18  N   UNL     1       6.731   4.859  15.634  0.00  0.00    +0.000 N 
ATOM     19  H   UNL     1       7.499   4.436  16.170  0.00  0.00    +0.000 HD
BRANCH  18  20
ATOM     20  C   UNL     1       6.754   4.765  14.178  0.00  0.00    +0.000 C 
BRANCH  20  21
ATOM     21  C   UNL     1       5.706   3.826  13.581  0.00  0.00    +0.000 C 
BRANCH  21  22
ATOM     22  N   UNL     1       6.329   3.047  12.509  0.00  0.00    +0.000 NA
ATOM     23  H   UNL     1       6.692   3.685  11.763  0.00  0.00    +0.000 HD
ATOM     24  H   UNL     1       5.620   2.412  12.077  0.00  0.00    +0.000 HD
ENDBRANCH  21  22
ENDBRANCH  20  21
ENDBRANCH  18  20
ENDBRANCH   6  18
BRANCH  13  25
ATOM     25  O   UNL     1       3.784   0.718  18.410  0.00  0.00    +0.000 OA
ATOM     26  H   UNL     1       4.169   0.593  17.540  0.00  0.00    +0.000 HD
ENDBRANCH  13  25
BRANCH  16  27
ATOM     27  O   UNL     1       0.685   4.850  20.362  0.00  0.00    +0.000 OA
ATOM     28  H   UNL     1      -0.198   5.046  20.018  0.00  0.00    +0.000 HD
ENDBRANCH  16  27
BRANCH   1  29
ATOM     29  C   UNL     1       2.347   9.096  18.444  0.00  0.00    +0.000 C 
BRANCH  29  30
ATOM     30  C   UNL     1       1.002   9.367  17.764  0.00  0.00    +0.000 C 
BRANCH  30  31
ATOM     31  C   UNL     1       0.058  10.150  18.699  0.00  0.00    +0.000 C 
BRANCH  31  33
ATOM     32  C   UNL     1      -2.257  10.087  18.064  0.00  0.00    +0.000 C 
ATOM     33  N   UNL     1      -1.012  10.871  17.976  0.00  0.00    +0.000 NA
ATOM     34  C   UNL     1      -1.247  12.222  18.515  0.00  0.00    +0.000 C 
ENDBRANCH  31  33
ENDBRANCH  30  31
ENDBRANCH  29  30
ENDBRANCH   1  29
TORSDOF 10
ENDMDL
MODEL 8
REMARK VINA RESULT:      -6.0      4.949     10.287
REMARK  Name = 
REMARK  12 active torsions:
REMARK  status: ('A' for Active; 'I' for Inactive)
REMARK    1  A    between atoms: C_1  and  N_2
REMARK    2  A    between atoms: N_2  and  C_3
REMARK    3  A    between atoms: N_2  and  C_4
REMARK    4  A    between atoms: C_4  and  C_5
REMARK    5  A    between atoms: C_5  and  C_6
REMARK    6  A    between atoms: C_6  and  N_7
REMARK    7  A    between atoms: C_12  and  N_13
REMARK    8  A    between atoms: N_13  and  C_14
REMARK    9  A    between atoms: C_14  and  C_15
REMARK   10  A    between atoms: C_15  and  N_16
REMARK   11  A    between atoms: C_23  and  O_24
REMARK   12  A    between atoms: C_27  and  O_28
REMARK                            x       y       z     vdW  Elec       q    Type
REMARK                         _______ _______ _______ _____ _____    ______ ____
ROOT
ATOM      1  N   UNL     1      -0.324  10.356  18.311  0.00  0.00    +0.000 N 
ATOM      2  N   UNL     1      -0.166  10.946  19.496  0.00  0.00    +0.000 NA
ATOM      3  C   UNL     1      -1.348  11.522  19.816  0.00  0.00    +0.000 A 
ATOM      4  C   UNL     1      -2.239  11.291  18.826  0.00  0.00    +0.000 A 
ATOM      5  C   UNL     1      -3.560  11.694  18.763  0.00  0.00    +0.000 A 
ATOM      6  C   UNL     1      -4.297  11.256  17.603  0.00  0.00    +0.000 A 
ATOM      7  C   UNL     1      -3.601  10.460  16.624  0.00  0.00    +0.000 A 
ATOM      8  C   UNL     1      -2.249  10.115  16.760  0.00  0.00    +0.000 A 
ATOM      9  C   UNL     1      -1.594  10.555  17.899  0.00  0.00    +0.000 A 
ATOM     10  C   UNL     1      -4.025  12.494  19.953  0.00  0.00    +0.000 C 
ATOM     11  O   UNL     1      -5.173  12.895  19.984  0.00  0.00    +0.000 OA
ATOM     12  C   UNL     1      -3.061  12.764  21.120  0.00  0.00    +0.000 A 
ATOM     13  C   UNL     1      -3.415  13.475  22.309  0.00  0.00    +0.000 A 
ATOM     14  C   UNL     1      -2.470  13.650  23.331  0.00  0.00    +0.000 A 
ATOM     15  C   UNL     1      -1.182  13.139  23.219  0.00  0.00    +0.000 A 
ATOM     16  C   UNL     1      -0.798  12.444  22.075  0.00  0.00    +0.000 A 
ATOM     17  C   UNL     1      -1.722  12.259  21.031  0.00  0.00    +0.000 A 
ENDROOT
BRANCH   6  18
ATOM     18  N   UNL     1      -5.688  11.561  17.394  0.00  0.00    +0.000 N 
ATOM     19  H   UNL     1      -6.424  10.917  17.712  0.00  0.00    +0.000 HD
BRANCH  18  20
ATOM     20  C   UNL     1      -6.072  12.754  16.647  0.00  0.00    +0.000 C 
BRANCH  20  21
ATOM     21  C   UNL     1      -7.107  13.638  17.342  0.00  0.00    +0.000 C 
BRANCH  21  22
ATOM     22  N   UNL     1      -6.417  14.768  17.968  0.00  0.00    +0.000 NA
ATOM     23  H   UNL     1      -6.439  15.600  17.334  0.00  0.00    +0.000 HD
ATOM     24  H   UNL     1      -5.417  14.517  18.141  0.00  0.00    +0.000 HD
ENDBRANCH  21  22
ENDBRANCH  20  21
ENDBRANCH  18  20
ENDBRANCH   6  18
BRANCH  13  25
ATOM     25  O   UNL     1      -4.635  14.013  22.535  0.00  0.00    +0.000 OA
ATOM     26  H   UNL     1      -4.997  14.271  23.385  0.00  0.00    +0.000 HD
ENDBRANCH  13  25
BRANCH  16  27
ATOM     27  O   UNL     1       0.454  11.944  21.981  0.00  0.00    +0.000 OA
ATOM     28  H   UNL     1       1.064  11.928  22.732  0.00  0.00    +0.000 HD
ENDBRANCH  16  27
BRANCH   1  29
ATOM     29  C   UNL     1       0.726   9.595  17.636  0.00  0.00    +0.000 C 
BRANCH  29  30
ATOM     30  C   UNL     1       1.598   8.867  18.661  0.00  0.00    +0.000 C 
BRANCH  30  31
ATOM     31  C   UNL     1       2.711   8.055  17.966  0.00  0.00    +0.000 C 
BRANCH  31  33
ATOM     32  C   UNL     1       3.913   5.982  17.822  0.00  0.00    +0.000 C 
ATOM     33  N   UNL     1       2.659   6.610  18.274  0.00  0.00    +0.000 NA
ATOM     34  C   UNL     1       2.471   6.345  19.711  0.00  0.00    +0.000 C 
ENDBRANCH  31  33
ENDBRANCH  30  31
ENDBRANCH  29  30
ENDBRANCH   1  29
TORSDOF 10
ENDMDL
MODEL 9
REMARK VINA RESULT:      -6.0      2.057      4.573
REMARK  Name = 
REMARK  12 active torsions:
REMARK  status: ('A' for Active; 'I' for Inactive)
REMARK    1  A    between atoms: C_1  and  N_2
REMARK    2  A    between atoms: N_2  and  C_3
REMARK    3  A    between atoms: N_2  and  C_4
REMARK    4  A    between atoms: C_4  and  C_5
REMARK    5  A    between atoms: C_5  and  C_6
REMARK    6  A    between atoms: C_6  and  N_7
REMARK    7  A    between atoms: C_12  and  N_13
REMARK    8  A    between atoms: N_13  and  C_14
REMARK    9  A    between atoms: C_14  and  C_15
REMARK   10  A    between atoms: C_15  and  N_16
REMARK   11  A    between atoms: C_23  and  O_24
REMARK   12  A    between atoms: C_27  and  O_28
REMARK                            x       y       z     vdW  Elec       q    Type
REMARK                         _______ _______ _______ _____ _____    ______ ____
ROOT
ATOM      1  N   UNL     1       2.320   7.727  18.255  0.00  0.00    +0.000 N 
ATOM      2  N   UNL     1       1.906   6.767  19.082  0.00  0.00    +0.000 NA
ATOM      3  C   UNL     1       2.860   5.807  19.090  0.00  0.00    +0.000 A 
ATOM      4  C   UNL     1       3.865   6.171  18.263  0.00  0.00    +0.000 A 
ATOM      5  C   UNL     1       5.032   5.482  17.993  0.00  0.00    +0.000 A 
ATOM      6  C   UNL     1       5.960   6.140  17.105  0.00  0.00    +0.000 A 
ATOM      7  C   UNL     1       5.591   7.430  16.579  0.00  0.00    +0.000 A 
ATOM      8  C   UNL     1       4.372   8.047  16.893  0.00  0.00    +0.000 A 
ATOM      9  C   UNL     1       3.524   7.373  17.757  0.00  0.00    +0.000 A 
ATOM     10  C   UNL     1       5.161   4.165  18.715  0.00  0.00    +0.000 C 
ATOM     11  O   UNL     1       6.154   3.487  18.536  0.00  0.00    +0.000 OA
ATOM     12  C   UNL     1       4.058   3.714  19.688  0.00  0.00    +0.000 A 
ATOM     13  C   UNL     1       4.103   2.505  20.450  0.00  0.00    +0.000 A 
ATOM     14  C   UNL     1       3.058   2.191  21.331  0.00  0.00    +0.000 A 
ATOM     15  C   UNL     1       1.966   3.037  21.488  0.00  0.00    +0.000 A 
ATOM     16  C   UNL     1       1.884   4.222  20.760  0.00  0.00    +0.000 A 
ATOM     17  C   UNL     1       2.915   4.560  19.864  0.00  0.00    +0.000 A 
ENDROOT
BRANCH   6  18
ATOM     18  N   UNL     1       7.234   5.576  16.742  0.00  0.00    +0.000 N 
ATOM     19  H   UNL     1       8.049   5.670  17.362  0.00  0.00    +0.000 HD
BRANCH  18  20
ATOM     20  C   UNL     1       7.409   4.937  15.443  0.00  0.00    +0.000 C 
BRANCH  20  21
ATOM     21  C   UNL     1       6.139   4.316  14.861  0.00  0.00    +0.000 C 
BRANCH  21  22
ATOM     22  N   UNL     1       5.929   3.006  15.481  0.00  0.00    +0.000 NA
ATOM     23  H   UNL     1       4.966   2.657  15.267  0.00  0.00    +0.000 HD
ATOM     24  H   UNL     1       6.023   3.089  16.518  0.00  0.00    +0.000 HD
ENDBRANCH  21  22
ENDBRANCH  20  21
ENDBRANCH  18  20
ENDBRANCH   6  18
BRANCH  13  25
ATOM     25  O   UNL     1       5.112   1.607  20.387  0.00  0.00    +0.000 OA
ATOM     26  H   UNL     1       5.960   1.730  19.954  0.00  0.00    +0.000 HD
ENDBRANCH  13  25
BRANCH  16  27
ATOM     27  O   UNL     1       0.822   5.042  20.927  0.00  0.00    +0.000 OA
ATOM     28  H   UNL     1       0.874   5.857  21.444  0.00  0.00    +0.000 HD
ENDBRANCH  16  27
BRANCH   1  29
ATOM     29  C   UNL     1       1.573   8.958  18.000  0.00  0.00    +0.000 C 
BRANCH  29  30
ATOM     30  C   UNL     1       1.176   9.622  19.321  0.00  0.00    +0.000 C 
BRANCH  30  31
ATOM     31  C   UNL     1      -0.319  10.003  19.322  0.00  0.00    +0.000 C 
BRANCH  31  33
ATOM     32  C   UNL     1      -1.944  10.011  17.554  0.00  0.00    +0.000 C 
ATOM     33  N   UNL     1      -0.746  10.688  18.083  0.00  0.00    +0.000 NA
ATOM     34  C   UNL     1      -1.049  12.114  18.302  0.00  0.00    +0.000 C 
ENDBRANCH  31  33
ENDBRANCH  30  31
ENDBRANCH  29  30
ENDBRANCH   1  29
TORSDOF 10
ENDMDL
