MODEL 1
REMARK VINA RESULT:      -8.3      0.000      0.000
REMARK  Name = 
REMARK  3 active torsions:
REMARK  status: ('A' for Active; 'I' for Inactive)
REMARK    1  A    between atoms: C_1  and  N_2
REMARK    2  A    between atoms: C_9  and  N_10
REMARK    3  A    between atoms: C_11  and  C_13
REMARK                            x       y       z     vdW  Elec       q    Type
REMARK                         _______ _______ _______ _____ _____    ______ ____
ROOT
ATOM      1  N   UNL     1       2.656   6.944  19.923  0.00  0.00    +0.000 N 
ATOM      2  C   UNL     1       1.984   8.008  19.347  0.00  0.00    +0.000 C 
ATOM      3  O   UNL     1       2.085   8.314  18.163  0.00  0.00    +0.000 OA
ATOM      4  H   UNL     1       2.714   6.880  20.930  0.00  0.00    +0.000 HD
ENDROOT
BRANCH   1  13
ATOM      5  C   UNL     1       0.782   2.549  19.293  0.00  0.00    +0.000 C 
ATOM      6  N   UNL     1       1.319   3.101  18.052  0.00  0.00    +0.000 NA
ATOM      7  C   UNL     1       2.384   2.263  17.489  0.00  0.00    +0.000 C 
ATOM      8  C   UNL     1       3.716   2.354  18.245  0.00  0.00    +0.000 C 
ATOM      9  C   UNL     1       4.195   3.805  18.423  0.00  0.00    +0.000 C 
ATOM     10  C   UNL     1       4.774   4.367  17.111  0.00  0.00    +0.000 C 
ATOM     11  C   UNL     1       4.726   5.882  16.879  0.00  0.00    +0.000 C 
ATOM     12  C   UNL     1       3.800   6.722  17.756  0.00  0.00    +0.000 C 
ATOM     13  C   UNL     1       3.555   6.112  19.131  0.00  0.00    +0.000 C 
ATOM     14  C   UNL     1       3.065   4.658  19.020  0.00  0.00    +0.000 C 
ATOM     15  C   UNL     1       1.763   4.494  18.205  0.00  0.00    +0.000 C 
ENDBRANCH   1  13
BRANCH   2  16
ATOM     16  C   UNL     1       1.114   8.815  20.247  0.00  0.00    +0.000 A 
ATOM     17  C   UNL     1       1.175   8.567  21.624  0.00  0.00    +0.000 A 
ATOM     18  C   UNL     1       0.401   9.323  22.509  0.00  0.00    +0.000 A 
ATOM     19  C   UNL     1      -0.429  10.337  22.026  0.00  0.00    +0.000 A 
ATOM     20 CL   UNL     1      -1.345  11.245  23.174  0.00  0.00    +0.000 Cl
ATOM     21  C   UNL     1      -0.485  10.592  20.650  0.00  0.00    +0.000 A 
ATOM     22 CL   UNL     1      -1.476  11.840  19.980  0.00  0.00    +0.000 Cl
ATOM     23  C   UNL     1       0.289   9.836  19.762  0.00  0.00    +0.000 A 
ENDBRANCH   2  16
TORSDOF 2
ENDMDL
MODEL 2
REMARK VINA RESULT:      -8.3      1.116      1.158
REMARK  Name = 
REMARK  3 active torsions:
REMARK  status: ('A' for Active; 'I' for Inactive)
REMARK    1  A    between atoms: C_1  and  N_2
REMARK    2  A    between atoms: C_9  and  N_10
REMARK    3  A    between atoms: C_11  and  C_13
REMARK                            x       y       z     vdW  Elec       q    Type
REMARK                         _______ _______ _______ _____ _____    ______ ____
ROOT
ATOM      1  N   UNL     1       2.142   7.140  20.270  0.00  0.00    +0.000 N 
ATOM      2  C   UNL     1       1.763   8.360  19.738  0.00  0.00    +0.000 C 
ATOM      3  O   UNL     1       2.156   8.781  18.655  0.00  0.00    +0.000 OA
ATOM      4  H   UNL     1       1.974   6.950  21.248  0.00  0.00    +0.000 HD
ENDROOT
BRANCH   1  13
ATOM      5  C   UNL     1       1.489   2.545  21.568  0.00  0.00    +0.000 C 
ATOM      6  N   UNL     1       1.596   2.697  20.119  0.00  0.00    +0.000 NA
ATOM      7  C   UNL     1       2.722   1.936  19.564  0.00  0.00    +0.000 C 
ATOM      8  C   UNL     1       4.097   2.555  19.851  0.00  0.00    +0.000 C 
ATOM      9  C   UNL     1       4.174   4.035  19.434  0.00  0.00    +0.000 C 
ATOM     10  C   UNL     1       4.305   4.178  17.906  0.00  0.00    +0.000 C 
ATOM     11  C   UNL     1       3.790   5.462  17.245  0.00  0.00    +0.000 C 
ATOM     12  C   UNL     1       2.856   6.367  18.045  0.00  0.00    +0.000 C 
ATOM     13  C   UNL     1       3.065   6.268  19.551  0.00  0.00    +0.000 C 
ATOM     14  C   UNL     1       2.990   4.809  20.033  0.00  0.00    +0.000 C 
ATOM     15  C   UNL     1       1.653   4.107  19.707  0.00  0.00    +0.000 C 
ENDBRANCH   1  13
BRANCH   2  16
ATOM     16  C   UNL     1       0.842   9.190  20.563  0.00  0.00    +0.000 A 
ATOM     17  C   UNL     1       0.777   8.941  21.940  0.00  0.00    +0.000 A 
ATOM     18  C   UNL     1      -0.048   9.717  22.757  0.00  0.00    +0.000 A 
ATOM     19  C   UNL     1      -0.806  10.754  22.208  0.00  0.00    +0.000 A 
ATOM     20 CL   UNL     1      -1.791  11.686  23.276  0.00  0.00    +0.000 Cl
ATOM     21  C   UNL     1      -0.737  11.010  20.833  0.00  0.00    +0.000 A 
ATOM     22 CL   UNL     1      -1.634  12.285  20.084  0.00  0.00    +0.000 Cl
ATOM     23  C   UNL     1       0.089  10.234  20.012  0.00  0.00    +0.000 A 
ENDBRANCH   2  16
TORSDOF 2
ENDMDL
MODEL 3
REMARK VINA RESULT:      -8.3      0.994      1.724
REMARK  Name = 
REMARK  3 active torsions:
REMARK  status: ('A' for Active; 'I' for Inactive)
REMARK    1  A    between atoms: C_1  and  N_2
REMARK    2  A    between atoms: C_9  and  N_10
REMARK    3  A    between atoms: C_11  and  C_13
REMARK                            x       y       z     vdW  Elec       q    Type
REMARK                         _______ _______ _______ _____ _____    ______ ____
ROOT
ATOM      1  N   UNL     1       2.942   7.332  18.647  0.00  0.00    +0.000 N 
ATOM      2  C   UNL     1       2.256   7.296  19.848  0.00  0.00    +0.000 C 
ATOM      3  O   UNL     1       2.346   6.375  20.654  0.00  0.00    +0.000 OA
ATOM      4  H   UNL     1       2.660   7.989  17.932  0.00  0.00    +0.000 HD
ENDROOT
BRANCH   1  13
ATOM      5  C   UNL     1       0.719   3.087  19.156  0.00  0.00    +0.000 C 
ATOM      6  N   UNL     1       1.426   3.188  17.882  0.00  0.00    +0.000 NA
ATOM      7  C   UNL     1       2.454   2.151  17.735  0.00  0.00    +0.000 C 
ATOM      8  C   UNL     1       3.709   2.390  18.585  0.00  0.00    +0.000 C 
ATOM      9  C   UNL     1       4.306   3.792  18.371  0.00  0.00    +0.000 C 
ATOM     10  C   UNL     1       5.063   3.878  17.032  0.00  0.00    +0.000 C 
ATOM     11  C   UNL     1       5.185   5.244  16.347  0.00  0.00    +0.000 C 
ATOM     12  C   UNL     1       4.264   6.372  16.807  0.00  0.00    +0.000 C 
ATOM     13  C   UNL     1       3.829   6.240  18.261  0.00  0.00    +0.000 C 
ATOM     14  C   UNL     1       3.212   4.857  18.537  0.00  0.00    +0.000 C 
ATOM     15  C   UNL     1       1.986   4.528  17.657  0.00  0.00    +0.000 C 
ENDBRANCH   1  13
BRANCH   2  16
ATOM     16  C   UNL     1       1.352   8.444  20.135  0.00  0.00    +0.000 A 
ATOM     17  C   UNL     1       1.005   9.296  19.079  0.00  0.00    +0.000 A 
ATOM     18  C   UNL     1       0.133  10.366  19.296  0.00  0.00    +0.000 A 
ATOM     19  C   UNL     1      -0.406  10.586  20.566  0.00  0.00    +0.000 A 
ATOM     20 CL   UNL     1      -1.490  11.915  20.762  0.00  0.00    +0.000 Cl
ATOM     21  C   UNL     1      -0.067   9.731  21.622  0.00  0.00    +0.000 A 
ATOM     22 CL   UNL     1      -0.706   9.931  23.215  0.00  0.00    +0.000 Cl
ATOM     23  C   UNL     1       0.806   8.658  21.406  0.00  0.00    +0.000 A 
ENDBRANCH   2  16
TORSDOF 2
ENDMDL
MODEL 4
REMARK VINA RESULT:      -8.3      5.401      6.792
REMARK  Name = 
REMARK  3 active torsions:
REMARK  status: ('A' for Active; 'I' for Inactive)
REMARK    1  A    between atoms: C_1  and  N_2
REMARK    2  A    between atoms: C_9  and  N_10
REMARK    3  A    between atoms: C_11  and  C_13
REMARK                            x       y       z     vdW  Elec       q    Type
REMARK                         _______ _______ _______ _____ _____    ______ ____
ROOT
ATOM      1  N   UNL     1       7.049   7.653  17.216  0.00  0.00    +0.000 N 
ATOM      2  C   UNL     1       8.010   7.953  18.165  0.00  0.00    +0.000 C 
ATOM      3  O   UNL     1       8.509   7.119  18.914  0.00  0.00    +0.000 OA
ATOM      4  H   UNL     1       6.516   8.400  16.793  0.00  0.00    +0.000 HD
ENDROOT
BRANCH   1  13
ATOM      5  C   UNL     1       2.739   7.152  19.314  0.00  0.00    +0.000 C 
ATOM      6  N   UNL     1       2.774   6.555  17.981  0.00  0.00    +0.000 NA
ATOM      7  C   UNL     1       2.482   5.117  18.011  0.00  0.00    +0.000 C 
ATOM      8  C   UNL     1       3.630   4.257  18.557  0.00  0.00    +0.000 C 
ATOM      9  C   UNL     1       4.964   4.533  17.841  0.00  0.00    +0.000 C 
ATOM     10  C   UNL     1       4.993   3.882  16.445  0.00  0.00    +0.000 C 
ATOM     11  C   UNL     1       5.884   4.506  15.365  0.00  0.00    +0.000 C 
ATOM     12  C   UNL     1       6.409   5.923  15.586  0.00  0.00    +0.000 C 
ATOM     13  C   UNL     1       6.557   6.288  17.058  0.00  0.00    +0.000 C 
ATOM     14  C   UNL     1       5.248   6.042  17.830  0.00  0.00    +0.000 C 
ATOM     15  C   UNL     1       4.037   6.826  17.280  0.00  0.00    +0.000 C 
ENDBRANCH   1  13
BRANCH   2  16
ATOM     16  C   UNL     1       8.423   9.380  18.269  0.00  0.00    +0.000 A 
ATOM     17  C   UNL     1       7.836  10.305  17.396  0.00  0.00    +0.000 A 
ATOM     18  C   UNL     1       8.168  11.660  17.480  0.00  0.00    +0.000 A 
ATOM     19  C   UNL     1       9.081  12.101  18.441  0.00  0.00    +0.000 A 
ATOM     20 CL   UNL     1       9.434  13.790  18.503  0.00  0.00    +0.000 Cl
ATOM     21  C   UNL     1       9.663  11.179  19.320  0.00  0.00    +0.000 A 
ATOM     22 CL   UNL     1      10.787  11.651  20.545  0.00  0.00    +0.000 Cl
ATOM     23  C   UNL     1       9.330   9.822  19.238  0.00  0.00    +0.000 A 
ENDBRANCH   2  16
TORSDOF 2
ENDMDL
MODEL 5
REMARK VINA RESULT:      -8.1      3.563      7.693
REMARK  Name = 
REMARK  3 active torsions:
REMARK  status: ('A' for Active; 'I' for Inactive)
REMARK    1  A    between atoms: C_1  and  N_2
REMARK    2  A    between atoms: C_9  and  N_10
REMARK    3  A    between atoms: C_11  and  C_13
REMARK                            x       y       z     vdW  Elec       q    Type
REMARK                         _______ _______ _______ _____ _____    ______ ____
ROOT
ATOM      1  N   UNL     1       1.296   9.245  19.287  0.00  0.00    +0.000 N 
ATOM      2  C   UNL     1       1.973   8.621  18.254  0.00  0.00    +0.000 C 
ATOM      3  O   UNL     1       2.059   9.084  17.121  0.00  0.00    +0.000 OA
ATOM      4  H   UNL     1       1.065   8.721  20.119  0.00  0.00    +0.000 HD
ENDROOT
BRANCH   1  13
ATOM      5  C   UNL     1      -1.174  10.535  23.219  0.00  0.00    +0.000 C 
ATOM      6  N   UNL     1      -0.397  11.643  22.669  0.00  0.00    +0.000 NA
ATOM      7  C   UNL     1      -1.246  12.777  22.283  0.00  0.00    +0.000 C 
ATOM      8  C   UNL     1      -2.050  12.547  20.997  0.00  0.00    +0.000 C 
ATOM      9  C   UNL     1      -1.163  12.098  19.822  0.00  0.00    +0.000 C 
ATOM     10  C   UNL     1      -0.364  13.280  19.242  0.00  0.00    +0.000 C 
ATOM     11  C   UNL     1       0.969  12.990  18.541  0.00  0.00    +0.000 C 
ATOM     12  C   UNL     1       1.622  11.627  18.761  0.00  0.00    +0.000 C 
ATOM     13  C   UNL     1       0.622  10.521  19.073  0.00  0.00    +0.000 C 
ATOM     14  C   UNL     1      -0.292  10.907  20.250  0.00  0.00    +0.000 C 
ATOM     15  C   UNL     1       0.467  11.224  21.557  0.00  0.00    +0.000 C 
ENDBRANCH   1  13
BRANCH   2  16
ATOM     16  C   UNL     1       2.601   7.307  18.565  0.00  0.00    +0.000 A 
ATOM     17  C   UNL     1       3.651   6.865  17.750  0.00  0.00    +0.000 A 
ATOM     18  C   UNL     1       4.292   5.655  18.025  0.00  0.00    +0.000 A 
ATOM     19  C   UNL     1       3.896   4.882  19.119  0.00  0.00    +0.000 A 
ATOM     20 CL   UNL     1       4.741   3.405  19.413  0.00  0.00    +0.000 Cl
ATOM     21  C   UNL     1       2.851   5.326  19.939  0.00  0.00    +0.000 A 
ATOM     22 CL   UNL     1       2.316   4.433  21.319  0.00  0.00    +0.000 Cl
ATOM     23  C   UNL     1       2.208   6.538  19.667  0.00  0.00    +0.000 A 
ENDBRANCH   2  16
TORSDOF 2
ENDMDL
MODEL 6
REMARK VINA RESULT:      -8.1      0.774      1.532
REMARK  Name = 
REMARK  3 active torsions:
REMARK  status: ('A' for Active; 'I' for Inactive)
REMARK    1  A    between atoms: C_1  and  N_2
REMARK    2  A    between atoms: C_9  and  N_10
REMARK    3  A    between atoms: C_11  and  C_13
REMARK                            x       y       z     vdW  Elec       q    Type
REMARK                         _______ _______ _______ _____ _____    ______ ____
ROOT
ATOM      1  N   UNL     1       2.700   7.084  19.474  0.00  0.00    +0.000 N 
ATOM      2  C   UNL     1       2.122   8.133  18.780  0.00  0.00    +0.000 C 
ATOM      3  O   UNL     1       2.322   8.351  17.589  0.00  0.00    +0.000 OA
ATOM      4  H   UNL     1       2.683   7.088  20.484  0.00  0.00    +0.000 HD
ENDROOT
BRANCH   1  13
ATOM      5  C   UNL     1       0.774   2.672  19.257  0.00  0.00    +0.000 C 
ATOM      6  N   UNL     1       1.361   3.079  17.982  0.00  0.00    +0.000 NA
ATOM      7  C   UNL     1       2.430   2.171  17.550  0.00  0.00    +0.000 C 
ATOM      8  C   UNL     1       3.738   2.326  18.337  0.00  0.00    +0.000 C 
ATOM      9  C   UNL     1       4.234   3.782  18.374  0.00  0.00    +0.000 C 
ATOM     10  C   UNL     1       4.866   4.191  17.030  0.00  0.00    +0.000 C 
ATOM     11  C   UNL     1       4.850   5.672  16.634  0.00  0.00    +0.000 C 
ATOM     12  C   UNL     1       3.910   6.613  17.383  0.00  0.00    +0.000 C 
ATOM     13  C   UNL     1       3.610   6.160  18.807  0.00  0.00    +0.000 C 
ATOM     14  C   UNL     1       3.099   4.709  18.836  0.00  0.00    +0.000 C 
ATOM     15  C   UNL     1       1.823   4.474  18.000  0.00  0.00    +0.000 C 
ENDBRANCH   1  13
BRANCH   2  16
ATOM     16  C   UNL     1       1.233   9.039  19.557  0.00  0.00    +0.000 A 
ATOM     17  C   UNL     1       0.540  10.042  18.867  0.00  0.00    +0.000 A 
ATOM     18  C   UNL     1      -0.331  10.893  19.550  0.00  0.00    +0.000 A 
ATOM     19  C   UNL     1      -0.524  10.744  20.926  0.00  0.00    +0.000 A 
ATOM     20 CL   UNL     1      -1.629  11.818  21.706  0.00  0.00    +0.000 Cl
ATOM     21  C   UNL     1       0.161   9.737  21.617  0.00  0.00    +0.000 A 
ATOM     22 CL   UNL     1      -0.039   9.481  23.315  0.00  0.00    +0.000 Cl
ATOM     23  C   UNL     1       1.033   8.883  20.934  0.00  0.00    +0.000 A 
ENDBRANCH   2  16
TORSDOF 2
ENDMDL
MODEL 7
REMARK VINA RESULT:      -8.1      1.920      3.485
REMARK  Name = 
REMARK  3 active torsions:
REMARK  status: ('A' for Active; 'I' for Inactive)
REMARK    1  A    between atoms: C_1  and  N_2
REMARK    2  A    between atoms: C_9  and  N_10
REMARK    3  A    between atoms: C_11  and  C_13
REMARK                            x       y       z     vdW  Elec       q    Type
REMARK                         _______ _______ _______ _____ _____    ______ ____
ROOT
ATOM      1  N   UNL     1       2.534   6.600  18.625  0.00  0.00    +0.000 N 
ATOM      2  C   UNL     1       2.318   7.852  18.076  0.00  0.00    +0.000 C 
ATOM      3  O   UNL     1       2.550   8.129  16.903  0.00  0.00    +0.000 OA
ATOM      4  H   UNL     1       2.543   6.492  19.630  0.00  0.00    +0.000 HD
ENDROOT
BRANCH   1  13
ATOM      5  C   UNL     1       7.317   7.017  18.205  0.00  0.00    +0.000 C 
ATOM      6  N   UNL     1       6.910   5.651  18.523  0.00  0.00    +0.000 NA
ATOM      7  C   UNL     1       7.330   4.694  17.491  0.00  0.00    +0.000 C 
ATOM      8  C   UNL     1       6.505   4.766  16.199  0.00  0.00    +0.000 C 
ATOM      9  C   UNL     1       4.992   4.665  16.460  0.00  0.00    +0.000 C 
ATOM     10  C   UNL     1       4.576   3.216  16.776  0.00  0.00    +0.000 C 
ATOM     11  C   UNL     1       3.329   2.984  17.638  0.00  0.00    +0.000 C 
ATOM     12  C   UNL     1       2.773   4.158  18.441  0.00  0.00    +0.000 C 
ATOM     13  C   UNL     1       3.074   5.513  17.815  0.00  0.00    +0.000 C 
ATOM     14  C   UNL     1       4.579   5.680  17.537  0.00  0.00    +0.000 C 
ATOM     15  C   UNL     1       5.469   5.544  18.791  0.00  0.00    +0.000 C 
ENDBRANCH   1  13
BRANCH   2  16
ATOM     16  C   UNL     1       1.794   8.902  18.993  0.00  0.00    +0.000 A 
ATOM     17  C   UNL     1       1.607  10.193  18.484  0.00  0.00    +0.000 A 
ATOM     18  C   UNL     1       1.086  11.201  19.299  0.00  0.00    +0.000 A 
ATOM     19  C   UNL     1       0.739  10.925  20.624  0.00  0.00    +0.000 A 
ATOM     20 CL   UNL     1       0.084  12.211  21.571  0.00  0.00    +0.000 Cl
ATOM     21  C   UNL     1       0.918   9.632  21.132  0.00  0.00    +0.000 A 
ATOM     22 CL   UNL     1       0.498   9.211  22.755  0.00  0.00    +0.000 Cl
ATOM     23  C   UNL     1       1.439   8.621  20.318  0.00  0.00    +0.000 A 
ENDBRANCH   2  16
TORSDOF 2
ENDMDL
MODEL 8
REMARK VINA RESULT:      -8.0      0.869      1.062
REMARK  Name = 
REMARK  3 active torsions:
REMARK  status: ('A' for Active; 'I' for Inactive)
REMARK    1  A    between atoms: C_1  and  N_2
REMARK    2  A    between atoms: C_9  and  N_10
REMARK    3  A    between atoms: C_11  and  C_13
REMARK                            x       y       z     vdW  Elec       q    Type
REMARK                         _______ _______ _______ _____ _____    ______ ____
ROOT
ATOM      1  N   UNL     1       2.507   7.263  19.222  0.00  0.00    +0.000 N 
ATOM      2  C   UNL     1       2.077   8.344  18.474  0.00  0.00    +0.000 C 
ATOM      3  O   UNL     1       2.473   8.586  17.338  0.00  0.00    +0.000 OA
ATOM      4  H   UNL     1       2.326   7.242  20.216  0.00  0.00    +0.000 HD
ENDROOT
BRANCH   1  13
ATOM      5  C   UNL     1       0.740   2.779  19.170  0.00  0.00    +0.000 C 
ATOM      6  N   UNL     1       1.405   3.123  17.916  0.00  0.00    +0.000 NA
ATOM      7  C   UNL     1       2.530   2.227  17.622  0.00  0.00    +0.000 C 
ATOM      8  C   UNL     1       3.772   2.480  18.488  0.00  0.00    +0.000 C 
ATOM      9  C   UNL     1       4.219   3.952  18.461  0.00  0.00    +0.000 C 
ATOM     10  C   UNL     1       4.934   4.294  17.141  0.00  0.00    +0.000 C 
ATOM     11  C   UNL     1       4.902   5.745  16.645  0.00  0.00    +0.000 C 
ATOM     12  C   UNL     1       3.881   6.699  17.260  0.00  0.00    +0.000 C 
ATOM     13  C   UNL     1       3.492   6.329  18.686  0.00  0.00    +0.000 C 
ATOM     14  C   UNL     1       3.026   4.866  18.778  0.00  0.00    +0.000 C 
ATOM     15  C   UNL     1       1.821   4.532  17.871  0.00  0.00    +0.000 C 
ENDBRANCH   1  13
BRANCH   2  16
ATOM     16  C   UNL     1       1.094   9.256  19.123  0.00  0.00    +0.000 A 
ATOM     17  C   UNL     1       0.928   9.173  20.511  0.00  0.00    +0.000 A 
ATOM     18  C   UNL     1       0.041  10.031  21.166  0.00  0.00    +0.000 A 
ATOM     19  C   UNL     1      -0.678  10.984  20.441  0.00  0.00    +0.000 A 
ATOM     20 CL   UNL     1      -1.744  12.025  21.314  0.00  0.00    +0.000 Cl
ATOM     21  C   UNL     1      -0.508  11.074  19.054  0.00  0.00    +0.000 A 
ATOM     22 CL   UNL     1      -1.351  12.238  18.093  0.00  0.00    +0.000 Cl
ATOM     23  C   UNL     1       0.380  10.216  18.396  0.00  0.00    +0.000 A 
ENDBRANCH   2  16
TORSDOF 2
ENDMDL
MODEL 9
REMARK VINA RESULT:      -8.0      3.857      7.702
REMARK  Name = 
REMARK  3 active torsions:
REMARK  status: ('A' for Active; 'I' for Inactive)
REMARK    1  A    between atoms: C_1  and  N_2
REMARK    2  A    between atoms: C_9  and  N_10
REMARK    3  A    between atoms: C_11  and  C_13
REMARK                            x       y       z     vdW  Elec       q    Type
REMARK                         _______ _______ _______ _____ _____    ______ ____
ROOT
ATOM      1  N   UNL     1       1.370   9.134  19.259  0.00  0.00    +0.000 N 
ATOM      2  C   UNL     1       2.076   8.542  18.226  0.00  0.00    +0.000 C 
ATOM      3  O   UNL     1       2.170   9.027  17.102  0.00  0.00    +0.000 OA
ATOM      4  H   UNL     1       1.138   8.590  20.078  0.00  0.00    +0.000 HD
ENDROOT
BRANCH   1  13
ATOM      5  C   UNL     1      -1.064  10.378  23.228  0.00  0.00    +0.000 C 
ATOM      6  N   UNL     1      -0.312  11.499  22.669  0.00  0.00    +0.000 NA
ATOM      7  C   UNL     1      -1.185  12.620  22.298  0.00  0.00    +0.000 C 
ATOM      8  C   UNL     1      -2.003  12.378  21.022  0.00  0.00    +0.000 C 
ATOM      9  C   UNL     1      -1.127  11.945  19.834  0.00  0.00    +0.000 C 
ATOM     10  C   UNL     1      -0.356  13.141  19.245  0.00  0.00    +0.000 C 
ATOM     11  C   UNL     1       0.971  12.873  18.524  0.00  0.00    +0.000 C 
ATOM     12  C   UNL     1       1.650  11.522  18.733  0.00  0.00    +0.000 C 
ATOM     13  C   UNL     1       0.672  10.399  19.057  0.00  0.00    +0.000 C 
ATOM     14  C   UNL     1      -0.230  10.769  20.247  0.00  0.00    +0.000 C 
ATOM     15  C   UNL     1       0.542  11.095  21.544  0.00  0.00    +0.000 C 
ENDBRANCH   1  13
BRANCH   2  16
ATOM     16  C   UNL     1       2.727   7.237  18.523  0.00  0.00    +0.000 A 
ATOM     17  C   UNL     1       2.350   6.559  19.690  0.00  0.00    +0.000 A 
ATOM     18  C   UNL     1       2.911   5.315  19.992  0.00  0.00    +0.000 A 
ATOM     19  C   UNL     1       3.843   4.736  19.128  0.00  0.00    +0.000 A 
ATOM     20 CL   UNL     1       4.484   3.190  19.552  0.00  0.00    +0.000 Cl
ATOM     21  C   UNL     1       4.215   5.409  17.957  0.00  0.00    +0.000 A 
ATOM     22 CL   UNL     1       5.350   4.748  16.832  0.00  0.00    +0.000 Cl
ATOM     23  C   UNL     1       3.655   6.654  17.652  0.00  0.00    +0.000 A 
ENDBRANCH   2  16
TORSDOF 2
ENDMDL
