MODEL 1
REMARK VINA RESULT:      -8.0      0.000      0.000
REMARK  Name = 
REMARK  7 active torsions:
REMARK  status: ('A' for Active; 'I' for Inactive)
REMARK    1  A    between atoms: C_1  and  C_2
REMARK    2  A    between atoms: C_2  and  N_3
REMARK    3  A    between atoms: C_2  and  C_14
REMARK    4  A    between atoms: N_3  and  C_4
REMARK    5  A    between atoms: N_16  and  C_17
REMARK    6  A    between atoms: C_19  and  C_20
REMARK    7  A    between atoms: C_26  and  N_27
REMARK                            x       y       z     vdW  Elec       q    Type
REMARK                         _______ _______ _______ _____ _____    ______ ____
ROOT
ATOM      1  C   UNL     1       3.787   3.747  17.178  0.00  0.00    +0.000 C 
ATOM      2  O   UNL     1       4.459   2.723  17.294  0.00  0.00    +0.000 OA
ATOM      3  N   UNL     1       4.101   4.801  16.325  0.00  0.00    +0.000 N 
ATOM      4  H   UNL     1       3.366   5.450  16.079  0.00  0.00    +0.000 HD
ENDROOT
BRANCH   3   5
ATOM      5  C   UNL     1       5.214   4.726  15.457  0.00  0.00    +0.000 A 
ATOM      6  C   UNL     1       4.993   4.109  14.211  0.00  0.00    +0.000 A 
ATOM      7  C   UNL     1       6.040   3.883  13.312  0.00  0.00    +0.000 A 
ATOM      8  C   UNL     1       7.308   4.352  13.655  0.00  0.00    +0.000 A 
ATOM      9  C   UNL     1       7.528   4.968  14.889  0.00  0.00    +0.000 A 
ATOM     10  C   UNL     1       6.505   5.145  15.850  0.00  0.00    +0.000 A 
BRANCH  10  11
ATOM     11  N   UNL     1       6.821   5.775  17.045  0.00  0.00    +0.000 N 
ATOM     12  C   UNL     1       6.851   7.228  17.237  0.00  0.00    +0.000 C 
ATOM     13  C   UNL     1       8.073   7.644  18.074  0.00  0.00    +0.000 C 
ATOM     14  O   UNL     1       8.163   6.909  19.304  0.00  0.00    +0.000 OA
ATOM     15  C   UNL     1       8.254   5.501  19.030  0.00  0.00    +0.000 C 
ATOM     16  C   UNL     1       6.998   5.010  18.290  0.00  0.00    +0.000 C 
ENDBRANCH  10  11
BRANCH   7  17
ATOM     17  C   UNL     1       5.818   3.143  12.020  0.00  0.00    +0.000 C 
ATOM     18  F   UNL     1       6.891   3.165  11.181  0.00  0.00    +0.000 F 
ATOM     19  F   UNL     1       5.513   1.831  12.210  0.00  0.00    +0.000 F 
ATOM     20  F   UNL     1       4.782   3.664  11.301  0.00  0.00    +0.000 F 
ENDBRANCH   7  17
ENDBRANCH   3   5
BRANCH   1  22
ATOM     21  C   UNL     1       1.938   2.574  18.315  0.00  0.00    +0.000 C 
ATOM     22  C   UNL     1       2.515   3.956  18.033  0.00  0.00    +0.000 C 
BRANCH  22  23
ATOM     23  N   UNL     1       2.830   4.684  19.288  0.00  0.00    +0.000 N 
ATOM     24  H   UNL     1       3.833   4.747  19.429  0.00  0.00    +0.000 HD
BRANCH  23  25
ATOM     25  C   UNL     1       2.302   5.974  19.486  0.00  0.00    +0.000 A 
ATOM     26  C   UNL     1       1.752   6.418  20.694  0.00  0.00    +0.000 A 
ATOM     27  C   UNL     1       1.311   7.738  20.853  0.00  0.00    +0.000 A 
ATOM     28  C   UNL     1       1.431   8.643  19.807  0.00  0.00    +0.000 A 
ATOM     29  C   UNL     1       2.030   8.240  18.614  0.00  0.00    +0.000 A 
ATOM     30  C   UNL     1       2.460   6.920  18.457  0.00  0.00    +0.000 A 
ATOM     31  O   UNL     1       2.229   9.086  17.552  0.00  0.00    +0.000 OA
ATOM     32  C   UNL     1       2.112  10.456  17.957  0.00  0.00    +0.000 C 
ATOM     33  C   UNL     1       0.867  10.655  18.807  0.00  0.00    +0.000 C 
ATOM     34  O   UNL     1       0.963   9.912  20.027  0.00  0.00    +0.000 OA
ENDBRANCH  23  25
ENDBRANCH  22  23
ENDBRANCH   1  22
TORSDOF 6
ENDMDL
MODEL 2
REMARK VINA RESULT:      -7.9      3.651      5.809
REMARK  Name = 
REMARK  7 active torsions:
REMARK  status: ('A' for Active; 'I' for Inactive)
REMARK    1  A    between atoms: C_1  and  C_2
REMARK    2  A    between atoms: C_2  and  N_3
REMARK    3  A    between atoms: C_2  and  C_14
REMARK    4  A    between atoms: N_3  and  C_4
REMARK    5  A    between atoms: N_16  and  C_17
REMARK    6  A    between atoms: C_19  and  C_20
REMARK    7  A    between atoms: C_26  and  N_27
REMARK                            x       y       z     vdW  Elec       q    Type
REMARK                         _______ _______ _______ _____ _____    ______ ____
ROOT
ATOM      1  C   UNL     1       2.281   7.508  19.105  0.00  0.00    +0.000 C 
ATOM      2  O   UNL     1       2.467   7.728  17.908  0.00  0.00    +0.000 OA
ATOM      3  N   UNL     1       2.988   6.570  19.850  0.00  0.00    +0.000 N 
ATOM      4  H   UNL     1       2.981   6.657  20.858  0.00  0.00    +0.000 HD
ENDROOT
BRANCH   3   5
ATOM      5  C   UNL     1       4.049   5.834  19.274  0.00  0.00    +0.000 A 
ATOM      6  C   UNL     1       5.124   6.585  18.763  0.00  0.00    +0.000 A 
ATOM      7  C   UNL     1       6.180   5.975  18.078  0.00  0.00    +0.000 A 
ATOM      8  C   UNL     1       6.176   4.585  17.974  0.00  0.00    +0.000 A 
ATOM      9  C   UNL     1       5.112   3.837  18.486  0.00  0.00    +0.000 A 
ATOM     10  C   UNL     1       3.993   4.430  19.118  0.00  0.00    +0.000 A 
BRANCH  10  11
ATOM     11  N   UNL     1       2.989   3.603  19.600  0.00  0.00    +0.000 N 
ATOM     12  C   UNL     1       1.709   3.368  18.926  0.00  0.00    +0.000 C 
ATOM     13  C   UNL     1       0.549   3.373  19.938  0.00  0.00    +0.000 C 
ATOM     14  O   UNL     1       0.784   2.477  21.034  0.00  0.00    +0.000 OA
ATOM     15  C   UNL     1       1.992   2.845  21.721  0.00  0.00    +0.000 C 
ATOM     16  C   UNL     1       3.204   2.749  20.779  0.00  0.00    +0.000 C 
ENDBRANCH  10  11
BRANCH   7  17
ATOM     17  C   UNL     1       7.283   6.789  17.454  0.00  0.00    +0.000 C 
ATOM     18  F   UNL     1       6.916   8.062  17.138  0.00  0.00    +0.000 F 
ATOM     19  F   UNL     1       8.375   6.899  18.258  0.00  0.00    +0.000 F 
ATOM     20  F   UNL     1       7.733   6.239  16.291  0.00  0.00    +0.000 F 
ENDBRANCH   7  17
ENDBRANCH   3   5
BRANCH   1  22
ATOM     21  C   UNL     1       1.534   8.166  21.362  0.00  0.00    +0.000 C 
ATOM     22  C   UNL     1       1.181   8.268  19.883  0.00  0.00    +0.000 C 
BRANCH  22  23
ATOM     23  N   UNL     1       1.092   9.680  19.436  0.00  0.00    +0.000 N 
ATOM     24  H   UNL     1       1.737   9.862  18.674  0.00  0.00    +0.000 HD
BRANCH  23  25
ATOM     25  C   UNL     1      -0.158  10.204  19.054  0.00  0.00    +0.000 A 
ATOM     26  C   UNL     1      -0.857  11.174  19.780  0.00  0.00    +0.000 A 
ATOM     27  C   UNL     1      -2.062  11.711  19.309  0.00  0.00    +0.000 A 
ATOM     28  C   UNL     1      -2.579  11.297  18.089  0.00  0.00    +0.000 A 
ATOM     29  C   UNL     1      -1.870  10.375  17.320  0.00  0.00    +0.000 A 
ATOM     30  C   UNL     1      -0.674   9.836  17.798  0.00  0.00    +0.000 A 
ATOM     31  O   UNL     1      -2.289   9.952  16.083  0.00  0.00    +0.000 OA
ATOM     32  C   UNL     1      -3.284  10.835  15.547  0.00  0.00    +0.000 C 
ATOM     33  C   UNL     1      -4.342  11.143  16.594  0.00  0.00    +0.000 C 
ATOM     34  O   UNL     1      -3.770  11.852  17.699  0.00  0.00    +0.000 OA
ENDBRANCH  23  25
ENDBRANCH  22  23
ENDBRANCH   1  22
TORSDOF 6
ENDMDL
MODEL 3
REMARK VINA RESULT:      -7.9      0.827      1.511
REMARK  Name = 
REMARK  7 active torsions:
REMARK  status: ('A' for Active; 'I' for Inactive)
REMARK    1  A    between atoms: C_1  and  C_2
REMARK    2  A    between atoms: C_2  and  N_3
REMARK    3  A    between atoms: C_2  and  C_14
REMARK    4  A    between atoms: N_3  and  C_4
REMARK    5  A    between atoms: N_16  and  C_17
REMARK    6  A    between atoms: C_19  and  C_20
REMARK    7  A    between atoms: C_26  and  N_27
REMARK                            x       y       z     vdW  Elec       q    Type
REMARK                         _______ _______ _______ _____ _____    ______ ____
ROOT
ATOM      1  C   UNL     1       3.645   4.091  17.283  0.00  0.00    +0.000 C 
ATOM      2  O   UNL     1       4.230   3.017  17.425  0.00  0.00    +0.000 OA
ATOM      3  N   UNL     1       4.056   5.101  16.419  0.00  0.00    +0.000 N 
ATOM      4  H   UNL     1       3.380   5.804  16.151  0.00  0.00    +0.000 HD
ENDROOT
BRANCH   3   5
ATOM      5  C   UNL     1       5.171   4.921  15.569  0.00  0.00    +0.000 A 
ATOM      6  C   UNL     1       4.917   4.310  14.327  0.00  0.00    +0.000 A 
ATOM      7  C   UNL     1       5.954   3.985  13.447  0.00  0.00    +0.000 A 
ATOM      8  C   UNL     1       7.252   4.349  13.803  0.00  0.00    +0.000 A 
ATOM      9  C   UNL     1       7.506   4.961  15.034  0.00  0.00    +0.000 A 
ATOM     10  C   UNL     1       6.487   5.235  15.977  0.00  0.00    +0.000 A 
BRANCH  10  11
ATOM     11  N   UNL     1       6.838   5.852  17.169  0.00  0.00    +0.000 N 
ATOM     12  C   UNL     1       6.941   7.302  17.357  0.00  0.00    +0.000 C 
ATOM     13  C   UNL     1       8.186   7.659  18.190  0.00  0.00    +0.000 C 
ATOM     14  O   UNL     1       8.242   6.923  19.421  0.00  0.00    +0.000 OA
ATOM     15  C   UNL     1       8.261   5.511  19.151  0.00  0.00    +0.000 C 
ATOM     16  C   UNL     1       6.981   5.081  18.415  0.00  0.00    +0.000 C 
ENDBRANCH  10  11
BRANCH   7  17
ATOM     17  C   UNL     1       5.688   3.250  12.160  0.00  0.00    +0.000 C 
ATOM     18  F   UNL     1       6.625   3.473  11.195  0.00  0.00    +0.000 F 
ATOM     19  F   UNL     1       5.631   1.901  12.326  0.00  0.00    +0.000 F 
ATOM     20  F   UNL     1       4.497   3.606  11.601  0.00  0.00    +0.000 F 
ENDBRANCH   7  17
ENDBRANCH   3   5
BRANCH   1  22
ATOM     21  C   UNL     1       1.749   3.084  18.499  0.00  0.00    +0.000 C 
ATOM     22  C   UNL     1       2.383   4.416  18.116  0.00  0.00    +0.000 C 
BRANCH  22  23
ATOM     23  N   UNL     1       2.728   5.223  19.313  0.00  0.00    +0.000 N 
ATOM     24  H   UNL     1       3.726   5.198  19.493  0.00  0.00    +0.000 HD
BRANCH  23  25
ATOM     25  C   UNL     1       2.331   6.573  19.370  0.00  0.00    +0.000 A 
ATOM     26  C   UNL     1       2.306   7.430  18.265  0.00  0.00    +0.000 A 
ATOM     27  C   UNL     1       1.830   8.744  18.371  0.00  0.00    +0.000 A 
ATOM     28  C   UNL     1       1.351   9.215  19.586  0.00  0.00    +0.000 A 
ATOM     29  C   UNL     1       1.310   8.360  20.686  0.00  0.00    +0.000 A 
ATOM     30  C   UNL     1       1.795   7.055  20.578  0.00  0.00    +0.000 A 
ATOM     31  O   UNL     1       0.807   8.735  21.907  0.00  0.00    +0.000 OA
ATOM     32  C   UNL     1       0.009   9.920  21.793  0.00  0.00    +0.000 C 
ATOM     33  C   UNL     1       0.731  10.970  20.964  0.00  0.00    +0.000 C 
ATOM     34  O   UNL     1       0.916  10.514  19.619  0.00  0.00    +0.000 OA
ENDBRANCH  23  25
ENDBRANCH  22  23
ENDBRANCH   1  22
TORSDOF 6
ENDMDL
MODEL 4
REMARK VINA RESULT:      -7.9      5.212      9.547
REMARK  Name = 
REMARK  7 active torsions:
REMARK  status: ('A' for Active; 'I' for Inactive)
REMARK    1  A    between atoms: C_1  and  C_2
REMARK    2  A    between atoms: C_2  and  N_3
REMARK    3  A    between atoms: C_2  and  C_14
REMARK    4  A    between atoms: N_3  and  C_4
REMARK    5  A    between atoms: N_16  and  C_17
REMARK    6  A    between atoms: C_19  and  C_20
REMARK    7  A    between atoms: C_26  and  N_27
REMARK                            x       y       z     vdW  Elec       q    Type
REMARK                         _______ _______ _______ _____ _____    ______ ____
ROOT
ATOM      1  C   UNL     1       0.112   9.088  20.810  0.00  0.00    +0.000 C 
ATOM      2  O   UNL     1      -0.911   8.644  21.330  0.00  0.00    +0.000 OA
ATOM      3  N   UNL     1       0.129  10.072  19.826  0.00  0.00    +0.000 N 
ATOM      4  H   UNL     1       0.992  10.575  19.670  0.00  0.00    +0.000 HD
ENDROOT
BRANCH   3   5
ATOM      5  C   UNL     1      -1.067  10.694  19.399  0.00  0.00    +0.000 A 
ATOM      6  C   UNL     1      -1.582  10.269  18.160  0.00  0.00    +0.000 A 
ATOM      7  C   UNL     1      -2.700  10.884  17.586  0.00  0.00    +0.000 A 
ATOM      8  C   UNL     1      -3.339  11.889  18.311  0.00  0.00    +0.000 A 
ATOM      9  C   UNL     1      -2.831  12.307  19.544  0.00  0.00    +0.000 A 
ATOM     10  C   UNL     1      -1.660  11.757  20.116  0.00  0.00    +0.000 A 
BRANCH  10  11
ATOM     11  N   UNL     1      -1.238  12.234  21.349  0.00  0.00    +0.000 N 
ATOM     12  C   UNL     1      -1.847  11.878  22.633  0.00  0.00    +0.000 C 
ATOM     13  C   UNL     1      -1.983  13.116  23.537  0.00  0.00    +0.000 C 
ATOM     14  O   UNL     1      -0.741  13.821  23.677  0.00  0.00    +0.000 OA
ATOM     15  C   UNL     1      -0.267  14.246  22.388  0.00  0.00    +0.000 C 
ATOM     16  C   UNL     1      -0.008  13.034  21.478  0.00  0.00    +0.000 C 
ENDBRANCH  10  11
BRANCH   7  17
ATOM     17  C   UNL     1      -3.196  10.489  16.220  0.00  0.00    +0.000 C 
ATOM     18  F   UNL     1      -2.569  11.137  15.199  0.00  0.00    +0.000 F 
ATOM     19  F   UNL     1      -3.049   9.159  15.971  0.00  0.00    +0.000 F 
ATOM     20  F   UNL     1      -4.524  10.751  16.059  0.00  0.00    +0.000 F 
ENDBRANCH   7  17
ENDBRANCH   3   5
BRANCH   1  22
ATOM     21  C   UNL     1       1.898   9.222  22.506  0.00  0.00    +0.000 C 
ATOM     22  C   UNL     1       1.501   8.535  21.206  0.00  0.00    +0.000 C 
BRANCH  22  23
ATOM     23  N   UNL     1       1.463   7.059  21.355  0.00  0.00    +0.000 N 
ATOM     24  H   UNL     1       0.517   6.734  21.526  0.00  0.00    +0.000 HD
BRANCH  23  25
ATOM     25  C   UNL     1       2.000   6.249  20.336  0.00  0.00    +0.000 A 
ATOM     26  C   UNL     1       2.513   6.743  19.132  0.00  0.00    +0.000 A 
ATOM     27  C   UNL     1       3.103   5.894  18.186  0.00  0.00    +0.000 A 
ATOM     28  C   UNL     1       3.207   4.533  18.443  0.00  0.00    +0.000 A 
ATOM     29  C   UNL     1       2.758   4.027  19.661  0.00  0.00    +0.000 A 
ATOM     30  C   UNL     1       2.162   4.876  20.596  0.00  0.00    +0.000 A 
ATOM     31  O   UNL     1       2.869   2.704  20.009  0.00  0.00    +0.000 OA
ATOM     32  C   UNL     1       3.815   2.029  19.170  0.00  0.00    +0.000 C 
ATOM     33  C   UNL     1       3.566   2.366  17.709  0.00  0.00    +0.000 C 
ATOM     34  O   UNL     1       3.781   3.760  17.467  0.00  0.00    +0.000 OA
ENDBRANCH  23  25
ENDBRANCH  22  23
ENDBRANCH   1  22
TORSDOF 6
ENDMDL
MODEL 5
REMARK VINA RESULT:      -7.8      3.782      5.500
REMARK  Name = 
REMARK  7 active torsions:
REMARK  status: ('A' for Active; 'I' for Inactive)
REMARK    1  A    between atoms: C_1  and  C_2
REMARK    2  A    between atoms: C_2  and  N_3
REMARK    3  A    between atoms: C_2  and  C_14
REMARK    4  A    between atoms: N_3  and  C_4
REMARK    5  A    between atoms: N_16  and  C_17
REMARK    6  A    between atoms: C_19  and  C_20
REMARK    7  A    between atoms: C_26  and  N_27
REMARK                            x       y       z     vdW  Elec       q    Type
REMARK                         _______ _______ _______ _____ _____    ______ ____
ROOT
ATOM      1  C   UNL     1       2.221   7.406  19.138  0.00  0.00    +0.000 C 
ATOM      2  O   UNL     1       2.158   6.859  20.239  0.00  0.00    +0.000 OA
ATOM      3  N   UNL     1       2.578   6.760  17.959  0.00  0.00    +0.000 N 
ATOM      4  H   UNL     1       2.325   7.194  17.082  0.00  0.00    +0.000 HD
ENDROOT
BRANCH   3   5
ATOM      5  C   UNL     1       2.831   5.369  17.941  0.00  0.00    +0.000 A 
ATOM      6  C   UNL     1       1.819   4.543  18.464  0.00  0.00    +0.000 A 
ATOM      7  C   UNL     1       1.998   3.162  18.595  0.00  0.00    +0.000 A 
ATOM      8  C   UNL     1       3.188   2.610  18.125  0.00  0.00    +0.000 A 
ATOM      9  C   UNL     1       4.193   3.428  17.601  0.00  0.00    +0.000 A 
ATOM     10  C   UNL     1       4.072   4.835  17.523  0.00  0.00    +0.000 A 
BRANCH  10  11
ATOM     11  N   UNL     1       5.121   5.561  16.980  0.00  0.00    +0.000 N 
ATOM     12  C   UNL     1       5.503   5.541  15.565  0.00  0.00    +0.000 C 
ATOM     13  C   UNL     1       7.033   5.484  15.411  0.00  0.00    +0.000 C 
ATOM     14  O   UNL     1       7.691   6.517  16.160  0.00  0.00    +0.000 OA
ATOM     15  C   UNL     1       7.366   6.397  17.555  0.00  0.00    +0.000 C 
ATOM     16  C   UNL     1       5.853   6.560  17.777  0.00  0.00    +0.000 C 
ENDBRANCH  10  11
BRANCH   7  17
ATOM     17  C   UNL     1       0.949   2.294  19.238  0.00  0.00    +0.000 C 
ATOM     18  F   UNL     1       0.028   1.803  18.362  0.00  0.00    +0.000 F 
ATOM     19  F   UNL     1       1.477   1.214  19.874  0.00  0.00    +0.000 F 
ATOM     20  F   UNL     1       0.232   2.967  20.183  0.00  0.00    +0.000 F 
ENDBRANCH   7  17
ENDBRANCH   3   5
BRANCH   1  22
ATOM     21  C   UNL     1       2.460   9.343  17.629  0.00  0.00    +0.000 C 
ATOM     22  C   UNL     1       1.929   8.918  18.992  0.00  0.00    +0.000 C 
BRANCH  22  23
ATOM     23  N   UNL     1       0.477   9.195  19.126  0.00  0.00    +0.000 N 
ATOM     24  H   UNL     1      -0.064   8.338  19.066  0.00  0.00    +0.000 HD
BRANCH  23  25
ATOM     25  C   UNL     1       0.011   9.901  20.252  0.00  0.00    +0.000 A 
ATOM     26  C   UNL     1       0.009   9.386  21.553  0.00  0.00    +0.000 A 
ATOM     27  C   UNL     1      -0.397  10.164  22.645  0.00  0.00    +0.000 A 
ATOM     28  C   UNL     1      -0.790  11.482  22.453  0.00  0.00    +0.000 A 
ATOM     29  C   UNL     1      -0.739  12.035  21.174  0.00  0.00    +0.000 A 
ATOM     30  C   UNL     1      -0.342  11.252  20.087  0.00  0.00    +0.000 A 
ATOM     31  O   UNL     1      -1.065  13.342  20.909  0.00  0.00    +0.000 OA
ATOM     32  C   UNL     1      -1.076  14.122  22.112  0.00  0.00    +0.000 C 
ATOM     33  C   UNL     1      -1.844  13.401  23.208  0.00  0.00    +0.000 C 
ATOM     34  O   UNL     1      -1.191  12.178  23.563  0.00  0.00    +0.000 OA
ENDBRANCH  23  25
ENDBRANCH  22  23
ENDBRANCH   1  22
TORSDOF 6
ENDMDL
MODEL 6
REMARK VINA RESULT:      -7.8      4.023      5.819
REMARK  Name = 
REMARK  7 active torsions:
REMARK  status: ('A' for Active; 'I' for Inactive)
REMARK    1  A    between atoms: C_1  and  C_2
REMARK    2  A    between atoms: C_2  and  N_3
REMARK    3  A    between atoms: C_2  and  C_14
REMARK    4  A    between atoms: N_3  and  C_4
REMARK    5  A    between atoms: N_16  and  C_17
REMARK    6  A    between atoms: C_19  and  C_20
REMARK    7  A    between atoms: C_26  and  N_27
REMARK                            x       y       z     vdW  Elec       q    Type
REMARK                         _______ _______ _______ _____ _____    ______ ____
ROOT
ATOM      1  C   UNL     1       2.158   7.778  18.789  0.00  0.00    +0.000 C 
ATOM      2  O   UNL     1       2.047   7.397  19.955  0.00  0.00    +0.000 OA
ATOM      3  N   UNL     1       2.575   6.970  17.736  0.00  0.00    +0.000 N 
ATOM      4  H   UNL     1       2.362   7.268  16.793  0.00  0.00    +0.000 HD
ENDROOT
BRANCH   3   5
ATOM      5  C   UNL     1       2.840   5.596  17.934  0.00  0.00    +0.000 A 
ATOM      6  C   UNL     1       1.825   4.849  18.562  0.00  0.00    +0.000 A 
ATOM      7  C   UNL     1       2.012   3.506  18.905  0.00  0.00    +0.000 A 
ATOM      8  C   UNL     1       3.215   2.901  18.543  0.00  0.00    +0.000 A 
ATOM      9  C   UNL     1       4.222   3.640  17.916  0.00  0.00    +0.000 A 
ATOM     10  C   UNL     1       4.091   5.017  17.623  0.00  0.00    +0.000 A 
BRANCH  10  11
ATOM     11  N   UNL     1       5.145   5.663  16.992  0.00  0.00    +0.000 N 
ATOM     12  C   UNL     1       5.509   5.480  15.584  0.00  0.00    +0.000 C 
ATOM     13  C   UNL     1       7.037   5.383  15.422  0.00  0.00    +0.000 C 
ATOM     14  O   UNL     1       7.717   6.483  16.045  0.00  0.00    +0.000 OA
ATOM     15  C   UNL     1       7.408   6.523  17.448  0.00  0.00    +0.000 C 
ATOM     16  C   UNL     1       5.899   6.732  17.665  0.00  0.00    +0.000 C 
ENDBRANCH  10  11
BRANCH   7  17
ATOM     17  C   UNL     1       0.959   2.736  19.656  0.00  0.00    +0.000 C 
ATOM     18  F   UNL     1       1.461   1.912  20.618  0.00  0.00    +0.000 F 
ATOM     19  F   UNL     1       0.060   3.544  20.281  0.00  0.00    +0.000 F 
ATOM     20  F   UNL     1       0.225   1.932  18.834  0.00  0.00    +0.000 F 
ENDBRANCH   7  17
ENDBRANCH   3   5
BRANCH   1  22
ATOM     21  C   UNL     1       3.089   9.771  17.673  0.00  0.00    +0.000 C 
ATOM     22  C   UNL     1       1.862   9.247  18.409  0.00  0.00    +0.000 C 
BRANCH  22  23
ATOM     23  N   UNL     1       0.639   9.346  17.575  0.00  0.00    +0.000 N 
ATOM     24  H   UNL     1       0.312   8.425  17.299  0.00  0.00    +0.000 HD
BRANCH  23  25
ATOM     25  C   UNL     1      -0.476  10.050  18.067  0.00  0.00    +0.000 A 
ATOM     26  C   UNL     1      -0.438  10.899  19.179  0.00  0.00    +0.000 A 
ATOM     27  C   UNL     1      -1.564  11.632  19.577  0.00  0.00    +0.000 A 
ATOM     28  C   UNL     1      -2.745  11.542  18.852  0.00  0.00    +0.000 A 
ATOM     29  C   UNL     1      -2.789  10.749  17.706  0.00  0.00    +0.000 A 
ATOM     30  C   UNL     1      -1.667  10.013  17.319  0.00  0.00    +0.000 A 
ATOM     31  O   UNL     1      -3.902  10.645  16.909  0.00  0.00    +0.000 OA
ATOM     32  C   UNL     1      -4.825  11.709  17.175  0.00  0.00    +0.000 C 
ATOM     33  C   UNL     1      -5.030  11.877  18.671  0.00  0.00    +0.000 C 
ATOM     34  O   UNL     1      -3.810  12.274  19.308  0.00  0.00    +0.000 OA
ENDBRANCH  23  25
ENDBRANCH  22  23
ENDBRANCH   1  22
TORSDOF 6
ENDMDL
MODEL 7
REMARK VINA RESULT:      -7.7      3.715      5.596
REMARK  Name = 
REMARK  7 active torsions:
REMARK  status: ('A' for Active; 'I' for Inactive)
REMARK    1  A    between atoms: C_1  and  C_2
REMARK    2  A    between atoms: C_2  and  N_3
REMARK    3  A    between atoms: C_2  and  C_14
REMARK    4  A    between atoms: N_3  and  C_4
REMARK    5  A    between atoms: N_16  and  C_17
REMARK    6  A    between atoms: C_19  and  C_20
REMARK    7  A    between atoms: C_26  and  N_27
REMARK                            x       y       z     vdW  Elec       q    Type
REMARK                         _______ _______ _______ _____ _____    ______ ____
ROOT
ATOM      1  C   UNL     1       2.261   7.382  19.208  0.00  0.00    +0.000 C 
ATOM      2  O   UNL     1       2.175   6.811  20.295  0.00  0.00    +0.000 OA
ATOM      3  N   UNL     1       2.627   6.758  18.020  0.00  0.00    +0.000 N 
ATOM      4  H   UNL     1       2.393   7.215  17.149  0.00  0.00    +0.000 HD
ENDROOT
BRANCH   3   5
ATOM      5  C   UNL     1       2.864   5.364  17.974  0.00  0.00    +0.000 A 
ATOM      6  C   UNL     1       1.850   4.542  18.499  0.00  0.00    +0.000 A 
ATOM      7  C   UNL     1       2.014   3.156  18.603  0.00  0.00    +0.000 A 
ATOM      8  C   UNL     1       3.191   2.599  18.106  0.00  0.00    +0.000 A 
ATOM      9  C   UNL     1       4.197   3.414  17.580  0.00  0.00    +0.000 A 
ATOM     10  C   UNL     1       4.092   4.824  17.529  0.00  0.00    +0.000 A 
BRANCH  10  11
ATOM     11  N   UNL     1       5.142   5.547  16.982  0.00  0.00    +0.000 N 
ATOM     12  C   UNL     1       5.485   5.568  15.557  0.00  0.00    +0.000 C 
ATOM     13  C   UNL     1       7.009   5.486  15.360  0.00  0.00    +0.000 C 
ATOM     14  O   UNL     1       7.708   6.479  16.125  0.00  0.00    +0.000 OA
ATOM     15  C   UNL     1       7.418   6.317  17.524  0.00  0.00    +0.000 C 
ATOM     16  C   UNL     1       5.915   6.502  17.792  0.00  0.00    +0.000 C 
ENDBRANCH  10  11
BRANCH   7  17
ATOM     17  C   UNL     1       0.965   2.289  19.247  0.00  0.00    +0.000 C 
ATOM     18  F   UNL     1       1.459   1.147  19.801  0.00  0.00    +0.000 F 
ATOM     19  F   UNL     1       0.289   2.929  20.239  0.00  0.00    +0.000 F 
ATOM     20  F   UNL     1       0.017   1.883  18.356  0.00  0.00    +0.000 F 
ENDBRANCH   7  17
ENDBRANCH   3   5
BRANCH   1  22
ATOM     21  C   UNL     1       1.812   9.208  17.610  0.00  0.00    +0.000 C 
ATOM     22  C   UNL     1       1.989   8.900  19.092  0.00  0.00    +0.000 C 
BRANCH  22  23
ATOM     23  N   UNL     1       0.793   9.289  19.879  0.00  0.00    +0.000 N 
ATOM     24  H   UNL     1       0.884   8.998  20.848  0.00  0.00    +0.000 HD
BRANCH  23  25
ATOM     25  C   UNL     1       0.383  10.636  19.889  0.00  0.00    +0.000 A 
ATOM     26  C   UNL     1      -0.770  11.109  19.254  0.00  0.00    +0.000 A 
ATOM     27  C   UNL     1      -1.167  12.448  19.362  0.00  0.00    +0.000 A 
ATOM     28  C   UNL     1      -0.421  13.334  20.128  0.00  0.00    +0.000 A 
ATOM     29  C   UNL     1       0.698  12.873  20.819  0.00  0.00    +0.000 A 
ATOM     30  C   UNL     1       1.094  11.539  20.700  0.00  0.00    +0.000 A 
ATOM     31  O   UNL     1       1.458  13.674  21.634  0.00  0.00    +0.000 OA
ATOM     32  C   UNL     1       0.754  14.875  21.975  0.00  0.00    +0.000 C 
ATOM     33  C   UNL     1       0.133  15.500  20.736  0.00  0.00    +0.000 C 
ATOM     34  O   UNL     1      -0.859  14.633  20.175  0.00  0.00    +0.000 OA
ENDBRANCH  23  25
ENDBRANCH  22  23
ENDBRANCH   1  22
TORSDOF 6
ENDMDL
MODEL 8
REMARK VINA RESULT:      -7.7      1.013      1.870
REMARK  Name = 
REMARK  7 active torsions:
REMARK  status: ('A' for Active; 'I' for Inactive)
REMARK    1  A    between atoms: C_1  and  C_2
REMARK    2  A    between atoms: C_2  and  N_3
REMARK    3  A    between atoms: C_2  and  C_14
REMARK    4  A    between atoms: N_3  and  C_4
REMARK    5  A    between atoms: N_16  and  C_17
REMARK    6  A    between atoms: C_19  and  C_20
REMARK    7  A    between atoms: C_26  and  N_27
REMARK                            x       y       z     vdW  Elec       q    Type
REMARK                         _______ _______ _______ _____ _____    ______ ____
ROOT
ATOM      1  C   UNL     1       3.913   4.018  17.267  0.00  0.00    +0.000 C 
ATOM      2  O   UNL     1       4.330   2.861  17.236  0.00  0.00    +0.000 OA
ATOM      3  N   UNL     1       4.318   5.023  16.393  0.00  0.00    +0.000 N 
ATOM      4  H   UNL     1       3.729   5.839  16.298  0.00  0.00    +0.000 HD
ENDROOT
BRANCH   3   5
ATOM      5  C   UNL     1       5.214   4.747  15.334  0.00  0.00    +0.000 A 
ATOM      6  C   UNL     1       4.648   4.218  14.160  0.00  0.00    +0.000 A 
ATOM      7  C   UNL     1       5.445   3.809  13.085  0.00  0.00    +0.000 A 
ATOM      8  C   UNL     1       6.821   4.005  13.180  0.00  0.00    +0.000 A 
ATOM      9  C   UNL     1       7.385   4.535  14.345  0.00  0.00    +0.000 A 
ATOM     10  C   UNL     1       6.613   4.889  15.476  0.00  0.00    +0.000 A 
BRANCH  10  11
ATOM     11  N   UNL     1       7.263   5.414  16.583  0.00  0.00    +0.000 N 
ATOM     12  C   UNL     1       7.721   4.627  17.731  0.00  0.00    +0.000 C 
ATOM     13  C   UNL     1       7.418   5.357  19.052  0.00  0.00    +0.000 C 
ATOM     14  O   UNL     1       7.918   6.702  19.053  0.00  0.00    +0.000 OA
ATOM     15  C   UNL     1       7.331   7.447  17.973  0.00  0.00    +0.000 C 
ATOM     16  C   UNL     1       7.699   6.820  16.618  0.00  0.00    +0.000 C 
ENDBRANCH  10  11
BRANCH   7  17
ATOM     17  C   UNL     1       4.843   3.160  11.866  0.00  0.00    +0.000 C 
ATOM     18  F   UNL     1       5.386   1.948  11.563  0.00  0.00    +0.000 F 
ATOM     19  F   UNL     1       3.504   2.955  11.986  0.00  0.00    +0.000 F 
ATOM     20  F   UNL     1       5.003   3.923  10.747  0.00  0.00    +0.000 F 
ENDBRANCH   7  17
ENDBRANCH   3   5
BRANCH   1  22
ATOM     21  C   UNL     1       2.593   3.236  19.198  0.00  0.00    +0.000 C 
ATOM     22  C   UNL     1       2.895   4.461  18.344  0.00  0.00    +0.000 C 
BRANCH  22  23
ATOM     23  N   UNL     1       3.434   5.578  19.159  0.00  0.00    +0.000 N 
ATOM     24  H   UNL     1       4.405   5.761  18.928  0.00  0.00    +0.000 HD
BRANCH  23  25
ATOM     25  C   UNL     1       2.767   6.818  19.153  0.00  0.00    +0.000 A 
ATOM     26  C   UNL     1       2.588   7.607  18.012  0.00  0.00    +0.000 A 
ATOM     27  C   UNL     1       1.850   8.797  18.055  0.00  0.00    +0.000 A 
ATOM     28  C   UNL     1       1.259   9.206  19.243  0.00  0.00    +0.000 A 
ATOM     29  C   UNL     1       1.372   8.406  20.379  0.00  0.00    +0.000 A 
ATOM     30  C   UNL     1       2.117   7.226  20.333  0.00  0.00    +0.000 A 
ATOM     31  O   UNL     1       0.777   8.717  21.576  0.00  0.00    +0.000 OA
ATOM     32  C   UNL     1      -0.245   9.707  21.401  0.00  0.00    +0.000 C 
ATOM     33  C   UNL     1       0.262  10.849  20.536  0.00  0.00    +0.000 C 
ATOM     34  O   UNL     1       0.566  10.389  19.215  0.00  0.00    +0.000 OA
ENDBRANCH  23  25
ENDBRANCH  22  23
ENDBRANCH   1  22
TORSDOF 6
ENDMDL
MODEL 9
REMARK VINA RESULT:      -7.7      4.768      8.683
REMARK  Name = 
REMARK  7 active torsions:
REMARK  status: ('A' for Active; 'I' for Inactive)
REMARK    1  A    between atoms: C_1  and  C_2
REMARK    2  A    between atoms: C_2  and  N_3
REMARK    3  A    between atoms: C_2  and  C_14
REMARK    4  A    between atoms: N_3  and  C_4
REMARK    5  A    between atoms: N_16  and  C_17
REMARK    6  A    between atoms: C_19  and  C_20
REMARK    7  A    between atoms: C_26  and  N_27
REMARK                            x       y       z     vdW  Elec       q    Type
REMARK                         _______ _______ _______ _____ _____    ______ ____
ROOT
ATOM      1  C   UNL     1       1.478   8.767  18.958  0.00  0.00    +0.000 C 
ATOM      2  O   UNL     1       1.679   8.872  17.748  0.00  0.00    +0.000 OA
ATOM      3  N   UNL     1       0.586   9.558  19.677  0.00  0.00    +0.000 N 
ATOM      4  H   UNL     1       0.271   9.223  20.577  0.00  0.00    +0.000 HD
ENDROOT
BRANCH   3   5
ATOM      5  C   UNL     1      -0.222  10.518  19.025  0.00  0.00    +0.000 A 
ATOM      6  C   UNL     1      -1.443  10.053  18.502  0.00  0.00    +0.000 A 
ATOM      7  C   UNL     1      -2.278  10.884  17.747  0.00  0.00    +0.000 A 
ATOM      8  C   UNL     1      -1.900  12.216  17.584  0.00  0.00    +0.000 A 
ATOM      9  C   UNL     1      -0.690  12.680  18.107  0.00  0.00    +0.000 A 
ATOM     10  C   UNL     1       0.210  11.846  18.811  0.00  0.00    +0.000 A 
BRANCH  10  11
ATOM     11  N   UNL     1       1.384  12.402  19.299  0.00  0.00    +0.000 N 
ATOM     12  C   UNL     1       1.653  12.671  20.714  0.00  0.00    +0.000 C 
ATOM     13  C   UNL     1       2.336  14.039  20.890  0.00  0.00    +0.000 C 
ATOM     14  O   UNL     1       3.498  14.174  20.059  0.00  0.00    +0.000 OA
ATOM     15  C   UNL     1       3.135  14.019  18.676  0.00  0.00    +0.000 C 
ATOM     16  C   UNL     1       2.547  12.621  18.423  0.00  0.00    +0.000 C 
ENDBRANCH  10  11
BRANCH   7  17
ATOM     17  C   UNL     1      -3.539  10.360  17.113  0.00  0.00    +0.000 C 
ATOM     18  F   UNL     1      -3.327   9.367  16.205  0.00  0.00    +0.000 F 
ATOM     19  F   UNL     1      -4.417   9.858  18.024  0.00  0.00    +0.000 F 
ATOM     20  F   UNL     1      -4.219  11.332  16.441  0.00  0.00    +0.000 F 
ENDBRANCH   7  17
ENDBRANCH   3   5
BRANCH   1  22
ATOM     21  C   UNL     1       1.548   7.626  21.144  0.00  0.00    +0.000 C 
ATOM     22  C   UNL     1       2.258   7.732  19.799  0.00  0.00    +0.000 C 
BRANCH  22  23
ATOM     23  N   UNL     1       2.319   6.420  19.107  0.00  0.00    +0.000 N 
ATOM     24  H   UNL     1       1.676   6.393  18.322  0.00  0.00    +0.000 HD
BRANCH  23  25
ATOM     25  C   UNL     1       3.559   5.943  18.643  0.00  0.00    +0.000 A 
ATOM     26  C   UNL     1       4.464   5.218  19.427  0.00  0.00    +0.000 A 
ATOM     27  C   UNL     1       5.650   4.705  18.887  0.00  0.00    +0.000 A 
ATOM     28  C   UNL     1       5.941   4.893  17.543  0.00  0.00    +0.000 A 
ATOM     29  C   UNL     1       5.027   5.559  16.728  0.00  0.00    +0.000 A 
ATOM     30  C   UNL     1       3.850   6.078  17.273  0.00  0.00    +0.000 A 
ATOM     31  O   UNL     1       5.219   5.744  15.381  0.00  0.00    +0.000 OA
ATOM     32  C   UNL     1       6.232   4.861  14.881  0.00  0.00    +0.000 C 
ATOM     33  C   UNL     1       7.452   4.882  15.787  0.00  0.00    +0.000 C 
ATOM     34  O   UNL     1       7.127   4.378  17.087  0.00  0.00    +0.000 OA
ENDBRANCH  23  25
ENDBRANCH  22  23
ENDBRANCH   1  22
TORSDOF 6
ENDMDL
