MODEL 1
REMARK VINA RESULT:      -7.7      0.000      0.000
REMARK  Name = 
REMARK  4 active torsions:
REMARK  status: ('A' for Active; 'I' for Inactive)
REMARK    1  A    between atoms: C_1  and  C_2
REMARK    2  A    between atoms: C_2  and  C_3
REMARK    3  A    between atoms: C_5  and  C_6
REMARK    4  A    between atoms: C_11  and  C_13
REMARK                            x       y       z     vdW  Elec       q    Type
REMARK                         _______ _______ _______ _____ _____    ______ ____
ROOT
ATOM      1  C   UNL     1       6.862   4.748  16.684  0.00  0.00    +0.000 C 
ATOM      2  C   UNL     1       7.133   4.787  15.174  0.00  0.00    +0.000 C 
ATOM      3  C   UNL     1       6.088   3.847  14.609  0.00  0.00    +0.000 C 
ATOM      4  C   UNL     1       4.886   4.067  15.512  0.00  0.00    +0.000 C 
ATOM      5  N   UNL     1       5.396   4.609  16.765  0.00  0.00    +0.000 N 
ATOM      6  C   UNL     1       4.749   4.515  17.997  0.00  0.00    +0.000 C 
ATOM      7  O   UNL     1       5.357   4.796  19.031  0.00  0.00    +0.000 OA
ENDROOT
BRANCH   1  10
ATOM      8  C   UNL     1       7.886   7.934  17.803  0.00  0.00    +0.000 A 
ATOM      9  N   UNL     1       7.374   7.190  16.851  0.00  0.00    +0.000 NA
ATOM     10  C   UNL     1       7.499   5.916  17.370  0.00  0.00    +0.000 A 
ATOM     11  N   UNL     1       8.015   5.872  18.610  0.00  0.00    +0.000 NA
ATOM     12  O   UNL     1       8.286   7.217  18.893  0.00  0.00    +0.000 OA
BRANCH   8  14
ATOM     13  C   UNL     1       9.058   9.827  18.921  0.00  0.00    +0.000 C 
ATOM     14  C   UNL     1       8.059   9.406  17.854  0.00  0.00    +0.000 C 
ENDBRANCH   8  14
ENDBRANCH   1  10
BRANCH   6  15
ATOM     15  C   UNL     1       3.381   4.023  18.036  0.00  0.00    +0.000 A 
ATOM     16  C   UNL     1       2.136   4.595  17.821  0.00  0.00    +0.000 A 
ATOM     17  N   UNL     1       1.061   3.719  17.828  0.00  0.00    +0.000 NA
ATOM     18  N   UNL     1       1.444   2.487  18.113  0.00  0.00    +0.000 NA
ATOM     19  S   UNL     1       3.089   2.366  18.390  0.00  0.00    +0.000 S 
ENDBRANCH   6  15
TORSDOF 3
ENDMDL
MODEL 2
REMARK VINA RESULT:      -7.5      2.880      4.435
REMARK  Name = 
REMARK  4 active torsions:
REMARK  status: ('A' for Active; 'I' for Inactive)
REMARK    1  A    between atoms: C_1  and  C_2
REMARK    2  A    between atoms: C_2  and  C_3
REMARK    3  A    between atoms: C_5  and  C_6
REMARK    4  A    between atoms: C_11  and  C_13
REMARK                            x       y       z     vdW  Elec       q    Type
REMARK                         _______ _______ _______ _____ _____    ______ ____
ROOT
ATOM      1  C   UNL     1       4.129   5.445  16.945  0.00  0.00    +0.000 C 
ATOM      2  C   UNL     1       4.288   6.948  17.207  0.00  0.00    +0.000 C 
ATOM      3  C   UNL     1       3.308   7.210  18.333  0.00  0.00    +0.000 C 
ATOM      4  C   UNL     1       3.374   5.941  19.165  0.00  0.00    +0.000 C 
ATOM      5  N   UNL     1       3.871   4.889  18.287  0.00  0.00    +0.000 N 
ATOM      6  C   UNL     1       3.646   3.525  18.470  0.00  0.00    +0.000 C 
ATOM      7  O   UNL     1       3.906   2.734  17.562  0.00  0.00    +0.000 OA
ENDROOT
BRANCH   1  10
ATOM      8  C   UNL     1       6.419   4.384  14.480  0.00  0.00    +0.000 A 
ATOM      9  N   UNL     1       5.178   4.640  14.824  0.00  0.00    +0.000 NA
ATOM     10  C   UNL     1       5.295   4.912  16.173  0.00  0.00    +0.000 A 
ATOM     11  N   UNL     1       6.556   4.880  16.637  0.00  0.00    +0.000 NA
ATOM     12  O   UNL     1       7.303   4.514  15.510  0.00  0.00    +0.000 OA
BRANCH   8  14
ATOM     13  C   UNL     1       5.937   3.291  12.293  0.00  0.00    +0.000 C 
ATOM     14  C   UNL     1       6.967   4.005  13.154  0.00  0.00    +0.000 C 
ENDBRANCH   8  14
ENDBRANCH   1  10
BRANCH   6  15
ATOM     15  C   UNL     1       3.048   3.072  19.717  0.00  0.00    +0.000 A 
ATOM     16  C   UNL     1       3.548   2.677  20.948  0.00  0.00    +0.000 A 
ATOM     17  N   UNL     1       2.603   2.444  21.935  0.00  0.00    +0.000 NA
ATOM     18  N   UNL     1       1.374   2.586  21.471  0.00  0.00    +0.000 NA
ATOM     19  S   UNL     1       1.336   2.984  19.847  0.00  0.00    +0.000 S 
ENDBRANCH   6  15
TORSDOF 3
ENDMDL
MODEL 3
REMARK VINA RESULT:      -7.2      0.906      1.170
REMARK  Name = 
REMARK  4 active torsions:
REMARK  status: ('A' for Active; 'I' for Inactive)
REMARK    1  A    between atoms: C_1  and  C_2
REMARK    2  A    between atoms: C_2  and  C_3
REMARK    3  A    between atoms: C_5  and  C_6
REMARK    4  A    between atoms: C_11  and  C_13
REMARK                            x       y       z     vdW  Elec       q    Type
REMARK                         _______ _______ _______ _____ _____    ______ ____
ROOT
ATOM      1  C   UNL     1       6.674   5.201  17.015  0.00  0.00    +0.000 C 
ATOM      2  C   UNL     1       7.087   4.901  15.568  0.00  0.00    +0.000 C 
ATOM      3  C   UNL     1       6.320   3.636  15.243  0.00  0.00    +0.000 C 
ATOM      4  C   UNL     1       5.011   3.810  15.995  0.00  0.00    +0.000 C 
ATOM      5  N   UNL     1       5.266   4.763  17.068  0.00  0.00    +0.000 N 
ATOM      6  C   UNL     1       4.527   4.853  18.247  0.00  0.00    +0.000 C 
ATOM      7  O   UNL     1       4.954   5.526  19.187  0.00  0.00    +0.000 OA
ENDROOT
BRANCH   1  10
ATOM      8  C   UNL     1       8.080   8.217  18.189  0.00  0.00    +0.000 A 
ATOM      9  N   UNL     1       7.987   6.911  18.281  0.00  0.00    +0.000 NA
ATOM     10  C   UNL     1       6.985   6.620  17.376  0.00  0.00    +0.000 A 
ATOM     11  N   UNL     1       6.513   7.688  16.711  0.00  0.00    +0.000 NA
ATOM     12  O   UNL     1       7.234   8.755  17.263  0.00  0.00    +0.000 OA
BRANCH   8  14
ATOM     13  C   UNL     1       8.999  10.530  18.285  0.00  0.00    +0.000 C 
ATOM     14  C   UNL     1       8.972   9.149  18.921  0.00  0.00    +0.000 C 
ENDBRANCH   8  14
ENDBRANCH   1  10
BRANCH   6  15
ATOM     15  C   UNL     1       3.291   4.096  18.361  0.00  0.00    +0.000 A 
ATOM     16  C   UNL     1       1.987   4.292  17.933  0.00  0.00    +0.000 A 
ATOM     17  N   UNL     1       1.118   3.232  18.141  0.00  0.00    +0.000 NA
ATOM     18  N   UNL     1       1.710   2.242  18.785  0.00  0.00    +0.000 NA
ATOM     19  S   UNL     1       3.305   2.574  19.162  0.00  0.00    +0.000 S 
ENDBRANCH   6  15
TORSDOF 3
ENDMDL
MODEL 4
REMARK VINA RESULT:      -7.1      1.389      1.700
REMARK  Name = 
REMARK  4 active torsions:
REMARK  status: ('A' for Active; 'I' for Inactive)
REMARK    1  A    between atoms: C_1  and  C_2
REMARK    2  A    between atoms: C_2  and  C_3
REMARK    3  A    between atoms: C_5  and  C_6
REMARK    4  A    between atoms: C_11  and  C_13
REMARK                            x       y       z     vdW  Elec       q    Type
REMARK                         _______ _______ _______ _____ _____    ______ ____
ROOT
ATOM      1  C   UNL     1       6.762   5.259  17.174  0.00  0.00    +0.000 C 
ATOM      2  C   UNL     1       6.906   4.979  15.672  0.00  0.00    +0.000 C 
ATOM      3  C   UNL     1       6.149   3.680  15.486  0.00  0.00    +0.000 C 
ATOM      4  C   UNL     1       5.000   3.792  16.475  0.00  0.00    +0.000 C 
ATOM      5  N   UNL     1       5.411   4.755  17.488  0.00  0.00    +0.000 N 
ATOM      6  C   UNL     1       4.907   4.810  18.787  0.00  0.00    +0.000 C 
ATOM      7  O   UNL     1       5.473   5.502  19.635  0.00  0.00    +0.000 OA
ENDROOT
BRANCH   1  10
ATOM      8  C   UNL     1       8.152   8.316  18.255  0.00  0.00    +0.000 A 
ATOM      9  N   UNL     1       8.051   7.016  18.400  0.00  0.00    +0.000 NA
ATOM     10  C   UNL     1       7.071   6.690  17.482  0.00  0.00    +0.000 A 
ATOM     11  N   UNL     1       6.621   7.731  16.761  0.00  0.00    +0.000 NA
ATOM     12  O   UNL     1       7.332   8.817  17.286  0.00  0.00    +0.000 OA
BRANCH   8  14
ATOM     13  C   UNL     1       9.089  10.624  18.271  0.00  0.00    +0.000 C 
ATOM     14  C   UNL     1       9.030   9.275  18.969  0.00  0.00    +0.000 C 
ENDBRANCH   8  14
ENDBRANCH   1  10
BRANCH   6  15
ATOM     15  C   UNL     1       3.751   3.996  19.127  0.00  0.00    +0.000 A 
ATOM     16  C   UNL     1       3.562   2.660  19.445  0.00  0.00    +0.000 A 
ATOM     17  N   UNL     1       2.282   2.310  19.846  0.00  0.00    +0.000 NA
ATOM     18  N   UNL     1       1.457   3.340  19.777  0.00  0.00    +0.000 NA
ATOM     19  S   UNL     1       2.199   4.731  19.220  0.00  0.00    +0.000 S 
ENDBRANCH   6  15
TORSDOF 3
ENDMDL
MODEL 5
REMARK VINA RESULT:      -6.7      3.096      4.734
REMARK  Name = 
REMARK  4 active torsions:
REMARK  status: ('A' for Active; 'I' for Inactive)
REMARK    1  A    between atoms: C_1  and  C_2
REMARK    2  A    between atoms: C_2  and  C_3
REMARK    3  A    between atoms: C_5  and  C_6
REMARK    4  A    between atoms: C_11  and  C_13
REMARK                            x       y       z     vdW  Elec       q    Type
REMARK                         _______ _______ _______ _____ _____    ______ ____
ROOT
ATOM      1  C   UNL     1       4.300   4.148  17.657  0.00  0.00    +0.000 C 
ATOM      2  C   UNL     1       3.393   2.941  17.384  0.00  0.00    +0.000 C 
ATOM      3  C   UNL     1       2.108   3.302  18.101  0.00  0.00    +0.000 C 
ATOM      4  C   UNL     1       2.011   4.808  17.922  0.00  0.00    +0.000 C 
ATOM      5  N   UNL     1       3.362   5.287  17.660  0.00  0.00    +0.000 N 
ATOM      6  C   UNL     1       3.808   6.586  17.902  0.00  0.00    +0.000 C 
ATOM      7  O   UNL     1       5.014   6.836  17.867  0.00  0.00    +0.000 OA
ENDROOT
BRANCH   1  10
ATOM      8  C   UNL     1       6.429   4.449  14.860  0.00  0.00    +0.000 A 
ATOM      9  N   UNL     1       5.222   4.251  15.335  0.00  0.00    +0.000 NA
ATOM     10  C   UNL     1       5.447   4.182  16.697  0.00  0.00    +0.000 A 
ATOM     11  N   UNL     1       6.726   4.381  17.056  0.00  0.00    +0.000 NA
ATOM     12  O   UNL     1       7.383   4.545  15.831  0.00  0.00    +0.000 OA
BRANCH   8  14
ATOM     13  C   UNL     1       6.261   3.539  12.547  0.00  0.00    +0.000 C 
ATOM     14  C   UNL     1       6.871   4.598  13.451  0.00  0.00    +0.000 C 
ENDBRANCH   8  14
ENDBRANCH   1  10
BRANCH   6  15
ATOM     15  C   UNL     1       2.836   7.609  18.252  0.00  0.00    +0.000 A 
ATOM     16  C   UNL     1       2.253   8.670  17.575  0.00  0.00    +0.000 A 
ATOM     17  N   UNL     1       1.246   9.338  18.254  0.00  0.00    +0.000 NA
ATOM     18  N   UNL     1       1.084   8.856  19.474  0.00  0.00    +0.000 NA
ATOM     19  S   UNL     1       2.144   7.612  19.826  0.00  0.00    +0.000 S 
ENDBRANCH   6  15
TORSDOF 3
ENDMDL
MODEL 6
REMARK VINA RESULT:      -6.6      2.844      4.312
REMARK  Name = 
REMARK  4 active torsions:
REMARK  status: ('A' for Active; 'I' for Inactive)
REMARK    1  A    between atoms: C_1  and  C_2
REMARK    2  A    between atoms: C_2  and  C_3
REMARK    3  A    between atoms: C_5  and  C_6
REMARK    4  A    between atoms: C_11  and  C_13
REMARK                            x       y       z     vdW  Elec       q    Type
REMARK                         _______ _______ _______ _____ _____    ______ ____
ROOT
ATOM      1  C   UNL     1       3.721   6.191  17.334  0.00  0.00    +0.000 C 
ATOM      2  C   UNL     1       3.488   7.693  17.543  0.00  0.00    +0.000 C 
ATOM      3  C   UNL     1       2.408   7.733  18.605  0.00  0.00    +0.000 C 
ATOM      4  C   UNL     1       2.733   6.541  19.489  0.00  0.00    +0.000 C 
ATOM      5  N   UNL     1       3.526   5.623  18.681  0.00  0.00    +0.000 N 
ATOM      6  C   UNL     1       3.633   4.251  18.907  0.00  0.00    +0.000 C 
ATOM      7  O   UNL     1       4.134   3.527  18.046  0.00  0.00    +0.000 OA
ENDROOT
BRANCH   1  10
ATOM      8  C   UNL     1       6.326   5.259  15.146  0.00  0.00    +0.000 A 
ATOM      9  N   UNL     1       5.105   5.063  15.585  0.00  0.00    +0.000 NA
ATOM     10  C   UNL     1       5.026   5.944  16.646  0.00  0.00    +0.000 A 
ATOM     11  N   UNL     1       6.127   6.692  16.826  0.00  0.00    +0.000 NA
ATOM     12  O   UNL     1       6.999   6.226  15.835  0.00  0.00    +0.000 OA
BRANCH   8  14
ATOM     13  C   UNL     1       6.109   3.730  13.190  0.00  0.00    +0.000 C 
ATOM     14  C   UNL     1       7.037   4.602  14.022  0.00  0.00    +0.000 C 
ENDBRANCH   8  14
ENDBRANCH   1  10
BRANCH   6  15
ATOM     15  C   UNL     1       3.090   3.697  20.137  0.00  0.00    +0.000 A 
ATOM     16  C   UNL     1       2.002   3.996  20.941  0.00  0.00    +0.000 A 
ATOM     17  N   UNL     1       1.758   3.111  21.981  0.00  0.00    +0.000 NA
ATOM     18  N   UNL     1       2.682   2.168  22.037  0.00  0.00    +0.000 NA
ATOM     19  S   UNL     1       3.857   2.338  20.860  0.00  0.00    +0.000 S 
ENDBRANCH   6  15
TORSDOF 3
ENDMDL
MODEL 7
REMARK VINA RESULT:      -6.6      2.697      4.455
REMARK  Name = 
REMARK  4 active torsions:
REMARK  status: ('A' for Active; 'I' for Inactive)
REMARK    1  A    between atoms: C_1  and  C_2
REMARK    2  A    between atoms: C_2  and  C_3
REMARK    3  A    between atoms: C_5  and  C_6
REMARK    4  A    between atoms: C_11  and  C_13
REMARK                            x       y       z     vdW  Elec       q    Type
REMARK                         _______ _______ _______ _____ _____    ______ ____
ROOT
ATOM      1  C   UNL     1       6.164   5.963  17.530  0.00  0.00    +0.000 C 
ATOM      2  C   UNL     1       7.622   5.974  18.010  0.00  0.00    +0.000 C 
ATOM      3  C   UNL     1       7.495   5.805  19.510  0.00  0.00    +0.000 C 
ATOM      4  C   UNL     1       6.298   4.884  19.665  0.00  0.00    +0.000 C 
ATOM      5  N   UNL     1       5.509   5.011  18.446  0.00  0.00    +0.000 N 
ATOM      6  C   UNL     1       4.145   4.738  18.347  0.00  0.00    +0.000 C 
ATOM      7  O   UNL     1       3.522   5.091  17.344  0.00  0.00    +0.000 OA
ENDROOT
BRANCH   1  10
ATOM      8  C   UNL     1       6.087   4.554  14.297  0.00  0.00    +0.000 A 
ATOM      9  N   UNL     1       6.466   4.467  15.550  0.00  0.00    +0.000 NA
ATOM     10  C   UNL     1       6.088   5.694  16.060  0.00  0.00    +0.000 A 
ATOM     11  N   UNL     1       5.455   6.487  15.180  0.00  0.00    +0.000 NA
ATOM     12  O   UNL     1       5.466   5.732  14.000  0.00  0.00    +0.000 OA
BRANCH   8  14
ATOM     13  C   UNL     1       5.017   3.565  12.276  0.00  0.00    +0.000 C 
ATOM     14  C   UNL     1       6.222   3.560  13.203  0.00  0.00    +0.000 C 
ENDBRANCH   8  14
ENDBRANCH   1  10
BRANCH   6  15
ATOM     15  C   UNL     1       3.474   4.093  19.464  0.00  0.00    +0.000 A 
ATOM     16  C   UNL     1       3.488   2.814  19.999  0.00  0.00    +0.000 A 
ATOM     17  N   UNL     1       2.784   2.648  21.182  0.00  0.00    +0.000 NA
ATOM     18  N   UNL     1       2.168   3.761  21.538  0.00  0.00    +0.000 NA
ATOM     19  S   UNL     1       2.411   5.012  20.455  0.00  0.00    +0.000 S 
ENDBRANCH   6  15
TORSDOF 3
ENDMDL
MODEL 8
REMARK VINA RESULT:      -6.4      2.629      4.283
REMARK  Name = 
REMARK  4 active torsions:
REMARK  status: ('A' for Active; 'I' for Inactive)
REMARK    1  A    between atoms: C_1  and  C_2
REMARK    2  A    between atoms: C_2  and  C_3
REMARK    3  A    between atoms: C_5  and  C_6
REMARK    4  A    between atoms: C_11  and  C_13
REMARK                            x       y       z     vdW  Elec       q    Type
REMARK                         _______ _______ _______ _____ _____    ______ ____
ROOT
ATOM      1  C   UNL     1       6.252   5.574  17.227  0.00  0.00    +0.000 C 
ATOM      2  C   UNL     1       7.683   5.699  17.768  0.00  0.00    +0.000 C 
ATOM      3  C   UNL     1       7.475   5.940  19.249  0.00  0.00    +0.000 C 
ATOM      4  C   UNL     1       6.249   5.105  19.577  0.00  0.00    +0.000 C 
ATOM      5  N   UNL     1       5.527   4.908  18.326  0.00  0.00    +0.000 N 
ATOM      6  C   UNL     1       4.164   4.633  18.226  0.00  0.00    +0.000 C 
ATOM      7  O   UNL     1       3.602   4.711  17.132  0.00  0.00    +0.000 OA
ENDROOT
BRANCH   1  10
ATOM      8  C   UNL     1       6.753   4.639  13.862  0.00  0.00    +0.000 A 
ATOM      9  N   UNL     1       6.765   5.577  14.780  0.00  0.00    +0.000 NA
ATOM     10  C   UNL     1       6.246   4.922  15.880  0.00  0.00    +0.000 A 
ATOM     11  N   UNL     1       5.974   3.623  15.673  0.00  0.00    +0.000 NA
ATOM     12  O   UNL     1       6.299   3.438  14.323  0.00  0.00    +0.000 OA
BRANCH   8  14
ATOM     13  C   UNL     1       6.891   3.415  11.697  0.00  0.00    +0.000 C 
ATOM     14  C   UNL     1       7.175   4.709  12.442  0.00  0.00    +0.000 C 
ENDBRANCH   8  14
ENDBRANCH   1  10
BRANCH   6  15
ATOM     15  C   UNL     1       3.421   4.317  19.436  0.00  0.00    +0.000 A 
ATOM     16  C   UNL     1       2.599   5.038  20.288  0.00  0.00    +0.000 A 
ATOM     17  N   UNL     1       1.964   4.304  21.278  0.00  0.00    +0.000 NA
ATOM     18  N   UNL     1       2.334   3.036  21.251  0.00  0.00    +0.000 NA
ATOM     19  S   UNL     1       3.454   2.712  20.052  0.00  0.00    +0.000 S 
ENDBRANCH   6  15
TORSDOF 3
ENDMDL
MODEL 9
REMARK VINA RESULT:      -6.4      2.627      4.373
REMARK  Name = 
REMARK  4 active torsions:
REMARK  status: ('A' for Active; 'I' for Inactive)
REMARK    1  A    between atoms: C_1  and  C_2
REMARK    2  A    between atoms: C_2  and  C_3
REMARK    3  A    between atoms: C_5  and  C_6
REMARK    4  A    between atoms: C_11  and  C_13
REMARK                            x       y       z     vdW  Elec       q    Type
REMARK                         _______ _______ _______ _____ _____    ______ ____
ROOT
ATOM      1  C   UNL     1       6.165   5.290  16.995  0.00  0.00    +0.000 C 
ATOM      2  C   UNL     1       7.363   5.448  17.942  0.00  0.00    +0.000 C 
ATOM      3  C   UNL     1       6.733   5.353  19.317  0.00  0.00    +0.000 C 
ATOM      4  C   UNL     1       5.612   4.346  19.127  0.00  0.00    +0.000 C 
ATOM      5  N   UNL     1       5.289   4.340  17.706  0.00  0.00    +0.000 N 
ATOM      6  C   UNL     1       4.063   3.951  17.168  0.00  0.00    +0.000 C 
ATOM      7  O   UNL     1       3.807   4.195  15.988  0.00  0.00    +0.000 OA
ENDROOT
BRANCH   1  10
ATOM      8  C   UNL     1       6.519   4.066  13.706  0.00  0.00    +0.000 A 
ATOM      9  N   UNL     1       5.968   3.954  14.892  0.00  0.00    +0.000 NA
ATOM     10  C   UNL     1       6.620   4.935  15.615  0.00  0.00    +0.000 A 
ATOM     11  N   UNL     1       7.497   5.658  14.899  0.00  0.00    +0.000 NA
ATOM     12  O   UNL     1       7.440   5.070  13.630  0.00  0.00    +0.000 OA
BRANCH   8  14
ATOM     13  C   UNL     1       4.834   3.446  11.978  0.00  0.00    +0.000 C 
ATOM     14  C   UNL     1       6.263   3.281  12.473  0.00  0.00    +0.000 C 
ENDBRANCH   8  14
ENDBRANCH   1  10
BRANCH   6  15
ATOM     15  C   UNL     1       3.084   3.316  18.037  0.00  0.00    +0.000 A 
ATOM     16  C   UNL     1       2.878   2.020  18.486  0.00  0.00    +0.000 A 
ATOM     17  N   UNL     1       1.881   1.863  19.436  0.00  0.00    +0.000 NA
ATOM     18  N   UNL     1       1.263   3.005  19.680  0.00  0.00    +0.000 NA
ATOM     19  S   UNL     1       1.857   4.273  18.767  0.00  0.00    +0.000 S 
ENDBRANCH   6  15
TORSDOF 3
ENDMDL
