MODEL 1
REMARK VINA RESULT:      -8.8      0.000      0.000
REMARK  Name = 
REMARK  4 active torsions:
REMARK  status: ('A' for Active; 'I' for Inactive)
REMARK    1  A    between atoms: C_1  and  C_2
REMARK    2  A    between atoms: C_6  and  N_7
REMARK    3  A    between atoms: C_12  and  N_13
REMARK    4  A    between atoms: C_16  and  N_17
REMARK                            x       y       z     vdW  Elec       q    Type
REMARK                         _______ _______ _______ _____ _____    ______ ____
ROOT
ATOM      1  N   UNL     1       1.731   7.002  20.765  0.00  0.00    +0.000 N 
ATOM      2  C   UNL     1       2.310   5.799  20.356  0.00  0.00    +0.000 A 
ATOM      3  N   UNL     1       1.822   4.673  20.887  0.00  0.00    +0.000 NA
ATOM      4  C   UNL     1       2.404   3.519  20.531  0.00  0.00    +0.000 A 
ATOM      5  N   UNL     1       1.782   2.387  21.046  0.00  0.00    +0.000 N 
ATOM      6  C   UNL     1       3.466   3.490  19.640  0.00  0.00    +0.000 A 
ATOM      7  C   UNL     1       3.914   4.674  19.085  0.00  0.00    +0.000 A 
ATOM      8  N   UNL     1       3.328   5.819  19.479  0.00  0.00    +0.000 NA
ATOM      9  H   UNL     1       0.909   6.793  21.320  0.00  0.00    +0.000 HD
ATOM     10  H   UNL     1       1.076   2.656  21.727  0.00  0.00    +0.000 HD
ATOM     11  H   UNL     1       2.384   1.636  21.365  0.00  0.00    +0.000 HD
ENDROOT
BRANCH   1  17
ATOM     12  C   UNL     1       0.213  11.696  20.294  0.00  0.00    +0.000 C 
ATOM     13  C   UNL     1       0.871  10.486  19.706  0.00  0.00    +0.000 A 
ATOM     14  C   UNL     1       1.363  10.477  18.400  0.00  0.00    +0.000 A 
ATOM     15  C   UNL     1       1.982   9.334  17.892  0.00  0.00    +0.000 A 
ATOM     16  C   UNL     1       2.109   8.191  18.685  0.00  0.00    +0.000 A 
ATOM     17  C   UNL     1       1.595   8.167  19.985  0.00  0.00    +0.000 A 
ATOM     18  C   UNL     1       0.997   9.330  20.487  0.00  0.00    +0.000 A 
ENDBRANCH   1  17
BRANCH   7  19
ATOM     19  N   UNL     1       4.960   4.805  18.199  0.00  0.00    +0.000 N 
ATOM     20  C   UNL     1       4.836   4.775  16.735  0.00  0.00    +0.000 C 
ATOM     21  C   UNL     1       6.052   4.017  16.171  0.00  0.00    +0.000 C 
ATOM     22  O   UNL     1       7.288   4.633  16.584  0.00  0.00    +0.000 OA
ATOM     23  C   UNL     1       7.378   4.685  18.021  0.00  0.00    +0.000 C 
ATOM     24  C   UNL     1       6.203   5.471  18.631  0.00  0.00    +0.000 C 
ENDBRANCH   7  19
BRANCH   6  25
ATOM     25  N   UNL     1       4.191   2.270  19.472  0.00  0.00    +0.000 N 
ATOM     26  O   UNL     1       3.859   1.524  18.538  0.00  0.00    +0.000 OA
ATOM     27  O   UNL     1       5.100   2.023  20.280  0.00  0.00    +0.000 OA
ENDBRANCH   6  25
TORSDOF 3
ENDMDL
MODEL 2
REMARK VINA RESULT:      -8.6      0.504      1.096
REMARK  Name = 
REMARK  4 active torsions:
REMARK  status: ('A' for Active; 'I' for Inactive)
REMARK    1  A    between atoms: C_1  and  C_2
REMARK    2  A    between atoms: C_6  and  N_7
REMARK    3  A    between atoms: C_12  and  N_13
REMARK    4  A    between atoms: C_16  and  N_17
REMARK                            x       y       z     vdW  Elec       q    Type
REMARK                         _______ _______ _______ _____ _____    ______ ____
ROOT
ATOM      1  N   UNL     1       1.810   6.937  20.786  0.00  0.00    +0.000 N 
ATOM      2  C   UNL     1       2.355   5.707  20.410  0.00  0.00    +0.000 A 
ATOM      3  N   UNL     1       1.887   4.617  21.027  0.00  0.00    +0.000 NA
ATOM      4  C   UNL     1       2.437   3.438  20.701  0.00  0.00    +0.000 A 
ATOM      5  N   UNL     1       1.835   2.343  21.309  0.00  0.00    +0.000 N 
ATOM      6  C   UNL     1       3.447   3.349  19.754  0.00  0.00    +0.000 A 
ATOM      7  C   UNL     1       3.874   4.497  19.113  0.00  0.00    +0.000 A 
ATOM      8  N   UNL     1       3.322   5.668  19.478  0.00  0.00    +0.000 NA
ATOM      9  H   UNL     1       1.019   6.767  21.396  0.00  0.00    +0.000 HD
ATOM     10  H   UNL     1       1.171   2.656  22.013  0.00  0.00    +0.000 HD
ATOM     11  H   UNL     1       2.447   1.602  21.634  0.00  0.00    +0.000 HD
ENDROOT
BRANCH   1  17
ATOM     12  C   UNL     1       0.068  11.520  20.067  0.00  0.00    +0.000 C 
ATOM     13  C   UNL     1       0.808  10.324  19.553  0.00  0.00    +0.000 A 
ATOM     14  C   UNL     1       1.346  10.289  18.265  0.00  0.00    +0.000 A 
ATOM     15  C   UNL     1       2.041   9.162  17.827  0.00  0.00    +0.000 A 
ATOM     16  C   UNL     1       2.199   8.060  18.671  0.00  0.00    +0.000 A 
ATOM     17  C   UNL     1       1.642   8.060  19.954  0.00  0.00    +0.000 A 
ATOM     18  C   UNL     1       0.967   9.209  20.386  0.00  0.00    +0.000 A 
ENDBRANCH   1  17
BRANCH   7  19
ATOM     19  N   UNL     1       4.870   4.569  18.165  0.00  0.00    +0.000 N 
ATOM     20  C   UNL     1       6.311   4.615  18.454  0.00  0.00    +0.000 C 
ATOM     21  C   UNL     1       6.965   5.584  17.453  0.00  0.00    +0.000 C 
ATOM     22  O   UNL     1       6.712   5.179  16.093  0.00  0.00    +0.000 OA
ATOM     23  C   UNL     1       5.296   5.107  15.836  0.00  0.00    +0.000 C 
ATOM     24  C   UNL     1       4.601   4.115  16.788  0.00  0.00    +0.000 C 
ENDBRANCH   7  19
BRANCH   6  25
ATOM     25  N   UNL     1       4.150   2.113  19.612  0.00  0.00    +0.000 N 
ATOM     26  O   UNL     1       3.780   1.338  18.718  0.00  0.00    +0.000 OA
ATOM     27  O   UNL     1       5.080   1.884  20.400  0.00  0.00    +0.000 OA
ENDBRANCH   6  25
TORSDOF 3
ENDMDL
MODEL 3
REMARK VINA RESULT:      -8.4      1.942      4.139
REMARK  Name = 
REMARK  4 active torsions:
REMARK  status: ('A' for Active; 'I' for Inactive)
REMARK    1  A    between atoms: C_1  and  C_2
REMARK    2  A    between atoms: C_6  and  N_7
REMARK    3  A    between atoms: C_12  and  N_13
REMARK    4  A    between atoms: C_16  and  N_17
REMARK                            x       y       z     vdW  Elec       q    Type
REMARK                         _______ _______ _______ _____ _____    ______ ____
ROOT
ATOM      1  N   UNL     1       1.978   8.856  17.815  0.00  0.00    +0.000 N 
ATOM      2  C   UNL     1       2.736   7.695  17.985  0.00  0.00    +0.000 A 
ATOM      3  N   UNL     1       3.935   7.655  17.394  0.00  0.00    +0.000 NA
ATOM      4  C   UNL     1       4.647   6.526  17.518  0.00  0.00    +0.000 A 
ATOM      5  N   UNL     1       5.920   6.594  16.962  0.00  0.00    +0.000 N 
ATOM      6  C   UNL     1       4.166   5.443  18.238  0.00  0.00    +0.000 A 
ATOM      7  C   UNL     1       2.938   5.540  18.864  0.00  0.00    +0.000 A 
ATOM      8  N   UNL     1       2.233   6.676  18.702  0.00  0.00    +0.000 NA
ATOM      9  H   UNL     1       2.555   9.555  17.362  0.00  0.00    +0.000 HD
ATOM     10  H   UNL     1       6.022   7.453  16.428  0.00  0.00    +0.000 HD
ATOM     11  H   UNL     1       6.252   5.772  16.470  0.00  0.00    +0.000 HD
ENDROOT
BRANCH   1  17
ATOM     12  C   UNL     1       0.475   9.449  22.500  0.00  0.00    +0.000 C 
ATOM     13  C   UNL     1       0.293   9.727  21.039  0.00  0.00    +0.000 A 
ATOM     14  C   UNL     1      -0.756  10.518  20.566  0.00  0.00    +0.000 A 
ATOM     15  C   UNL     1      -0.885  10.765  19.199  0.00  0.00    +0.000 A 
ATOM     16  C   UNL     1       0.030  10.219  18.295  0.00  0.00    +0.000 A 
ATOM     17  C   UNL     1       1.070   9.398  18.744  0.00  0.00    +0.000 A 
ATOM     18  C   UNL     1       1.198   9.179  20.122  0.00  0.00    +0.000 A 
ENDBRANCH   1  17
BRANCH   7  19
ATOM     19  N   UNL     1       2.326   4.551  19.600  0.00  0.00    +0.000 N 
ATOM     20  C   UNL     1       2.118   4.585  21.055  0.00  0.00    +0.000 C 
ATOM     21  C   UNL     1       2.343   3.164  21.600  0.00  0.00    +0.000 C 
ATOM     22  O   UNL     1       1.463   2.215  20.964  0.00  0.00    +0.000 OA
ATOM     23  C   UNL     1       1.656   2.218  19.536  0.00  0.00    +0.000 C 
ATOM     24  C   UNL     1       1.401   3.613  18.936  0.00  0.00    +0.000 C 
ENDBRANCH   7  19
BRANCH   6  25
ATOM     25  N   UNL     1       4.856   4.194  18.148  0.00  0.00    +0.000 N 
ATOM     26  O   UNL     1       5.668   3.917  19.044  0.00  0.00    +0.000 OA
ATOM     27  O   UNL     1       4.612   3.470  17.171  0.00  0.00    +0.000 OA
ENDBRANCH   6  25
TORSDOF 3
ENDMDL
MODEL 4
REMARK VINA RESULT:      -8.4      2.022      4.182
REMARK  Name = 
REMARK  4 active torsions:
REMARK  status: ('A' for Active; 'I' for Inactive)
REMARK    1  A    between atoms: C_1  and  C_2
REMARK    2  A    between atoms: C_6  and  N_7
REMARK    3  A    between atoms: C_12  and  N_13
REMARK    4  A    between atoms: C_16  and  N_17
REMARK                            x       y       z     vdW  Elec       q    Type
REMARK                         _______ _______ _______ _____ _____    ______ ____
ROOT
ATOM      1  N   UNL     1       2.049   8.853  17.604  0.00  0.00    +0.000 N 
ATOM      2  C   UNL     1       2.796   7.701  17.859  0.00  0.00    +0.000 A 
ATOM      3  N   UNL     1       4.026   7.642  17.338  0.00  0.00    +0.000 NA
ATOM      4  C   UNL     1       4.730   6.519  17.543  0.00  0.00    +0.000 A 
ATOM      5  N   UNL     1       6.032   6.569  17.056  0.00  0.00    +0.000 N 
ATOM      6  C   UNL     1       4.210   5.463  18.275  0.00  0.00    +0.000 A 
ATOM      7  C   UNL     1       2.949   5.582  18.828  0.00  0.00    +0.000 A 
ATOM      8  N   UNL     1       2.255   6.709  18.585  0.00  0.00    +0.000 NA
ATOM      9  H   UNL     1       2.651   9.536  17.158  0.00  0.00    +0.000 HD
ATOM     10  H   UNL     1       6.163   7.408  16.496  0.00  0.00    +0.000 HD
ATOM     11  H   UNL     1       6.390   5.729  16.614  0.00  0.00    +0.000 HD
ENDROOT
BRANCH   1  17
ATOM     12  C   UNL     1      -2.367  11.001  18.273  0.00  0.00    +0.000 C 
ATOM     13  C   UNL     1      -1.082  10.485  18.843  0.00  0.00    +0.000 A 
ATOM     14  C   UNL     1      -0.803  10.552  20.209  0.00  0.00    +0.000 A 
ATOM     15  C   UNL     1       0.400  10.049  20.704  0.00  0.00    +0.000 A 
ATOM     16  C   UNL     1       1.335   9.479  19.837  0.00  0.00    +0.000 A 
ATOM     17  C   UNL     1       1.091   9.429  18.461  0.00  0.00    +0.000 A 
ATOM     18  C   UNL     1      -0.132   9.918  17.983  0.00  0.00    +0.000 A 
ENDBRANCH   1  17
BRANCH   7  19
ATOM     19  N   UNL     1       2.297   4.619  19.566  0.00  0.00    +0.000 N 
ATOM     20  C   UNL     1       2.038   4.693  21.011  0.00  0.00    +0.000 C 
ATOM     21  C   UNL     1       2.223   3.283  21.599  0.00  0.00    +0.000 C 
ATOM     22  O   UNL     1       1.353   2.330  20.955  0.00  0.00    +0.000 OA
ATOM     23  C   UNL     1       1.597   2.294  19.535  0.00  0.00    +0.000 C 
ATOM     24  C   UNL     1       1.383   3.677  18.893  0.00  0.00    +0.000 C 
ENDBRANCH   7  19
BRANCH   6  25
ATOM     25  N   UNL     1       4.904   4.213  18.270  0.00  0.00    +0.000 N 
ATOM     26  O   UNL     1       5.675   3.977  19.212  0.00  0.00    +0.000 OA
ATOM     27  O   UNL     1       4.703   3.446  17.316  0.00  0.00    +0.000 OA
ENDBRANCH   6  25
TORSDOF 3
ENDMDL
MODEL 5
REMARK VINA RESULT:      -8.1      1.990      4.104
REMARK  Name = 
REMARK  4 active torsions:
REMARK  status: ('A' for Active; 'I' for Inactive)
REMARK    1  A    between atoms: C_1  and  C_2
REMARK    2  A    between atoms: C_6  and  N_7
REMARK    3  A    between atoms: C_12  and  N_13
REMARK    4  A    between atoms: C_16  and  N_17
REMARK                            x       y       z     vdW  Elec       q    Type
REMARK                         _______ _______ _______ _____ _____    ______ ____
ROOT
ATOM      1  N   UNL     1       2.132   8.845  17.676  0.00  0.00    +0.000 N 
ATOM      2  C   UNL     1       2.937   7.706  17.764  0.00  0.00    +0.000 A 
ATOM      3  N   UNL     1       4.141   7.762  17.186  0.00  0.00    +0.000 NA
ATOM      4  C   UNL     1       4.899   6.657  17.230  0.00  0.00    +0.000 A 
ATOM      5  N   UNL     1       6.172   6.821  16.696  0.00  0.00    +0.000 N 
ATOM      6  C   UNL     1       4.457   5.502  17.857  0.00  0.00    +0.000 A 
ATOM      7  C   UNL     1       3.221   5.500  18.475  0.00  0.00    +0.000 A 
ATOM      8  N   UNL     1       2.471   6.614  18.394  0.00  0.00    +0.000 NA
ATOM      9  H   UNL     1       2.683   9.601  17.286  0.00  0.00    +0.000 HD
ATOM     10  H   UNL     1       6.243   7.722  16.232  0.00  0.00    +0.000 HD
ATOM     11  H   UNL     1       6.543   6.054  16.145  0.00  0.00    +0.000 HD
ENDROOT
BRANCH   1  17
ATOM     12  C   UNL     1       0.707   9.249  22.405  0.00  0.00    +0.000 C 
ATOM     13  C   UNL     1       0.451   9.506  20.952  0.00  0.00    +0.000 A 
ATOM     14  C   UNL     1      -0.696  10.169  20.513  0.00  0.00    +0.000 A 
ATOM     15  C   UNL     1      -0.894  10.402  19.152  0.00  0.00    +0.000 A 
ATOM     16  C   UNL     1       0.052   9.969  18.219  0.00  0.00    +0.000 A 
ATOM     17  C   UNL     1       1.194   9.275  18.634  0.00  0.00    +0.000 A 
ATOM     18  C   UNL     1       1.388   9.069  20.006  0.00  0.00    +0.000 A 
ENDBRANCH   1  17
BRANCH   7  19
ATOM     19  N   UNL     1       2.644   4.431  19.124  0.00  0.00    +0.000 N 
ATOM     20  C   UNL     1       1.960   3.310  18.463  0.00  0.00    +0.000 C 
ATOM     21  C   UNL     1       0.741   2.925  19.320  0.00  0.00    +0.000 C 
ATOM     22  O   UNL     1       1.135   2.585  20.665  0.00  0.00    +0.000 OA
ATOM     23  C   UNL     1       1.832   3.682  21.286  0.00  0.00    +0.000 C 
ATOM     24  C   UNL     1       3.087   4.077  20.485  0.00  0.00    +0.000 C 
ENDBRANCH   7  19
BRANCH   6  25
ATOM     25  N   UNL     1       5.200   4.294  17.678  0.00  0.00    +0.000 N 
ATOM     26  O   UNL     1       6.031   3.993  18.548  0.00  0.00    +0.000 OA
ATOM     27  O   UNL     1       4.978   3.626  16.657  0.00  0.00    +0.000 OA
ENDBRANCH   6  25
TORSDOF 3
ENDMDL
MODEL 6
REMARK VINA RESULT:      -8.1      4.220      7.605
REMARK  Name = 
REMARK  4 active torsions:
REMARK  status: ('A' for Active; 'I' for Inactive)
REMARK    1  A    between atoms: C_1  and  C_2
REMARK    2  A    between atoms: C_6  and  N_7
REMARK    3  A    between atoms: C_12  and  N_13
REMARK    4  A    between atoms: C_16  and  N_17
REMARK                            x       y       z     vdW  Elec       q    Type
REMARK                         _______ _______ _______ _____ _____    ______ ____
ROOT
ATOM      1  N   UNL     1       6.981   4.181  14.042  0.00  0.00    +0.000 N 
ATOM      2  C   UNL     1       6.560   4.564  15.317  0.00  0.00    +0.000 A 
ATOM      3  N   UNL     1       7.190   5.597  15.885  0.00  0.00    +0.000 NA
ATOM      4  C   UNL     1       6.819   5.941  17.127  0.00  0.00    +0.000 A 
ATOM      5  N   UNL     1       7.450   7.081  17.613  0.00  0.00    +0.000 N 
ATOM      6  C   UNL     1       5.815   5.258  17.796  0.00  0.00    +0.000 A 
ATOM      7  C   UNL     1       5.163   4.220  17.158  0.00  0.00    +0.000 A 
ATOM      8  N   UNL     1       5.572   3.881  15.921  0.00  0.00    +0.000 NA
ATOM      9  H   UNL     1       7.634   4.873  13.696  0.00  0.00    +0.000 HD
ATOM     10  H   UNL     1       8.194   7.364  16.981  0.00  0.00    +0.000 HD
ATOM     11  H   UNL     1       7.729   7.073  18.587  0.00  0.00    +0.000 HD
ENDROOT
BRANCH   1  17
ATOM     12  C   UNL     1       6.077   0.556  10.785  0.00  0.00    +0.000 C 
ATOM     13  C   UNL     1       5.679   1.855  11.416  0.00  0.00    +0.000 A 
ATOM     14  C   UNL     1       4.520   2.533  11.036  0.00  0.00    +0.000 A 
ATOM     15  C   UNL     1       4.176   3.735  11.656  0.00  0.00    +0.000 A 
ATOM     16  C   UNL     1       4.990   4.269  12.658  0.00  0.00    +0.000 A 
ATOM     17  C   UNL     1       6.173   3.622  13.033  0.00  0.00    +0.000 A 
ATOM     18  C   UNL     1       6.492   2.406  12.416  0.00  0.00    +0.000 A 
ENDBRANCH   1  17
BRANCH   7  19
ATOM     19  N   UNL     1       4.159   3.445  17.694  0.00  0.00    +0.000 N 
ATOM     20  C   UNL     1       2.842   3.224  17.079  0.00  0.00    +0.000 C 
ATOM     21  C   UNL     1       1.790   3.209  18.202  0.00  0.00    +0.000 C 
ATOM     22  O   UNL     1       2.090   2.198  19.185  0.00  0.00    +0.000 OA
ATOM     23  C   UNL     1       3.397   2.411  19.754  0.00  0.00    +0.000 C 
ATOM     24  C   UNL     1       4.492   2.393  18.671  0.00  0.00    +0.000 C 
ENDBRANCH   7  19
BRANCH   6  25
ATOM     25  N   UNL     1       5.617   5.514  19.188  0.00  0.00    +0.000 N 
ATOM     26  O   UNL     1       4.490   5.880  19.554  0.00  0.00    +0.000 OA
ATOM     27  O   UNL     1       6.589   5.369  19.945  0.00  0.00    +0.000 OA
ENDBRANCH   6  25
TORSDOF 3
ENDMDL
MODEL 7
REMARK VINA RESULT:      -7.9      2.032      4.100
REMARK  Name = 
REMARK  4 active torsions:
REMARK  status: ('A' for Active; 'I' for Inactive)
REMARK    1  A    between atoms: C_1  and  C_2
REMARK    2  A    between atoms: C_6  and  N_7
REMARK    3  A    between atoms: C_12  and  N_13
REMARK    4  A    between atoms: C_16  and  N_17
REMARK                            x       y       z     vdW  Elec       q    Type
REMARK                         _______ _______ _______ _____ _____    ______ ____
ROOT
ATOM      1  N   UNL     1       2.162   8.847  17.664  0.00  0.00    +0.000 N 
ATOM      2  C   UNL     1       2.963   7.707  17.759  0.00  0.00    +0.000 A 
ATOM      3  N   UNL     1       4.174   7.761  17.196  0.00  0.00    +0.000 NA
ATOM      4  C   UNL     1       4.929   6.654  17.247  0.00  0.00    +0.000 A 
ATOM      5  N   UNL     1       6.209   6.816  16.729  0.00  0.00    +0.000 N 
ATOM      6  C   UNL     1       4.477   5.499  17.866  0.00  0.00    +0.000 A 
ATOM      7  C   UNL     1       3.233   5.498  18.468  0.00  0.00    +0.000 A 
ATOM      8  N   UNL     1       2.487   6.615  18.380  0.00  0.00    +0.000 NA
ATOM      9  H   UNL     1       2.720   9.603  17.282  0.00  0.00    +0.000 HD
ATOM     10  H   UNL     1       6.288   7.719  16.268  0.00  0.00    +0.000 HD
ATOM     11  H   UNL     1       6.585   6.050  16.181  0.00  0.00    +0.000 HD
ENDROOT
BRANCH   1  17
ATOM     12  C   UNL     1      -2.058  11.215  18.736  0.00  0.00    +0.000 C 
ATOM     13  C   UNL     1      -0.867  10.428  19.189  0.00  0.00    +0.000 A 
ATOM     14  C   UNL     1      -0.668  10.101  20.532  0.00  0.00    +0.000 A 
ATOM     15  C   UNL     1       0.448   9.355  20.914  0.00  0.00    +0.000 A 
ATOM     16  C   UNL     1       1.375   8.935  19.957  0.00  0.00    +0.000 A 
ATOM     17  C   UNL     1       1.213   9.278  18.610  0.00  0.00    +0.000 A 
ATOM     18  C   UNL     1       0.076  10.008  18.241  0.00  0.00    +0.000 A 
ENDBRANCH   1  17
BRANCH   7  19
ATOM     19  N   UNL     1       2.646   4.429  19.107  0.00  0.00    +0.000 N 
ATOM     20  C   UNL     1       1.978   3.305  18.435  0.00  0.00    +0.000 C 
ATOM     21  C   UNL     1       0.743   2.919  19.268  0.00  0.00    +0.000 C 
ATOM     22  O   UNL     1       1.111   2.582  20.621  0.00  0.00    +0.000 OA
ATOM     23  C   UNL     1       1.792   3.683  21.254  0.00  0.00    +0.000 C 
ATOM     24  C   UNL     1       3.062   4.080  20.478  0.00  0.00    +0.000 C 
ENDBRANCH   7  19
BRANCH   6  25
ATOM     25  N   UNL     1       5.219   4.289  17.693  0.00  0.00    +0.000 N 
ATOM     26  O   UNL     1       6.037   3.983  18.574  0.00  0.00    +0.000 OA
ATOM     27  O   UNL     1       5.010   3.626  16.666  0.00  0.00    +0.000 OA
ENDBRANCH   6  25
TORSDOF 3
ENDMDL
MODEL 8
REMARK VINA RESULT:      -7.9      4.186      7.704
REMARK  Name = 
REMARK  4 active torsions:
REMARK  status: ('A' for Active; 'I' for Inactive)
REMARK    1  A    between atoms: C_1  and  C_2
REMARK    2  A    between atoms: C_6  and  N_7
REMARK    3  A    between atoms: C_12  and  N_13
REMARK    4  A    between atoms: C_16  and  N_17
REMARK                            x       y       z     vdW  Elec       q    Type
REMARK                         _______ _______ _______ _____ _____    ______ ____
ROOT
ATOM      1  N   UNL     1       7.040   4.260  13.926  0.00  0.00    +0.000 N 
ATOM      2  C   UNL     1       6.663   4.666  15.208  0.00  0.00    +0.000 A 
ATOM      3  N   UNL     1       7.285   5.733  15.720  0.00  0.00    +0.000 NA
ATOM      4  C   UNL     1       6.957   6.100  16.967  0.00  0.00    +0.000 A 
ATOM      5  N   UNL     1       7.572   7.271  17.394  0.00  0.00    +0.000 N 
ATOM      6  C   UNL     1       6.004   5.407  17.697  0.00  0.00    +0.000 A 
ATOM      7  C   UNL     1       5.357   4.332  17.115  0.00  0.00    +0.000 A 
ATOM      8  N   UNL     1       5.724   3.971  15.872  0.00  0.00    +0.000 NA
ATOM      9  H   UNL     1       7.657   4.962  13.533  0.00  0.00    +0.000 HD
ATOM     10  H   UNL     1       8.280   7.559  16.723  0.00  0.00    +0.000 HD
ATOM     11  H   UNL     1       7.893   7.299  18.356  0.00  0.00    +0.000 HD
ENDROOT
BRANCH   1  17
ATOM     12  C   UNL     1       6.084   0.495  10.848  0.00  0.00    +0.000 C 
ATOM     13  C   UNL     1       5.688   1.812  11.441  0.00  0.00    +0.000 A 
ATOM     14  C   UNL     1       4.506   2.458  11.074  0.00  0.00    +0.000 A 
ATOM     15  C   UNL     1       4.164   3.678  11.658  0.00  0.00    +0.000 A 
ATOM     16  C   UNL     1       5.003   4.264  12.609  0.00  0.00    +0.000 A 
ATOM     17  C   UNL     1       6.208   3.650  12.968  0.00  0.00    +0.000 A 
ATOM     18  C   UNL     1       6.525   2.414  12.389  0.00  0.00    +0.000 A 
ENDBRANCH   1  17
BRANCH   7  19
ATOM     19  N   UNL     1       4.402   3.543  17.715  0.00  0.00    +0.000 N 
ATOM     20  C   UNL     1       4.646   2.626  18.839  0.00  0.00    +0.000 C 
ATOM     21  C   UNL     1       3.801   1.361  18.611  0.00  0.00    +0.000 C 
ATOM     22  O   UNL     1       2.401   1.684  18.488  0.00  0.00    +0.000 OA
ATOM     23  C   UNL     1       2.183   2.608  17.404  0.00  0.00    +0.000 C 
ATOM     24  C   UNL     1       2.978   3.911  17.608  0.00  0.00    +0.000 C 
ENDBRANCH   7  19
BRANCH   6  25
ATOM     25  N   UNL     1       5.858   5.695  19.089  0.00  0.00    +0.000 N 
ATOM     26  O   UNL     1       6.815   5.439  19.836  0.00  0.00    +0.000 OA
ATOM     27  O   UNL     1       4.778   6.173  19.470  0.00  0.00    +0.000 OA
ENDBRANCH   6  25
TORSDOF 3
ENDMDL
MODEL 9
REMARK VINA RESULT:      -7.9      4.080      7.516
REMARK  Name = 
REMARK  4 active torsions:
REMARK  status: ('A' for Active; 'I' for Inactive)
REMARK    1  A    between atoms: C_1  and  C_2
REMARK    2  A    between atoms: C_6  and  N_7
REMARK    3  A    between atoms: C_12  and  N_13
REMARK    4  A    between atoms: C_16  and  N_17
REMARK                            x       y       z     vdW  Elec       q    Type
REMARK                         _______ _______ _______ _____ _____    ______ ____
ROOT
ATOM      1  N   UNL     1       6.704   4.217  13.767  0.00  0.00    +0.000 N 
ATOM      2  C   UNL     1       6.157   4.645  14.979  0.00  0.00    +0.000 A 
ATOM      3  N   UNL     1       6.643   5.773  15.506  0.00  0.00    +0.000 NA
ATOM      4  C   UNL     1       6.151   6.164  16.690  0.00  0.00    +0.000 A 
ATOM      5  N   UNL     1       6.632   7.393  17.127  0.00  0.00    +0.000 N 
ATOM      6  C   UNL     1       5.169   5.433  17.342  0.00  0.00    +0.000 A 
ATOM      7  C   UNL     1       4.668   4.293  16.744  0.00  0.00    +0.000 A 
ATOM      8  N   UNL     1       5.197   3.910  15.567  0.00  0.00    +0.000 NA
ATOM      9  H   UNL     1       7.312   4.946  13.412  0.00  0.00    +0.000 HD
ATOM     10  H   UNL     1       7.391   7.705  16.526  0.00  0.00    +0.000 HD
ATOM     11  H   UNL     1       6.839   7.482  18.116  0.00  0.00    +0.000 HD
ENDROOT
BRANCH   1  17
ATOM     12  C   UNL     1       3.060   3.957  10.419  0.00  0.00    +0.000 C 
ATOM     13  C   UNL     1       4.252   3.339  11.082  0.00  0.00    +0.000 A 
ATOM     14  C   UNL     1       4.723   2.075  10.719  0.00  0.00    +0.000 A 
ATOM     15  C   UNL     1       5.845   1.538  11.351  0.00  0.00    +0.000 A 
ATOM     16  C   UNL     1       6.502   2.257  12.352  0.00  0.00    +0.000 A 
ATOM     17  C   UNL     1       6.029   3.511  12.753  0.00  0.00    +0.000 A 
ATOM     18  C   UNL     1       4.915   4.046  12.094  0.00  0.00    +0.000 A 
ENDBRANCH   1  17
BRANCH   7  19
ATOM     19  N   UNL     1       3.706   3.461  17.271  0.00  0.00    +0.000 N 
ATOM     20  C   UNL     1       2.255   3.640  17.114  0.00  0.00    +0.000 C 
ATOM     21  C   UNL     1       1.582   3.252  18.443  0.00  0.00    +0.000 C 
ATOM     22  O   UNL     1       1.909   1.899  18.817  0.00  0.00    +0.000 OA
ATOM     23  C   UNL     1       3.335   1.732  18.935  0.00  0.00    +0.000 C 
ATOM     24  C   UNL     1       4.052   2.069  17.614  0.00  0.00    +0.000 C 
ENDBRANCH   7  19
BRANCH   6  25
ATOM     25  N   UNL     1       4.847   5.765  18.695  0.00  0.00    +0.000 N 
ATOM     26  O   UNL     1       3.758   6.317  18.910  0.00  0.00    +0.000 OA
ATOM     27  O   UNL     1       5.683   5.493  19.570  0.00  0.00    +0.000 OA
ENDBRANCH   6  25
TORSDOF 3
ENDMDL
