MODEL 1
REMARK VINA RESULT:      -6.9      0.000      0.000
REMARK  Name = 
REMARK  16 active torsions:
REMARK  status: ('A' for Active; 'I' for Inactive)
REMARK    1  A    between atoms: C_1  and  C_2
REMARK    2  A    between atoms: C_2  and  O_4
REMARK    3  A    between atoms: O_4  and  C_5
REMARK    4  A    between atoms: C_5  and  C_6
REMARK    5  A    between atoms: C_8  and  O_9
REMARK    6  A    between atoms: O_9  and  C_10
REMARK    7  A    between atoms: C_16  and  C_17
REMARK    8  A    between atoms: C_17  and  O_18
REMARK    9  A    between atoms: O_18  and  C_19
REMARK   10  A    between atoms: C_19  and  C_20
REMARK   11  A    between atoms: C_24  and  O_25
REMARK   12  A    between atoms: O_25  and  C_26
REMARK   13  A    between atoms: C_26  and  C_27
REMARK   14  A    between atoms: C_29  and  O_30
REMARK   15  A    between atoms: C_31  and  O_32
REMARK   16  A    between atoms: C_33  and  O_34
REMARK                            x       y       z     vdW  Elec       q    Type
REMARK                         _______ _______ _______ _____ _____    ______ ____
ROOT
ATOM      1  C   UNL     1       1.609   9.605  19.230  0.00  0.00    +0.000 C 
ATOM      2  O   UNL     1       1.368   9.368  20.624  0.00  0.00    +0.000 OA
ATOM      3  C   UNL     1       0.131   9.632  21.137  0.00  0.00    +0.000 C 
ATOM      4  C   UNL     1      -0.933  10.052  20.448  0.00  0.00    +0.000 C 
ATOM      5  C   UNL     1      -0.854  10.239  18.956  0.00  0.00    +0.000 C 
ATOM      6  C   UNL     1       0.622  10.555  18.563  0.00  0.00    +0.000 C 
ATOM      7  C   UNL     1       0.752  12.042  18.896  0.00  0.00    +0.000 C 
ATOM      8  O   UNL     1       0.320  12.934  17.838  0.00  0.00    +0.000 OA
ATOM      9  C   UNL     1      -0.655  12.611  18.817  0.00  0.00    +0.000 C 
ATOM     10  C   UNL     1      -1.560  11.486  18.374  0.00  0.00    +0.000 C 
ENDROOT
BRANCH   1  11
ATOM     11  O   UNL     1       1.609   8.409  18.443  0.00  0.00    +0.000 OA
BRANCH  11  14
ATOM     12  C   UNL     1       4.540   6.493  17.593  0.00  0.00    +0.000 C 
ATOM     13  O   UNL     1       3.303   7.181  17.446  0.00  0.00    +0.000 OA
ATOM     14  C   UNL     1       2.692   7.515  18.680  0.00  0.00    +0.000 C 
ATOM     15  C   UNL     1       2.349   6.243  19.494  0.00  0.00    +0.000 C 
ATOM     16  C   UNL     1       3.603   5.358  19.620  0.00  0.00    +0.000 C 
ATOM     17  C   UNL     1       4.294   5.127  18.259  0.00  0.00    +0.000 C 
BRANCH  15  18
ATOM     18  O   UNL     1       1.856   6.599  20.795  0.00  0.00    +0.000 OA
ATOM     19  H   UNL     1       2.507   6.294  21.457  0.00  0.00    +0.000 HD
ENDBRANCH  15  18
BRANCH  16  20
ATOM     20  O   UNL     1       3.251   4.122  20.261  0.00  0.00    +0.000 OA
ATOM     21  H   UNL     1       3.950   3.893  20.900  0.00  0.00    +0.000 HD
ENDBRANCH  16  20
BRANCH  17  22
ATOM     22  O   UNL     1       5.507   4.397  18.441  0.00  0.00    +0.000 OA
ATOM     23  H   UNL     1       5.329   3.629  19.012  0.00  0.00    +0.000 HD
ENDBRANCH  17  22
BRANCH  12  24
ATOM     24  C   UNL     1       5.144   6.413  16.186  0.00  0.00    +0.000 C 
BRANCH  24  25
ATOM     25  O   UNL     1       6.573   6.345  16.177  0.00  0.00    +0.000 OA
BRANCH  25  27
ATOM     26  C   UNL     1       6.556   4.723  14.494  0.00  0.00    +0.000 C 
ATOM     27  C   UNL     1       7.093   5.134  15.832  0.00  0.00    +0.000 C 
ATOM     28  O   UNL     1       7.845   4.463  16.516  0.00  0.00    +0.000 OA
ENDBRANCH  25  27
ENDBRANCH  24  25
ENDBRANCH  12  24
ENDBRANCH  11  14
ENDBRANCH   1  11
BRANCH   7  29
ATOM     29  C   UNL     1       1.963  12.636  19.550  0.00  0.00    +0.000 C 
BRANCH  29  30
ATOM     30  O   UNL     1       2.913  13.184  18.622  0.00  0.00    +0.000 OA
BRANCH  30  31
ATOM     31  C   UNL     1       3.411  14.410  18.925  0.00  0.00    +0.000 C 
ATOM     32  C   UNL     1       3.455  15.290  17.707  0.00  0.00    +0.000 C 
ATOM     33  O   UNL     1       3.762  14.773  20.033  0.00  0.00    +0.000 OA
ENDBRANCH  30  31
ENDBRANCH  29  30
ENDBRANCH   7  29
BRANCH  10  34
ATOM     34  O   UNL     1      -2.949  11.631  18.678  0.00  0.00    +0.000 OA
BRANCH  34  35
ATOM     35  C   UNL     1      -3.737  11.341  17.595  0.00  0.00    +0.000 C 
ATOM     36  C   UNL     1      -2.933  11.131  16.348  0.00  0.00    +0.000 C 
ATOM     37  O   UNL     1      -4.963  11.335  17.592  0.00  0.00    +0.000 OA
ENDBRANCH  34  35
ENDBRANCH  10  34
TORSDOF 13
ENDMDL
MODEL 2
REMARK VINA RESULT:      -6.9      1.023      1.178
REMARK  Name = 
REMARK  16 active torsions:
REMARK  status: ('A' for Active; 'I' for Inactive)
REMARK    1  A    between atoms: C_1  and  C_2
REMARK    2  A    between atoms: C_2  and  O_4
REMARK    3  A    between atoms: O_4  and  C_5
REMARK    4  A    between atoms: C_5  and  C_6
REMARK    5  A    between atoms: C_8  and  O_9
REMARK    6  A    between atoms: O_9  and  C_10
REMARK    7  A    between atoms: C_16  and  C_17
REMARK    8  A    between atoms: C_17  and  O_18
REMARK    9  A    between atoms: O_18  and  C_19
REMARK   10  A    between atoms: C_19  and  C_20
REMARK   11  A    between atoms: C_24  and  O_25
REMARK   12  A    between atoms: O_25  and  C_26
REMARK   13  A    between atoms: C_26  and  C_27
REMARK   14  A    between atoms: C_29  and  O_30
REMARK   15  A    between atoms: C_31  and  O_32
REMARK   16  A    between atoms: C_33  and  O_34
REMARK                            x       y       z     vdW  Elec       q    Type
REMARK                         _______ _______ _______ _____ _____    ______ ____
ROOT
ATOM      1  C   UNL     1       1.601   9.635  19.271  0.00  0.00    +0.000 C 
ATOM      2  O   UNL     1       1.382   9.374  20.665  0.00  0.00    +0.000 OA
ATOM      3  C   UNL     1       0.151   9.619  21.199  0.00  0.00    +0.000 C 
ATOM      4  C   UNL     1      -0.927  10.039  20.532  0.00  0.00    +0.000 C 
ATOM      5  C   UNL     1      -0.872  10.249  19.043  0.00  0.00    +0.000 C 
ATOM      6  C   UNL     1       0.594  10.585  18.634  0.00  0.00    +0.000 C 
ATOM      7  C   UNL     1       0.717  12.068  18.987  0.00  0.00    +0.000 C 
ATOM      8  O   UNL     1       0.260  12.972  17.949  0.00  0.00    +0.000 OA
ATOM      9  C   UNL     1      -0.697  12.625  18.937  0.00  0.00    +0.000 C 
ATOM     10  C   UNL     1      -1.598  11.499  18.491  0.00  0.00    +0.000 C 
ENDROOT
BRANCH   1  11
ATOM     11  O   UNL     1       1.599   8.451  18.466  0.00  0.00    +0.000 OA
BRANCH  11  14
ATOM     12  C   UNL     1       4.525   6.533  17.602  0.00  0.00    +0.000 C 
ATOM     13  O   UNL     1       3.292   7.228  17.459  0.00  0.00    +0.000 OA
ATOM     14  C   UNL     1       2.678   7.548  18.695  0.00  0.00    +0.000 C 
ATOM     15  C   UNL     1       2.326   6.267  19.490  0.00  0.00    +0.000 C 
ATOM     16  C   UNL     1       3.575   5.375  19.610  0.00  0.00    +0.000 C 
ATOM     17  C   UNL     1       4.271   5.160  18.248  0.00  0.00    +0.000 C 
BRANCH  15  18
ATOM     18  O   UNL     1       1.829   6.608  20.794  0.00  0.00    +0.000 OA
ATOM     19  H   UNL     1       1.581   5.779  21.248  0.00  0.00    +0.000 HD
ENDBRANCH  15  18
BRANCH  16  20
ATOM     20  O   UNL     1       3.215   4.132  20.232  0.00  0.00    +0.000 OA
ATOM     21  H   UNL     1       2.243   4.065  20.254  0.00  0.00    +0.000 HD
ENDBRANCH  16  20
BRANCH  17  22
ATOM     22  O   UNL     1       5.480   4.421  18.425  0.00  0.00    +0.000 OA
ATOM     23  H   UNL     1       5.613   4.259  19.375  0.00  0.00    +0.000 HD
ENDBRANCH  17  22
BRANCH  12  24
ATOM     24  C   UNL     1       5.135   6.469  16.197  0.00  0.00    +0.000 C 
BRANCH  24  25
ATOM     25  O   UNL     1       6.562   6.371  16.193  0.00  0.00    +0.000 OA
BRANCH  25  27
ATOM     26  C   UNL     1       6.480   4.773  14.488  0.00  0.00    +0.000 C 
ATOM     27  C   UNL     1       7.058   5.158  15.816  0.00  0.00    +0.000 C 
ATOM     28  O   UNL     1       7.819   4.469  16.471  0.00  0.00    +0.000 OA
ENDBRANCH  25  27
ENDBRANCH  24  25
ENDBRANCH  12  24
ENDBRANCH  11  14
ENDBRANCH   1  11
BRANCH   7  29
ATOM     29  C   UNL     1       1.931  12.664  19.632  0.00  0.00    +0.000 C 
BRANCH  29  30
ATOM     30  O   UNL     1       1.773  12.919  21.038  0.00  0.00    +0.000 OA
BRANCH  30  31
ATOM     31  C   UNL     1       1.677  14.222  21.404  0.00  0.00    +0.000 C 
ATOM     32  C   UNL     1       2.241  15.124  20.341  0.00  0.00    +0.000 C 
ATOM     33  O   UNL     1       1.187  14.628  22.442  0.00  0.00    +0.000 OA
ENDBRANCH  30  31
ENDBRANCH  29  30
ENDBRANCH   7  29
BRANCH  10  34
ATOM     34  O   UNL     1      -2.984  11.626  18.817  0.00  0.00    +0.000 OA
BRANCH  34  35
ATOM     35  C   UNL     1      -3.780  10.981  17.906  0.00  0.00    +0.000 C 
ATOM     36  C   UNL     1      -4.893  11.852  17.408  0.00  0.00    +0.000 C 
ATOM     37  O   UNL     1      -3.675   9.803  17.583  0.00  0.00    +0.000 OA
ENDBRANCH  34  35
ENDBRANCH  10  34
TORSDOF 13
ENDMDL
MODEL 3
REMARK VINA RESULT:      -6.8      2.454      8.956
REMARK  Name = 
REMARK  16 active torsions:
REMARK  status: ('A' for Active; 'I' for Inactive)
REMARK    1  A    between atoms: C_1  and  C_2
REMARK    2  A    between atoms: C_2  and  O_4
REMARK    3  A    between atoms: O_4  and  C_5
REMARK    4  A    between atoms: C_5  and  C_6
REMARK    5  A    between atoms: C_8  and  O_9
REMARK    6  A    between atoms: O_9  and  C_10
REMARK    7  A    between atoms: C_16  and  C_17
REMARK    8  A    between atoms: C_17  and  O_18
REMARK    9  A    between atoms: O_18  and  C_19
REMARK   10  A    between atoms: C_19  and  C_20
REMARK   11  A    between atoms: C_24  and  O_25
REMARK   12  A    between atoms: O_25  and  C_26
REMARK   13  A    between atoms: C_26  and  C_27
REMARK   14  A    between atoms: C_29  and  O_30
REMARK   15  A    between atoms: C_31  and  O_32
REMARK   16  A    between atoms: C_33  and  O_34
REMARK                            x       y       z     vdW  Elec       q    Type
REMARK                         _______ _______ _______ _____ _____    ______ ____
ROOT
ATOM      1  C   UNL     1       2.724   5.955  18.930  0.00  0.00    +0.000 C 
ATOM      2  O   UNL     1       3.622   5.727  20.025  0.00  0.00    +0.000 OA
ATOM      3  C   UNL     1       4.873   5.246  19.767  0.00  0.00    +0.000 C 
ATOM      4  C   UNL     1       5.389   5.005  18.559  0.00  0.00    +0.000 C 
ATOM      5  C   UNL     1       4.597   5.304  17.314  0.00  0.00    +0.000 C 
ATOM      6  C   UNL     1       3.077   5.211  17.648  0.00  0.00    +0.000 C 
ATOM      7  C   UNL     1       2.812   3.705  17.623  0.00  0.00    +0.000 C 
ATOM      8  O   UNL     1       2.517   3.169  16.308  0.00  0.00    +0.000 OA
ATOM      9  C   UNL     1       3.876   3.111  16.712  0.00  0.00    +0.000 C 
ATOM     10  C   UNL     1       4.685   4.265  16.170  0.00  0.00    +0.000 C 
ENDROOT
BRANCH   1  11
ATOM     11  O   UNL     1       2.608   7.337  18.572  0.00  0.00    +0.000 OA
BRANCH  11  14
ATOM     12  C   UNL     1      -0.036   9.777  18.775  0.00  0.00    +0.000 C 
ATOM     13  O   UNL     1       1.178   9.151  18.377  0.00  0.00    +0.000 OA
ATOM     14  C   UNL     1       1.536   8.045  19.187  0.00  0.00    +0.000 C 
ATOM     15  C   UNL     1       1.772   8.483  20.653  0.00  0.00    +0.000 C 
ATOM     16  C   UNL     1       0.553   9.276  21.158  0.00  0.00    +0.000 C 
ATOM     17  C   UNL     1       0.136  10.392  20.175  0.00  0.00    +0.000 C 
BRANCH  15  18
ATOM     18  O   UNL     1       2.000   7.336  21.487  0.00  0.00    +0.000 OA
ATOM     19  H   UNL     1       2.935   7.350  21.770  0.00  0.00    +0.000 HD
ENDBRANCH  15  18
BRANCH  16  20
ATOM     20  O   UNL     1       0.828   9.790  22.470  0.00  0.00    +0.000 OA
ATOM     21  H   UNL     1       1.788   9.940  22.550  0.00  0.00    +0.000 HD
ENDBRANCH  16  20
BRANCH  17  22
ATOM     22  O   UNL     1      -1.061  11.026  20.630  0.00  0.00    +0.000 OA
ATOM     23  H   UNL     1      -1.015  11.974  20.416  0.00  0.00    +0.000 HD
ENDBRANCH  17  22
BRANCH  12  24
ATOM     24  C   UNL     1      -0.366  10.791  17.673  0.00  0.00    +0.000 C 
BRANCH  24  25
ATOM     25  O   UNL     1      -1.726  11.232  17.686  0.00  0.00    +0.000 OA
BRANCH  25  27
ATOM     26  C   UNL     1      -2.754  10.789  15.633  0.00  0.00    +0.000 C 
ATOM     27  C   UNL     1      -2.612  10.397  17.073  0.00  0.00    +0.000 C 
ATOM     28  O   UNL     1      -3.229   9.497  17.614  0.00  0.00    +0.000 OA
ENDBRANCH  25  27
ENDBRANCH  24  25
ENDBRANCH  12  24
ENDBRANCH  11  14
ENDBRANCH   1  11
BRANCH   7  29
ATOM     29  C   UNL     1       1.946   3.004  18.624  0.00  0.00    +0.000 C 
BRANCH  29  30
ATOM     30  O   UNL     1       2.680   2.394  19.699  0.00  0.00    +0.000 OA
BRANCH  30  31
ATOM     31  C   UNL     1       2.295   2.729  20.956  0.00  0.00    +0.000 C 
ATOM     32  C   UNL     1       1.012   3.513  20.935  0.00  0.00    +0.000 C 
ATOM     33  O   UNL     1       2.885   2.429  21.978  0.00  0.00    +0.000 OA
ENDBRANCH  30  31
ENDBRANCH  29  30
ENDBRANCH   7  29
BRANCH  10  34
ATOM     34  O   UNL     1       5.995   3.954  15.692  0.00  0.00    +0.000 OA
BRANCH  34  35
ATOM     35  C   UNL     1       6.249   4.552  14.484  0.00  0.00    +0.000 C 
ATOM     36  C   UNL     1       5.633   3.804  13.341  0.00  0.00    +0.000 C 
ATOM     37  O   UNL     1       6.965   5.532  14.316  0.00  0.00    +0.000 OA
ENDBRANCH  34  35
ENDBRANCH  10  34
TORSDOF 13
ENDMDL
MODEL 4
REMARK VINA RESULT:      -6.8      2.558      8.969
REMARK  Name = 
REMARK  16 active torsions:
REMARK  status: ('A' for Active; 'I' for Inactive)
REMARK    1  A    between atoms: C_1  and  C_2
REMARK    2  A    between atoms: C_2  and  O_4
REMARK    3  A    between atoms: O_4  and  C_5
REMARK    4  A    between atoms: C_5  and  C_6
REMARK    5  A    between atoms: C_8  and  O_9
REMARK    6  A    between atoms: O_9  and  C_10
REMARK    7  A    between atoms: C_16  and  C_17
REMARK    8  A    between atoms: C_17  and  O_18
REMARK    9  A    between atoms: O_18  and  C_19
REMARK   10  A    between atoms: C_19  and  C_20
REMARK   11  A    between atoms: C_24  and  O_25
REMARK   12  A    between atoms: O_25  and  C_26
REMARK   13  A    between atoms: C_26  and  C_27
REMARK   14  A    between atoms: C_29  and  O_30
REMARK   15  A    between atoms: C_31  and  O_32
REMARK   16  A    between atoms: C_33  and  O_34
REMARK                            x       y       z     vdW  Elec       q    Type
REMARK                         _______ _______ _______ _____ _____    ______ ____
ROOT
ATOM      1  C   UNL     1       1.889   6.423  19.935  0.00  0.00    +0.000 C 
ATOM      2  O   UNL     1       1.598   5.365  20.860  0.00  0.00    +0.000 OA
ATOM      3  C   UNL     1       2.565   4.444  21.138  0.00  0.00    +0.000 C 
ATOM      4  C   UNL     1       3.815   4.449  20.668  0.00  0.00    +0.000 C 
ATOM      5  C   UNL     1       4.292   5.562  19.774  0.00  0.00    +0.000 C 
ATOM      6  C   UNL     1       3.070   6.156  19.010  0.00  0.00    +0.000 C 
ATOM      7  C   UNL     1       2.854   5.151  17.877  0.00  0.00    +0.000 C 
ATOM      8  O   UNL     1       3.661   5.394  16.697  0.00  0.00    +0.000 OA
ATOM      9  C   UNL     1       4.203   4.489  17.646  0.00  0.00    +0.000 C 
ATOM     10  C   UNL     1       5.186   5.155  18.578  0.00  0.00    +0.000 C 
ENDROOT
BRANCH   1  11
ATOM     11  O   UNL     1       2.157   7.676  20.575  0.00  0.00    +0.000 OA
BRANCH  11  14
ATOM     12  C   UNL     1      -0.379   9.862  19.241  0.00  0.00    +0.000 C 
ATOM     13  O   UNL     1       0.839   9.135  19.345  0.00  0.00    +0.000 OA
ATOM     14  C   UNL     1       1.062   8.585  20.632  0.00  0.00    +0.000 C 
ATOM     15  C   UNL     1       1.167   9.699  21.703  0.00  0.00    +0.000 C 
ATOM     16  C   UNL     1      -0.060  10.625  21.606  0.00  0.00    +0.000 C 
ATOM     17  C   UNL     1      -0.322  11.096  20.159  0.00  0.00    +0.000 C 
BRANCH  15  18
ATOM     18  O   UNL     1       1.256   9.124  23.016  0.00  0.00    +0.000 OA
ATOM     19  H   UNL     1       0.661   8.350  23.047  0.00  0.00    +0.000 HD
ENDBRANCH  15  18
BRANCH  16  20
ATOM     20  O   UNL     1       0.104  11.728  22.510  0.00  0.00    +0.000 OA
ATOM     21  H   UNL     1      -0.765  12.147  22.652  0.00  0.00    +0.000 HD
ENDBRANCH  16  20
BRANCH  17  22
ATOM     22  O   UNL     1      -1.529  11.859  20.102  0.00  0.00    +0.000 OA
ATOM     23  H   UNL     1      -2.014  11.619  19.294  0.00  0.00    +0.000 HD
ENDBRANCH  17  22
BRANCH  12  24
ATOM     24  C   UNL     1      -0.547  10.186  17.753  0.00  0.00    +0.000 C 
BRANCH  24  25
ATOM     25  O   UNL     1      -1.786  10.830  17.440  0.00  0.00    +0.000 OA
BRANCH  25  27
ATOM     26  C   UNL     1      -2.873  10.107  15.501  0.00  0.00    +0.000 C 
ATOM     27  C   UNL     1      -2.772  10.003  16.993  0.00  0.00    +0.000 C 
ATOM     28  O   UNL     1      -3.493   9.315  17.693  0.00  0.00    +0.000 OA
ENDBRANCH  25  27
ENDBRANCH  24  25
ENDBRANCH  12  24
ENDBRANCH  11  14
ENDBRANCH   1  11
BRANCH   7  29
ATOM     29  C   UNL     1       1.500   4.687  17.436  0.00  0.00    +0.000 C 
BRANCH  29  30
ATOM     30  O   UNL     1       1.383   3.258  17.331  0.00  0.00    +0.000 OA
BRANCH  30  31
ATOM     31  C   UNL     1       1.157   2.587  18.488  0.00  0.00    +0.000 C 
ATOM     32  C   UNL     1       2.303   1.668  18.810  0.00  0.00    +0.000 C 
ATOM     33  O   UNL     1       0.174   2.712  19.196  0.00  0.00    +0.000 OA
ENDBRANCH  30  31
ENDBRANCH  29  30
ENDBRANCH   7  29
BRANCH  10  34
ATOM     34  O   UNL     1       6.369   4.416  18.889  0.00  0.00    +0.000 OA
BRANCH  34  35
ATOM     35  C   UNL     1       7.462   4.905  18.221  0.00  0.00    +0.000 C 
ATOM     36  C   UNL     1       7.832   6.285  18.673  0.00  0.00    +0.000 C 
ATOM     37  O   UNL     1       8.037   4.343  17.296  0.00  0.00    +0.000 OA
ENDBRANCH  34  35
ENDBRANCH  10  34
TORSDOF 13
ENDMDL
MODEL 5
REMARK VINA RESULT:      -6.8      2.457      9.131
REMARK  Name = 
REMARK  16 active torsions:
REMARK  status: ('A' for Active; 'I' for Inactive)
REMARK    1  A    between atoms: C_1  and  C_2
REMARK    2  A    between atoms: C_2  and  O_4
REMARK    3  A    between atoms: O_4  and  C_5
REMARK    4  A    between atoms: C_5  and  C_6
REMARK    5  A    between atoms: C_8  and  O_9
REMARK    6  A    between atoms: O_9  and  C_10
REMARK    7  A    between atoms: C_16  and  C_17
REMARK    8  A    between atoms: C_17  and  O_18
REMARK    9  A    between atoms: O_18  and  C_19
REMARK   10  A    between atoms: C_19  and  C_20
REMARK   11  A    between atoms: C_24  and  O_25
REMARK   12  A    between atoms: O_25  and  C_26
REMARK   13  A    between atoms: C_26  and  C_27
REMARK   14  A    between atoms: C_29  and  O_30
REMARK   15  A    between atoms: C_31  and  O_32
REMARK   16  A    between atoms: C_33  and  O_34
REMARK                            x       y       z     vdW  Elec       q    Type
REMARK                         _______ _______ _______ _____ _____    ______ ____
ROOT
ATOM      1  C   UNL     1       2.316   6.394  18.621  0.00  0.00    +0.000 C 
ATOM      2  O   UNL     1       1.981   5.673  19.815  0.00  0.00    +0.000 OA
ATOM      3  C   UNL     1       2.956   4.965  20.456  0.00  0.00    +0.000 C 
ATOM      4  C   UNL     1       4.245   4.911  20.112  0.00  0.00    +0.000 C 
ATOM      5  C   UNL     1       4.759   5.708  18.943  0.00  0.00    +0.000 C 
ATOM      6  C   UNL     1       3.594   5.931  17.932  0.00  0.00    +0.000 C 
ATOM      7  C   UNL     1       3.536   4.601  17.178  0.00  0.00    +0.000 C 
ATOM      8  O   UNL     1       4.445   4.509  16.052  0.00  0.00    +0.000 OA
ATOM      9  C   UNL     1       4.929   4.002  17.285  0.00  0.00    +0.000 C 
ATOM     10  C   UNL     1       5.784   5.005  18.021  0.00  0.00    +0.000 C 
ENDROOT
BRANCH   1  11
ATOM     11  O   UNL     1       2.462   7.802  18.832  0.00  0.00    +0.000 OA
BRANCH  11  14
ATOM     12  C   UNL     1      -0.228  10.184  19.116  0.00  0.00    +0.000 C 
ATOM     13  O   UNL     1       1.009   9.605  18.716  0.00  0.00    +0.000 OA
ATOM     14  C   UNL     1       1.359   8.450  19.459  0.00  0.00    +0.000 C 
ATOM     15  C   UNL     1       1.539   8.786  20.959  0.00  0.00    +0.000 C 
ATOM     16  C   UNL     1       0.291   9.524  21.477  0.00  0.00    +0.000 C 
ATOM     17  C   UNL     1      -0.112  10.700  20.561  0.00  0.00    +0.000 C 
BRANCH  15  18
ATOM     18  O   UNL     1       1.759   7.587  21.718  0.00  0.00    +0.000 OA
ATOM     19  H   UNL     1       1.313   7.690  22.581  0.00  0.00    +0.000 HD
ENDBRANCH  15  18
BRANCH  16  20
ATOM     20  O   UNL     1       0.514   9.948  22.830  0.00  0.00    +0.000 OA
ATOM     21  H   UNL     1       1.059  10.757  22.817  0.00  0.00    +0.000 HD
ENDBRANCH  16  20
BRANCH  17  22
ATOM     22  O   UNL     1      -1.333  11.283  21.018  0.00  0.00    +0.000 OA
ATOM     23  H   UNL     1      -1.937  10.572  21.293  0.00  0.00    +0.000 HD
ENDBRANCH  17  22
BRANCH  12  24
ATOM     24  C   UNL     1      -0.537  11.268  18.077  0.00  0.00    +0.000 C 
BRANCH  24  25
ATOM     25  O   UNL     1      -1.694  10.989  17.282  0.00  0.00    +0.000 OA
BRANCH  25  27
ATOM     26  C   UNL     1      -3.629   9.716  17.600  0.00  0.00    +0.000 C 
ATOM     27  C   UNL     1      -2.873  10.958  17.965  0.00  0.00    +0.000 C 
ATOM     28  O   UNL     1      -3.276  11.822  18.723  0.00  0.00    +0.000 OA
ENDBRANCH  25  27
ENDBRANCH  24  25
ENDBRANCH  12  24
ENDBRANCH  11  14
ENDBRANCH   1  11
BRANCH   7  29
ATOM     29  C   UNL     1       2.254   3.920  16.808  0.00  0.00    +0.000 C 
BRANCH  29  30
ATOM     30  O   UNL     1       2.239   2.514  17.105  0.00  0.00    +0.000 OA
BRANCH  30  31
ATOM     31  C   UNL     1       2.079   2.177  18.410  0.00  0.00    +0.000 C 
ATOM     32  C   UNL     1       0.684   2.488  18.879  0.00  0.00    +0.000 C 
ATOM     33  O   UNL     1       2.931   1.673  19.118  0.00  0.00    +0.000 OA
ENDBRANCH  30  31
ENDBRANCH  29  30
ENDBRANCH   7  29
BRANCH  10  34
ATOM     34  O   UNL     1       6.962   4.497  18.650  0.00  0.00    +0.000 OA
BRANCH  34  35
ATOM     35  C   UNL     1       7.617   5.469  19.362  0.00  0.00    +0.000 C 
ATOM     36  C   UNL     1       7.969   6.653  18.513  0.00  0.00    +0.000 C 
ATOM     37  O   UNL     1       7.968   5.374  20.533  0.00  0.00    +0.000 OA
ENDBRANCH  34  35
ENDBRANCH  10  34
TORSDOF 13
ENDMDL
MODEL 6
REMARK VINA RESULT:      -6.7      1.371      1.586
REMARK  Name = 
REMARK  16 active torsions:
REMARK  status: ('A' for Active; 'I' for Inactive)
REMARK    1  A    between atoms: C_1  and  C_2
REMARK    2  A    between atoms: C_2  and  O_4
REMARK    3  A    between atoms: O_4  and  C_5
REMARK    4  A    between atoms: C_5  and  C_6
REMARK    5  A    between atoms: C_8  and  O_9
REMARK    6  A    between atoms: O_9  and  C_10
REMARK    7  A    between atoms: C_16  and  C_17
REMARK    8  A    between atoms: C_17  and  O_18
REMARK    9  A    between atoms: O_18  and  C_19
REMARK   10  A    between atoms: C_19  and  C_20
REMARK   11  A    between atoms: C_24  and  O_25
REMARK   12  A    between atoms: O_25  and  C_26
REMARK   13  A    between atoms: C_26  and  C_27
REMARK   14  A    between atoms: C_29  and  O_30
REMARK   15  A    between atoms: C_31  and  O_32
REMARK   16  A    between atoms: C_33  and  O_34
REMARK                            x       y       z     vdW  Elec       q    Type
REMARK                         _______ _______ _______ _____ _____    ______ ____
ROOT
ATOM      1  C   UNL     1       1.759   9.380  19.268  0.00  0.00    +0.000 C 
ATOM      2  O   UNL     1       1.432   9.100  20.637  0.00  0.00    +0.000 OA
ATOM      3  C   UNL     1       0.161   9.335  21.075  0.00  0.00    +0.000 C 
ATOM      4  C   UNL     1      -0.862   9.762  20.331  0.00  0.00    +0.000 C 
ATOM      5  C   UNL     1      -0.689   9.991  18.853  0.00  0.00    +0.000 C 
ATOM      6  C   UNL     1       0.803  10.336  18.565  0.00  0.00    +0.000 C 
ATOM      7  C   UNL     1       0.892  11.815  18.946  0.00  0.00    +0.000 C 
ATOM      8  O   UNL     1       0.516  12.731  17.887  0.00  0.00    +0.000 OA
ATOM      9  C   UNL     1      -0.515  12.369  18.791  0.00  0.00    +0.000 C 
ATOM     10  C   UNL     1      -1.374  11.246  18.261  0.00  0.00    +0.000 C 
ENDROOT
BRANCH   1  11
ATOM     11  O   UNL     1       1.826   8.206  18.450  0.00  0.00    +0.000 OA
BRANCH  11  14
ATOM     12  C   UNL     1       4.881   6.396  17.841  0.00  0.00    +0.000 C 
ATOM     13  O   UNL     1       3.662   7.084  17.588  0.00  0.00    +0.000 OA
ATOM     14  C   UNL     1       2.885   7.303  18.753  0.00  0.00    +0.000 C 
ATOM     15  C   UNL     1       2.461   5.961  19.399  0.00  0.00    +0.000 C 
ATOM     16  C   UNL     1       3.704   5.078  19.617  0.00  0.00    +0.000 C 
ATOM     17  C   UNL     1       4.575   4.975  18.347  0.00  0.00    +0.000 C 
BRANCH  15  18
ATOM     18  O   UNL     1       1.792   6.197  20.648  0.00  0.00    +0.000 OA
ATOM     19  H   UNL     1       1.878   5.390  21.193  0.00  0.00    +0.000 HD
ENDBRANCH  15  18
BRANCH  16  20
ATOM     20  O   UNL     1       3.294   3.788  20.095  0.00  0.00    +0.000 OA
ATOM     21  H   UNL     1       3.717   3.627  20.958  0.00  0.00    +0.000 HD
ENDBRANCH  16  20
BRANCH  17  22
ATOM     22  O   UNL     1       5.768   4.240  18.627  0.00  0.00    +0.000 OA
ATOM     23  H   UNL     1       6.351   4.279  17.849  0.00  0.00    +0.000 HD
ENDBRANCH  17  22
BRANCH  12  24
ATOM     24  C   UNL     1       5.670   6.445  16.527  0.00  0.00    +0.000 C 
BRANCH  24  25
ATOM     25  O   UNL     1       7.085   6.321  16.701  0.00  0.00    +0.000 OA
BRANCH  25  27
ATOM     26  C   UNL     1       7.753   8.394  17.551  0.00  0.00    +0.000 C 
ATOM     27  C   UNL     1       7.587   6.927  17.813  0.00  0.00    +0.000 C 
ATOM     28  O   UNL     1       7.897   6.365  18.849  0.00  0.00    +0.000 OA
ENDBRANCH  25  27
ENDBRANCH  24  25
ENDBRANCH  12  24
ENDBRANCH  11  14
ENDBRANCH   1  11
BRANCH   7  29
ATOM     29  C   UNL     1       2.050  12.404  19.693  0.00  0.00    +0.000 C 
BRANCH  29  30
ATOM     30  O   UNL     1       1.773  12.661  21.080  0.00  0.00    +0.000 OA
BRANCH  30  31
ATOM     31  C   UNL     1       1.568  13.958  21.421  0.00  0.00    +0.000 C 
ATOM     32  C   UNL     1       2.316  14.883  20.500  0.00  0.00    +0.000 C 
ATOM     33  O   UNL     1       0.862  14.344  22.335  0.00  0.00    +0.000 OA
ENDBRANCH  30  31
ENDBRANCH  29  30
ENDBRANCH   7  29
BRANCH  10  34
ATOM     34  O   UNL     1      -2.782  11.366  18.478  0.00  0.00    +0.000 OA
BRANCH  34  35
ATOM     35  C   UNL     1      -3.476  11.395  17.296  0.00  0.00    +0.000 C 
ATOM     36  C   UNL     1      -2.665  10.872  16.149  0.00  0.00    +0.000 C 
ATOM     37  O   UNL     1      -4.596  11.869  17.145  0.00  0.00    +0.000 OA
ENDBRANCH  34  35
ENDBRANCH  10  34
TORSDOF 13
ENDMDL
MODEL 7
REMARK VINA RESULT:      -6.7      2.180      9.032
REMARK  Name = 
REMARK  16 active torsions:
REMARK  status: ('A' for Active; 'I' for Inactive)
REMARK    1  A    between atoms: C_1  and  C_2
REMARK    2  A    between atoms: C_2  and  O_4
REMARK    3  A    between atoms: O_4  and  C_5
REMARK    4  A    between atoms: C_5  and  C_6
REMARK    5  A    between atoms: C_8  and  O_9
REMARK    6  A    between atoms: O_9  and  C_10
REMARK    7  A    between atoms: C_16  and  C_17
REMARK    8  A    between atoms: C_17  and  O_18
REMARK    9  A    between atoms: O_18  and  C_19
REMARK   10  A    between atoms: C_19  and  C_20
REMARK   11  A    between atoms: C_24  and  O_25
REMARK   12  A    between atoms: O_25  and  C_26
REMARK   13  A    between atoms: C_26  and  C_27
REMARK   14  A    between atoms: C_29  and  O_30
REMARK   15  A    between atoms: C_31  and  O_32
REMARK   16  A    between atoms: C_33  and  O_34
REMARK                            x       y       z     vdW  Elec       q    Type
REMARK                         _______ _______ _______ _____ _____    ______ ____
ROOT
ATOM      1  C   UNL     1       3.006   5.882  18.855  0.00  0.00    +0.000 C 
ATOM      2  O   UNL     1       3.890   5.629  19.957  0.00  0.00    +0.000 OA
ATOM      3  C   UNL     1       5.119   5.091  19.709  0.00  0.00    +0.000 C 
ATOM      4  C   UNL     1       5.629   4.814  18.507  0.00  0.00    +0.000 C 
ATOM      5  C   UNL     1       4.855   5.130  17.255  0.00  0.00    +0.000 C 
ATOM      6  C   UNL     1       3.331   5.106  17.584  0.00  0.00    +0.000 C 
ATOM      7  C   UNL     1       3.003   3.612  17.577  0.00  0.00    +0.000 C 
ATOM      8  O   UNL     1       2.689   3.073  16.268  0.00  0.00    +0.000 OA
ATOM      9  C   UNL     1       4.043   2.962  16.679  0.00  0.00    +0.000 C 
ATOM     10  C   UNL     1       4.902   4.074  16.125  0.00  0.00    +0.000 C 
ENDROOT
BRANCH   1  11
ATOM     11  O   UNL     1       2.950   7.262  18.479  0.00  0.00    +0.000 OA
BRANCH  11  14
ATOM     12  C   UNL     1       0.775  10.106  18.885  0.00  0.00    +0.000 C 
ATOM     13  O   UNL     1       1.930   9.342  18.559  0.00  0.00    +0.000 OA
ATOM     14  C   UNL     1       1.890   8.017  19.059  0.00  0.00    +0.000 C 
ATOM     15  C   UNL     1       1.824   8.006  20.606  0.00  0.00    +0.000 C 
ATOM     16  C   UNL     1       0.665   8.902  21.079  0.00  0.00    +0.000 C 
ATOM     17  C   UNL     1       0.693  10.294  20.410  0.00  0.00    +0.000 C 
BRANCH  15  18
ATOM     18  O   UNL     1       1.648   6.666  21.090  0.00  0.00    +0.000 OA
ATOM     19  H   UNL     1       0.775   6.615  21.527  0.00  0.00    +0.000 HD
ENDBRANCH  15  18
BRANCH  16  20
ATOM     20  O   UNL     1       0.688   8.994  22.512  0.00  0.00    +0.000 OA
ATOM     21  H   UNL     1       0.934   9.903  22.762  0.00  0.00    +0.000 HD
ENDBRANCH  16  20
BRANCH  17  22
ATOM     22  O   UNL     1      -0.458  11.047  20.794  0.00  0.00    +0.000 OA
ATOM     23  H   UNL     1      -0.638  11.716  20.111  0.00  0.00    +0.000 HD
ENDBRANCH  17  22
BRANCH  12  24
ATOM     24  C   UNL     1       0.899  11.412  18.091  0.00  0.00    +0.000 C 
BRANCH  24  25
ATOM     25  O   UNL     1       1.432  12.500  18.852  0.00  0.00    +0.000 OA
BRANCH  25  27
ATOM     26  C   UNL     1       1.534  14.778  19.366  0.00  0.00    +0.000 C 
ATOM     27  C   UNL     1       0.728  13.664  18.770  0.00  0.00    +0.000 C 
ATOM     28  O   UNL     1      -0.399  13.782  18.322  0.00  0.00    +0.000 OA
ENDBRANCH  25  27
ENDBRANCH  24  25
ENDBRANCH  12  24
ENDBRANCH  11  14
ENDBRANCH   1  11
BRANCH   7  29
ATOM     29  C   UNL     1       2.104   2.962  18.584  0.00  0.00    +0.000 C 
BRANCH  29  30
ATOM     30  O   UNL     1       2.805   2.378  19.694  0.00  0.00    +0.000 OA
BRANCH  30  31
ATOM     31  C   UNL     1       2.328   2.675  20.929  0.00  0.00    +0.000 C 
ATOM     32  C   UNL     1       0.961   3.296  20.844  0.00  0.00    +0.000 C 
ATOM     33  O   UNL     1       2.907   2.460  21.979  0.00  0.00    +0.000 OA
ENDBRANCH  30  31
ENDBRANCH  29  30
ENDBRANCH   7  29
BRANCH  10  34
ATOM     34  O   UNL     1       6.200   3.701  15.656  0.00  0.00    +0.000 OA
BRANCH  34  35
ATOM     35  C   UNL     1       6.565   4.423  14.550  0.00  0.00    +0.000 C 
ATOM     36  C   UNL     1       5.982   3.863  13.288  0.00  0.00    +0.000 C 
ATOM     37  O   UNL     1       7.348   5.367  14.547  0.00  0.00    +0.000 OA
ENDBRANCH  34  35
ENDBRANCH  10  34
TORSDOF 13
ENDMDL
MODEL 8
REMARK VINA RESULT:      -6.7      2.643      9.173
REMARK  Name = 
REMARK  16 active torsions:
REMARK  status: ('A' for Active; 'I' for Inactive)
REMARK    1  A    between atoms: C_1  and  C_2
REMARK    2  A    between atoms: C_2  and  O_4
REMARK    3  A    between atoms: O_4  and  C_5
REMARK    4  A    between atoms: C_5  and  C_6
REMARK    5  A    between atoms: C_8  and  O_9
REMARK    6  A    between atoms: O_9  and  C_10
REMARK    7  A    between atoms: C_16  and  C_17
REMARK    8  A    between atoms: C_17  and  O_18
REMARK    9  A    between atoms: O_18  and  C_19
REMARK   10  A    between atoms: C_19  and  C_20
REMARK   11  A    between atoms: C_24  and  O_25
REMARK   12  A    between atoms: O_25  and  C_26
REMARK   13  A    between atoms: C_26  and  C_27
REMARK   14  A    between atoms: C_29  and  O_30
REMARK   15  A    between atoms: C_31  and  O_32
REMARK   16  A    between atoms: C_33  and  O_34
REMARK                            x       y       z     vdW  Elec       q    Type
REMARK                         _______ _______ _______ _____ _____    ______ ____
ROOT
ATOM      1  C   UNL     1       1.959   6.485  18.895  0.00  0.00    +0.000 C 
ATOM      2  O   UNL     1       1.573   5.797  20.094  0.00  0.00    +0.000 OA
ATOM      3  C   UNL     1       2.504   5.052  20.758  0.00  0.00    +0.000 C 
ATOM      4  C   UNL     1       3.793   4.932  20.433  0.00  0.00    +0.000 C 
ATOM      5  C   UNL     1       4.361   5.688  19.262  0.00  0.00    +0.000 C 
ATOM      6  C   UNL     1       3.222   5.953  18.231  0.00  0.00    +0.000 C 
ATOM      7  C   UNL     1       3.111   4.617  17.493  0.00  0.00    +0.000 C 
ATOM      8  O   UNL     1       4.030   4.467  16.382  0.00  0.00    +0.000 OA
ATOM      9  C   UNL     1       4.472   3.953  17.628  0.00  0.00    +0.000 C 
ATOM     10  C   UNL     1       5.364   4.924  18.365  0.00  0.00    +0.000 C 
ENDROOT
BRANCH   1  11
ATOM     11  O   UNL     1       2.170   7.888  19.091  0.00  0.00    +0.000 OA
BRANCH  11  14
ATOM     12  C   UNL     1      -0.639  10.146  19.062  0.00  0.00    +0.000 C 
ATOM     13  O   UNL     1       0.603   9.552  18.702  0.00  0.00    +0.000 OA
ATOM     14  C   UNL     1       1.072   8.605  19.647  0.00  0.00    +0.000 C 
ATOM     15  C   UNL     1       1.328   9.270  21.021  0.00  0.00    +0.000 C 
ATOM     16  C   UNL     1       0.072  10.046  21.462  0.00  0.00    +0.000 C 
ATOM     17  C   UNL     1      -0.462  10.972  20.348  0.00  0.00    +0.000 C 
BRANCH  15  18
ATOM     18  O   UNL     1       1.671   8.278  22.001  0.00  0.00    +0.000 OA
ATOM     19  H   UNL     1       0.882   7.725  22.159  0.00  0.00    +0.000 HD
ENDBRANCH  15  18
BRANCH  16  20
ATOM     20  O   UNL     1       0.357  10.766  22.670  0.00  0.00    +0.000 OA
ATOM     21  H   UNL     1      -0.410  11.328  22.886  0.00  0.00    +0.000 HD
ENDBRANCH  16  20
BRANCH  17  22
ATOM     22  O   UNL     1      -1.685  11.583  20.761  0.00  0.00    +0.000 OA
ATOM     23  H   UNL     1      -2.155  11.910  19.974  0.00  0.00    +0.000 HD
ENDBRANCH  17  22
BRANCH  12  24
ATOM     24  C   UNL     1      -1.083  10.959  17.841  0.00  0.00    +0.000 C 
BRANCH  24  25
ATOM     25  O   UNL     1      -1.817  10.198  16.878  0.00  0.00    +0.000 OA
BRANCH  25  27
ATOM     26  C   UNL     1      -3.960  10.976  17.396  0.00  0.00    +0.000 C 
ATOM     27  C   UNL     1      -2.901  10.828  16.345  0.00  0.00    +0.000 C 
ATOM     28  O   UNL     1      -3.018  11.182  15.185  0.00  0.00    +0.000 OA
ENDBRANCH  25  27
ENDBRANCH  24  25
ENDBRANCH  12  24
ENDBRANCH  11  14
ENDBRANCH   1  11
BRANCH   7  29
ATOM     29  C   UNL     1       1.803   3.993  17.113  0.00  0.00    +0.000 C 
BRANCH  29  30
ATOM     30  O   UNL     1       1.702   2.602  17.462  0.00  0.00    +0.000 OA
BRANCH  30  31
ATOM     31  C   UNL     1       1.220   2.327  18.700  0.00  0.00    +0.000 C 
ATOM     32  C   UNL     1       2.263   1.649  19.546  0.00  0.00    +0.000 C 
ATOM     33  O   UNL     1       0.103   2.601  19.099  0.00  0.00    +0.000 OA
ENDBRANCH  30  31
ENDBRANCH  29  30
ENDBRANCH   7  29
BRANCH  10  34
ATOM     34  O   UNL     1       6.508   4.368  19.017  0.00  0.00    +0.000 OA
BRANCH  34  35
ATOM     35  C   UNL     1       7.677   4.804  18.450  0.00  0.00    +0.000 C 
ATOM     36  C   UNL     1       7.960   6.241  18.767  0.00  0.00    +0.000 C 
ATOM     37  O   UNL     1       8.385   4.148  17.693  0.00  0.00    +0.000 OA
ENDBRANCH  34  35
ENDBRANCH  10  34
TORSDOF 13
ENDMDL
MODEL 9
REMARK VINA RESULT:      -6.5      0.982      1.363
REMARK  Name = 
REMARK  16 active torsions:
REMARK  status: ('A' for Active; 'I' for Inactive)
REMARK    1  A    between atoms: C_1  and  C_2
REMARK    2  A    between atoms: C_2  and  O_4
REMARK    3  A    between atoms: O_4  and  C_5
REMARK    4  A    between atoms: C_5  and  C_6
REMARK    5  A    between atoms: C_8  and  O_9
REMARK    6  A    between atoms: O_9  and  C_10
REMARK    7  A    between atoms: C_16  and  C_17
REMARK    8  A    between atoms: C_17  and  O_18
REMARK    9  A    between atoms: O_18  and  C_19
REMARK   10  A    between atoms: C_19  and  C_20
REMARK   11  A    between atoms: C_24  and  O_25
REMARK   12  A    between atoms: O_25  and  C_26
REMARK   13  A    between atoms: C_26  and  C_27
REMARK   14  A    between atoms: C_29  and  O_30
REMARK   15  A    between atoms: C_31  and  O_32
REMARK   16  A    between atoms: C_33  and  O_34
REMARK                            x       y       z     vdW  Elec       q    Type
REMARK                         _______ _______ _______ _____ _____    ______ ____
ROOT
ATOM      1  C   UNL     1       1.625   9.509  19.298  0.00  0.00    +0.000 C 
ATOM      2  O   UNL     1       1.299   9.194  20.660  0.00  0.00    +0.000 OA
ATOM      3  C   UNL     1       0.031   9.427  21.107  0.00  0.00    +0.000 C 
ATOM      4  C   UNL     1      -0.990   9.882  20.377  0.00  0.00    +0.000 C 
ATOM      5  C   UNL     1      -0.820  10.150  18.906  0.00  0.00    +0.000 C 
ATOM      6  C   UNL     1       0.675  10.491  18.624  0.00  0.00    +0.000 C 
ATOM      7  C   UNL     1       0.776  11.958  19.044  0.00  0.00    +0.000 C 
ATOM      8  O   UNL     1       0.405  12.905  18.011  0.00  0.00    +0.000 OA
ATOM      9  C   UNL     1      -0.627  12.527  18.908  0.00  0.00    +0.000 C 
ATOM     10  C   UNL     1      -1.496  11.426  18.350  0.00  0.00    +0.000 C 
ENDROOT
BRANCH   1  11
ATOM     11  O   UNL     1       1.680   8.357  18.449  0.00  0.00    +0.000 OA
BRANCH  11  14
ATOM     12  C   UNL     1       4.662   6.452  17.766  0.00  0.00    +0.000 C 
ATOM     13  O   UNL     1       3.453   7.168  17.544  0.00  0.00    +0.000 OA
ATOM     14  C   UNL     1       2.726   7.432  18.732  0.00  0.00    +0.000 C 
ATOM     15  C   UNL     1       2.293   6.116  19.423  0.00  0.00    +0.000 C 
ATOM     16  C   UNL     1       3.519   5.205  19.613  0.00  0.00    +0.000 C 
ATOM     17  C   UNL     1       4.339   5.051  18.314  0.00  0.00    +0.000 C 
BRANCH  15  18
ATOM     18  O   UNL     1       1.677   6.396  20.690  0.00  0.00    +0.000 OA
ATOM     19  H   UNL     1       1.768   5.601  21.251  0.00  0.00    +0.000 HD
ENDBRANCH  15  18
BRANCH  16  20
ATOM     20  O   UNL     1       3.094   3.936  20.134  0.00  0.00    +0.000 OA
ATOM     21  H   UNL     1       2.895   4.040  21.083  0.00  0.00    +0.000 HD
ENDBRANCH  16  20
BRANCH  17  22
ATOM     22  O   UNL     1       5.522   4.291  18.566  0.00  0.00    +0.000 OA
ATOM     23  H   UNL     1       5.760   4.384  19.504  0.00  0.00    +0.000 HD
ENDBRANCH  17  22
BRANCH  12  24
ATOM     24  C   UNL     1       5.402   6.454  16.423  0.00  0.00    +0.000 C 
BRANCH  24  25
ATOM     25  O   UNL     1       6.822   6.334  16.548  0.00  0.00    +0.000 OA
BRANCH  25  27
ATOM     26  C   UNL     1       7.935   6.574  18.590  0.00  0.00    +0.000 C 
ATOM     27  C   UNL     1       7.412   7.255  17.362  0.00  0.00    +0.000 C 
ATOM     28  O   UNL     1       7.471   8.453  17.151  0.00  0.00    +0.000 OA
ENDBRANCH  25  27
ENDBRANCH  24  25
ENDBRANCH  12  24
ENDBRANCH  11  14
ENDBRANCH   1  11
BRANCH   7  29
ATOM     29  C   UNL     1       1.940  12.518  19.804  0.00  0.00    +0.000 C 
BRANCH  29  30
ATOM     30  O   UNL     1       2.712  13.474  19.059  0.00  0.00    +0.000 OA
BRANCH  30  31
ATOM     31  C   UNL     1       3.307  14.458  19.779  0.00  0.00    +0.000 C 
ATOM     32  C   UNL     1       3.292  14.136  21.248  0.00  0.00    +0.000 C 
ATOM     33  O   UNL     1       3.808  15.467  19.315  0.00  0.00    +0.000 OA
ENDBRANCH  30  31
ENDBRANCH  29  30
ENDBRANCH   7  29
BRANCH  10  34
ATOM     34  O   UNL     1      -2.902  11.551  18.574  0.00  0.00    +0.000 OA
BRANCH  34  35
ATOM     35  C   UNL     1      -3.608  11.496  17.400  0.00  0.00    +0.000 C 
ATOM     36  C   UNL     1      -2.800  10.919  16.278  0.00  0.00    +0.000 C 
ATOM     37  O   UNL     1      -4.738  11.942  17.232  0.00  0.00    +0.000 OA
ENDBRANCH  34  35
ENDBRANCH  10  34
TORSDOF 13
ENDMDL
