MODEL 1
REMARK VINA RESULT:      -8.3      0.000      0.000
REMARK  Name = 
REMARK  10 active torsions:
REMARK  status: ('A' for Active; 'I' for Inactive)
REMARK    1  A    between atoms: N_1  and  S_2
REMARK    2  A    between atoms: S_2  and  O_5
REMARK    3  A    between atoms: O_5  and  C_6
REMARK    4  A    between atoms: C_14  and  C_16
REMARK    5  A    between atoms: C_20  and  N_21
REMARK    6  A    between atoms: N_21  and  C_22
REMARK    7  A    between atoms: N_21  and  C_25
REMARK    8  A    between atoms: C_22  and  C_23
REMARK    9  A    between atoms: C_23  and  O_24
REMARK   10  A    between atoms: C_25  and  C_26
REMARK                            x       y       z     vdW  Elec       q    Type
REMARK                         _______ _______ _______ _____ _____    ______ ____
ROOT
ATOM      1  C   UNL     1      -0.953  11.058  20.447  0.00  0.00    +0.000 A 
ATOM      2  C   UNL     1      -0.628  11.679  19.238  0.00  0.00    +0.000 A 
ATOM      3  C   UNL     1       0.424  11.198  18.460  0.00  0.00    +0.000 A 
ATOM      4  C   UNL     1       1.134  10.074  18.882  0.00  0.00    +0.000 A 
ATOM      5  C   UNL     1       0.816   9.442  20.094  0.00  0.00    +0.000 A 
ATOM      6  C   UNL     1      -0.232   9.940  20.873  0.00  0.00    +0.000 A 
ATOM      7  C   UNL     1       1.630   8.253  20.556  0.00  0.00    +0.000 C 
ATOM      8  N   UNL     1       2.101   7.385  19.467  0.00  0.00    +0.000 N 
ATOM      9  C   UNL     1       2.299   6.038  19.805  0.00  0.00    +0.000 C 
ATOM     10  O   UNL     1       2.156   5.619  20.955  0.00  0.00    +0.000 OA
ATOM     11  C   UNL     1       2.050   7.946  18.100  0.00  0.00    +0.000 C 
ATOM     12  C   UNL     1       2.227   9.464  18.061  0.00  0.00    +0.000 C 
ENDROOT
BRANCH   9  13
ATOM     13  C   UNL     1       2.655   5.029  18.770  0.00  0.00    +0.000 A 
ATOM     14  C   UNL     1       1.801   3.940  18.582  0.00  0.00    +0.000 A 
ATOM     15  C   UNL     1       2.096   3.006  17.596  0.00  0.00    +0.000 A 
ATOM     16  C   UNL     1       3.208   3.190  16.760  0.00  0.00    +0.000 A 
ATOM     17  C   UNL     1       4.091   4.268  16.928  0.00  0.00    +0.000 A 
ATOM     18  C   UNL     1       3.827   5.121  18.012  0.00  0.00    +0.000 A 
BRANCH  17  19
ATOM     19  N   UNL     1       5.156   4.567  16.056  0.00  0.00    +0.000 N 
BRANCH  19  20
ATOM     20  C   UNL     1       5.053   4.166  14.631  0.00  0.00    +0.000 C 
BRANCH  20  21
ATOM     21  C   UNL     1       6.416   4.080  13.922  0.00  0.00    +0.000 C 
BRANCH  21  22
ATOM     22  O   UNL     1       6.393   3.163  12.830  0.00  0.00    +0.000 OA
ATOM     23  H   UNL     1       7.274   2.739  12.840  0.00  0.00    +0.000 HD
ENDBRANCH  21  22
ENDBRANCH  20  21
ENDBRANCH  19  20
BRANCH  19  24
ATOM     24  C   UNL     1       6.509   4.374  16.640  0.00  0.00    +0.000 C 
BRANCH  24  25
ATOM     25  C   UNL     1       7.079   5.585  17.368  0.00  0.00    +0.000 A 
ATOM     26  C   UNL     1       7.686   5.389  18.627  0.00  0.00    +0.000 A 
ATOM     27  C   UNL     1       8.303   6.441  19.306  0.00  0.00    +0.000 A 
ATOM     28  C   UNL     1       8.336   7.711  18.746  0.00  0.00    +0.000 A 
ATOM     29  C   UNL     1       7.758   7.929  17.501  0.00  0.00    +0.000 A 
ATOM     30  C   UNL     1       7.143   6.873  16.814  0.00  0.00    +0.000 A 
ENDBRANCH  24  25
ENDBRANCH  19  24
ENDBRANCH  17  19
ENDBRANCH   9  13
BRANCH   1  31
ATOM     31  O   UNL     1      -2.025  11.586  21.121  0.00  0.00    +0.000 OA
BRANCH  31  32
ATOM     32  S   UNL     1      -1.827  12.456  22.482  0.00  0.00    +0.000 S 
ATOM     33  O   UNL     1      -2.013  13.863  22.216  0.00  0.00    +0.000 OA
ATOM     34  O   UNL     1      -0.685  11.958  23.217  0.00  0.00    +0.000 OA
BRANCH  32  35
ATOM     35  N   UNL     1      -3.131  11.989  23.435  0.00  0.00    +0.000 NA
ATOM     36  H   UNL     1      -2.866  11.138  23.931  0.00  0.00    +0.000 HD
ATOM     37  H   UNL     1      -3.936  11.830  22.828  0.00  0.00    +0.000 HD
ENDBRANCH  32  35
ENDBRANCH  31  32
ENDBRANCH   1  31
TORSDOF 10
ENDMDL
MODEL 2
REMARK VINA RESULT:      -8.1      1.555      3.015
REMARK  Name = 
REMARK  10 active torsions:
REMARK  status: ('A' for Active; 'I' for Inactive)
REMARK    1  A    between atoms: N_1  and  S_2
REMARK    2  A    between atoms: S_2  and  O_5
REMARK    3  A    between atoms: O_5  and  C_6
REMARK    4  A    between atoms: C_14  and  C_16
REMARK    5  A    between atoms: C_20  and  N_21
REMARK    6  A    between atoms: N_21  and  C_22
REMARK    7  A    between atoms: N_21  and  C_25
REMARK    8  A    between atoms: C_22  and  C_23
REMARK    9  A    between atoms: C_23  and  O_24
REMARK   10  A    between atoms: C_25  and  C_26
REMARK                            x       y       z     vdW  Elec       q    Type
REMARK                         _______ _______ _______ _____ _____    ______ ____
ROOT
ATOM      1  C   UNL     1      -1.019  11.448  20.349  0.00  0.00    +0.000 A 
ATOM      2  C   UNL     1      -0.725  12.015  19.106  0.00  0.00    +0.000 A 
ATOM      3  C   UNL     1       0.315  11.509  18.328  0.00  0.00    +0.000 A 
ATOM      4  C   UNL     1       1.045  10.412  18.786  0.00  0.00    +0.000 A 
ATOM      5  C   UNL     1       0.759   9.834  20.033  0.00  0.00    +0.000 A 
ATOM      6  C   UNL     1      -0.277  10.358  20.809  0.00  0.00    +0.000 A 
ATOM      7  C   UNL     1       1.595   8.675  20.531  0.00  0.00    +0.000 C 
ATOM      8  N   UNL     1       2.052   7.762  19.473  0.00  0.00    +0.000 N 
ATOM      9  C   UNL     1       2.270   6.434  19.868  0.00  0.00    +0.000 C 
ATOM     10  O   UNL     1       2.156   6.066  21.039  0.00  0.00    +0.000 OA
ATOM     11  C   UNL     1       1.966   8.258  18.083  0.00  0.00    +0.000 C 
ATOM     12  C   UNL     1       2.127   9.775  17.970  0.00  0.00    +0.000 C 
ENDROOT
BRANCH   9  13
ATOM     13  C   UNL     1       2.615   5.382  18.873  0.00  0.00    +0.000 A 
ATOM     14  C   UNL     1       1.596   4.545  18.411  0.00  0.00    +0.000 A 
ATOM     15  C   UNL     1       1.889   3.579  17.455  0.00  0.00    +0.000 A 
ATOM     16  C   UNL     1       3.182   3.490  16.917  0.00  0.00    +0.000 A 
ATOM     17  C   UNL     1       4.230   4.309  17.366  0.00  0.00    +0.000 A 
ATOM     18  C   UNL     1       3.923   5.185  18.419  0.00  0.00    +0.000 A 
BRANCH  17  19
ATOM     19  N   UNL     1       5.516   4.341  16.790  0.00  0.00    +0.000 N 
BRANCH  19  20
ATOM     20  C   UNL     1       6.701   4.184  17.669  0.00  0.00    +0.000 C 
BRANCH  20  21
ATOM     21  C   UNL     1       7.554   5.461  17.776  0.00  0.00    +0.000 C 
BRANCH  21  22
ATOM     22  O   UNL     1       7.342   6.141  19.011  0.00  0.00    +0.000 OA
ATOM     23  H   UNL     1       6.487   5.803  19.341  0.00  0.00    +0.000 HD
ENDBRANCH  21  22
ENDBRANCH  20  21
ENDBRANCH  19  20
BRANCH  19  24
ATOM     24  C   UNL     1       5.690   5.357  15.719  0.00  0.00    +0.000 C 
BRANCH  24  25
ATOM     25  C   UNL     1       6.183   4.813  14.384  0.00  0.00    +0.000 A 
ATOM     26  C   UNL     1       5.415   3.822  13.737  0.00  0.00    +0.000 A 
ATOM     27  C   UNL     1       5.766   3.344  12.473  0.00  0.00    +0.000 A 
ATOM     28  C   UNL     1       6.884   3.844  11.821  0.00  0.00    +0.000 A 
ATOM     29  C   UNL     1       7.650   4.831  12.430  0.00  0.00    +0.000 A 
ATOM     30  C   UNL     1       7.298   5.318  13.696  0.00  0.00    +0.000 A 
ENDBRANCH  24  25
ENDBRANCH  19  24
ENDBRANCH  17  19
ENDBRANCH   9  13
BRANCH   1  31
ATOM     31  O   UNL     1      -2.081  11.996  21.020  0.00  0.00    +0.000 OA
BRANCH  31  32
ATOM     32  S   UNL     1      -1.980  12.383  22.598  0.00  0.00    +0.000 S 
ATOM     33  O   UNL     1      -0.852  13.254  22.835  0.00  0.00    +0.000 OA
ATOM     34  O   UNL     1      -2.225  11.208  23.404  0.00  0.00    +0.000 OA
BRANCH  32  35
ATOM     35  N   UNL     1      -3.351  13.321  22.857  0.00  0.00    +0.000 NA
ATOM     36  H   UNL     1      -3.870  13.364  21.980  0.00  0.00    +0.000 HD
ATOM     37  H   UNL     1      -3.056  14.249  23.162  0.00  0.00    +0.000 HD
ENDBRANCH  32  35
ENDBRANCH  31  32
ENDBRANCH   1  31
TORSDOF 10
ENDMDL
MODEL 3
REMARK VINA RESULT:      -7.9      0.797      1.383
REMARK  Name = 
REMARK  10 active torsions:
REMARK  status: ('A' for Active; 'I' for Inactive)
REMARK    1  A    between atoms: N_1  and  S_2
REMARK    2  A    between atoms: S_2  and  O_5
REMARK    3  A    between atoms: O_5  and  C_6
REMARK    4  A    between atoms: C_14  and  C_16
REMARK    5  A    between atoms: C_20  and  N_21
REMARK    6  A    between atoms: N_21  and  C_22
REMARK    7  A    between atoms: N_21  and  C_25
REMARK    8  A    between atoms: C_22  and  C_23
REMARK    9  A    between atoms: C_23  and  O_24
REMARK   10  A    between atoms: C_25  and  C_26
REMARK                            x       y       z     vdW  Elec       q    Type
REMARK                         _______ _______ _______ _____ _____    ______ ____
ROOT
ATOM      1  C   UNL     1      -0.892  11.344  20.559  0.00  0.00    +0.000 A 
ATOM      2  C   UNL     1      -0.615  11.942  19.326  0.00  0.00    +0.000 A 
ATOM      3  C   UNL     1       0.392  11.435  18.508  0.00  0.00    +0.000 A 
ATOM      4  C   UNL     1       1.107  10.307  18.914  0.00  0.00    +0.000 A 
ATOM      5  C   UNL     1       0.837   9.698  20.150  0.00  0.00    +0.000 A 
ATOM      6  C   UNL     1      -0.167  10.223  20.968  0.00  0.00    +0.000 A 
ATOM      7  C   UNL     1       1.656   8.505  20.592  0.00  0.00    +0.000 C 
ATOM      8  N   UNL     1       2.064   7.614  19.496  0.00  0.00    +0.000 N 
ATOM      9  C   UNL     1       2.259   6.270  19.846  0.00  0.00    +0.000 C 
ATOM     10  O   UNL     1       2.165   5.870  21.008  0.00  0.00    +0.000 OA
ATOM     11  C   UNL     1       1.956   8.154  18.124  0.00  0.00    +0.000 C 
ATOM     12  C   UNL     1       2.152   9.670  18.053  0.00  0.00    +0.000 C 
ENDROOT
BRANCH   9  13
ATOM     13  C   UNL     1       2.553   5.240  18.811  0.00  0.00    +0.000 A 
ATOM     14  C   UNL     1       1.620   4.221  18.605  0.00  0.00    +0.000 A 
ATOM     15  C   UNL     1       1.858   3.271  17.619  0.00  0.00    +0.000 A 
ATOM     16  C   UNL     1       2.994   3.372  16.801  0.00  0.00    +0.000 A 
ATOM     17  C   UNL     1       3.955   4.378  16.988  0.00  0.00    +0.000 A 
ATOM     18  C   UNL     1       3.741   5.244  18.073  0.00  0.00    +0.000 A 
BRANCH  17  19
ATOM     19  N   UNL     1       5.054   4.597  16.135  0.00  0.00    +0.000 N 
BRANCH  19  20
ATOM     20  C   UNL     1       4.917   4.282  14.691  0.00  0.00    +0.000 C 
BRANCH  20  21
ATOM     21  C   UNL     1       6.262   4.250  13.944  0.00  0.00    +0.000 C 
BRANCH  21  22
ATOM     22  O   UNL     1       6.418   3.059  13.176  0.00  0.00    +0.000 OA
ATOM     23  H   UNL     1       6.824   3.353  12.336  0.00  0.00    +0.000 HD
ENDBRANCH  21  22
ENDBRANCH  20  21
ENDBRANCH  19  20
BRANCH  19  24
ATOM     24  C   UNL     1       6.372   4.222  16.711  0.00  0.00    +0.000 C 
BRANCH  24  25
ATOM     25  C   UNL     1       7.115   5.349  17.417  0.00  0.00    +0.000 A 
ATOM     26  C   UNL     1       7.081   6.638  16.845  0.00  0.00    +0.000 A 
ATOM     27  C   UNL     1       7.669   7.731  17.485  0.00  0.00    +0.000 A 
ATOM     28  C   UNL     1       8.297   7.568  18.712  0.00  0.00    +0.000 A 
ATOM     29  C   UNL     1       8.333   6.311  19.305  0.00  0.00    +0.000 A 
ATOM     30  C   UNL     1       7.738   5.213  18.668  0.00  0.00    +0.000 A 
ENDBRANCH  24  25
ENDBRANCH  19  24
ENDBRANCH  17  19
ENDBRANCH   9  13
BRANCH   1  31
ATOM     31  O   UNL     1      -1.924  11.897  21.273  0.00  0.00    +0.000 OA
BRANCH  31  32
ATOM     32  S   UNL     1      -3.064  12.808  20.551  0.00  0.00    +0.000 S 
ATOM     33  O   UNL     1      -3.561  12.150  19.364  0.00  0.00    +0.000 OA
ATOM     34  O   UNL     1      -2.649  14.193  20.543  0.00  0.00    +0.000 OA
BRANCH  32  35
ATOM     35  N   UNL     1      -4.331  12.791  21.655  0.00  0.00    +0.000 NA
ATOM     36  H   UNL     1      -4.934  12.002  21.425  0.00  0.00    +0.000 HD
ATOM     37  H   UNL     1      -4.833  13.677  21.585  0.00  0.00    +0.000 HD
ENDBRANCH  32  35
ENDBRANCH  31  32
ENDBRANCH   1  31
TORSDOF 10
ENDMDL
MODEL 4
REMARK VINA RESULT:      -7.7      2.946      5.411
REMARK  Name = 
REMARK  10 active torsions:
REMARK  status: ('A' for Active; 'I' for Inactive)
REMARK    1  A    between atoms: N_1  and  S_2
REMARK    2  A    between atoms: S_2  and  O_5
REMARK    3  A    between atoms: O_5  and  C_6
REMARK    4  A    between atoms: C_14  and  C_16
REMARK    5  A    between atoms: C_20  and  N_21
REMARK    6  A    between atoms: N_21  and  C_22
REMARK    7  A    between atoms: N_21  and  C_25
REMARK    8  A    between atoms: C_22  and  C_23
REMARK    9  A    between atoms: C_23  and  O_24
REMARK   10  A    between atoms: C_25  and  C_26
REMARK                            x       y       z     vdW  Elec       q    Type
REMARK                         _______ _______ _______ _____ _____    ______ ____
ROOT
ATOM      1  C   UNL     1      -3.684  12.987  23.582  0.00  0.00    +0.000 A 
ATOM      2  C   UNL     1      -3.277  14.185  22.988  0.00  0.00    +0.000 A 
ATOM      3  C   UNL     1      -2.040  14.271  22.353  0.00  0.00    +0.000 A 
ATOM      4  C   UNL     1      -1.219  13.145  22.290  0.00  0.00    +0.000 A 
ATOM      5  C   UNL     1      -1.617  11.937  22.883  0.00  0.00    +0.000 A 
ATOM      6  C   UNL     1      -2.854  11.865  23.528  0.00  0.00    +0.000 A 
ATOM      7  C   UNL     1      -0.690  10.741  22.845  0.00  0.00    +0.000 C 
ATOM      8  N   UNL     1       0.109  10.637  21.614  0.00  0.00    +0.000 N 
ATOM      9  C   UNL     1       0.488   9.338  21.243  0.00  0.00    +0.000 C 
ATOM     10  O   UNL     1       0.231   8.353  21.937  0.00  0.00    +0.000 OA
ATOM     11  C   UNL     1       0.188  11.847  20.768  0.00  0.00    +0.000 C 
ATOM     12  C   UNL     1       0.090  13.149  21.563  0.00  0.00    +0.000 C 
ENDROOT
BRANCH   9  13
ATOM     13  C   UNL     1       1.191   9.080  19.957  0.00  0.00    +0.000 A 
ATOM     14  C   UNL     1       1.284  10.120  19.029  0.00  0.00    +0.000 A 
ATOM     15  C   UNL     1       1.968   9.911  17.838  0.00  0.00    +0.000 A 
ATOM     16  C   UNL     1       2.609   8.685  17.599  0.00  0.00    +0.000 A 
ATOM     17  C   UNL     1       2.528   7.617  18.506  0.00  0.00    +0.000 A 
ATOM     18  C   UNL     1       1.726   7.827  19.639  0.00  0.00    +0.000 A 
BRANCH  17  19
ATOM     19  N   UNL     1       3.238   6.407  18.375  0.00  0.00    +0.000 N 
BRANCH  19  20
ATOM     20  C   UNL     1       4.550   6.415  17.684  0.00  0.00    +0.000 C 
BRANCH  20  21
ATOM     21  C   UNL     1       5.655   5.680  18.465  0.00  0.00    +0.000 C 
BRANCH  21  22
ATOM     22  O   UNL     1       5.652   4.279  18.203  0.00  0.00    +0.000 OA
ATOM     23  H   UNL     1       5.765   4.204  17.235  0.00  0.00    +0.000 HD
ENDBRANCH  21  22
ENDBRANCH  20  21
ENDBRANCH  19  20
BRANCH  19  24
ATOM     24  C   UNL     1       2.395   5.225  18.055  0.00  0.00    +0.000 C 
BRANCH  24  25
ATOM     25  C   UNL     1       2.001   4.367  19.251  0.00  0.00    +0.000 A 
ATOM     26  C   UNL     1       1.164   3.253  19.032  0.00  0.00    +0.000 A 
ATOM     27  C   UNL     1       0.837   2.378  20.070  0.00  0.00    +0.000 A 
ATOM     28  C   UNL     1       1.340   2.587  21.347  0.00  0.00    +0.000 A 
ATOM     29  C   UNL     1       2.178   3.670  21.586  0.00  0.00    +0.000 A 
ATOM     30  C   UNL     1       2.514   4.547  20.546  0.00  0.00    +0.000 A 
ENDBRANCH  24  25
ENDBRANCH  19  24
ENDBRANCH  17  19
ENDBRANCH   9  13
BRANCH   1  31
ATOM     31  O   UNL     1      -4.932  12.996  24.151  0.00  0.00    +0.000 OA
BRANCH  31  32
ATOM     32  S   UNL     1      -6.269  12.712  23.267  0.00  0.00    +0.000 S 
ATOM     33  O   UNL     1      -7.247  11.987  24.045  0.00  0.00    +0.000 OA
ATOM     34  O   UNL     1      -5.893  12.301  21.933  0.00  0.00    +0.000 OA
BRANCH  32  35
ATOM     35  N   UNL     1      -6.912  14.247  23.031  0.00  0.00    +0.000 NA
ATOM     36  H   UNL     1      -7.234  14.305  22.065  0.00  0.00    +0.000 HD
ATOM     37  H   UNL     1      -6.184  14.936  23.224  0.00  0.00    +0.000 HD
ENDBRANCH  32  35
ENDBRANCH  31  32
ENDBRANCH   1  31
TORSDOF 10
ENDMDL
MODEL 5
REMARK VINA RESULT:      -7.6      0.839      1.300
REMARK  Name = 
REMARK  10 active torsions:
REMARK  status: ('A' for Active; 'I' for Inactive)
REMARK    1  A    between atoms: N_1  and  S_2
REMARK    2  A    between atoms: S_2  and  O_5
REMARK    3  A    between atoms: O_5  and  C_6
REMARK    4  A    between atoms: C_14  and  C_16
REMARK    5  A    between atoms: C_20  and  N_21
REMARK    6  A    between atoms: N_21  and  C_22
REMARK    7  A    between atoms: N_21  and  C_25
REMARK    8  A    between atoms: C_22  and  C_23
REMARK    9  A    between atoms: C_23  and  O_24
REMARK   10  A    between atoms: C_25  and  C_26
REMARK                            x       y       z     vdW  Elec       q    Type
REMARK                         _______ _______ _______ _____ _____    ______ ____
ROOT
ATOM      1  C   UNL     1      -0.944  11.281  20.315  0.00  0.00    +0.000 A 
ATOM      2  C   UNL     1      -0.505  11.880  19.131  0.00  0.00    +0.000 A 
ATOM      3  C   UNL     1       0.575  11.347  18.430  0.00  0.00    +0.000 A 
ATOM      4  C   UNL     1       1.200  10.192  18.903  0.00  0.00    +0.000 A 
ATOM      5  C   UNL     1       0.768   9.583  20.091  0.00  0.00    +0.000 A 
ATOM      6  C   UNL     1      -0.308  10.134  20.792  0.00  0.00    +0.000 A 
ATOM      7  C   UNL     1       1.491   8.359  20.612  0.00  0.00    +0.000 C 
ATOM      8  N   UNL     1       1.996   7.465  19.560  0.00  0.00    +0.000 N 
ATOM      9  C   UNL     1       2.105   6.112  19.914  0.00  0.00    +0.000 C 
ATOM     10  O   UNL     1       1.862   5.705  21.052  0.00  0.00    +0.000 OA
ATOM     11  C   UNL     1       2.067   8.020  18.192  0.00  0.00    +0.000 C 
ATOM     12  C   UNL     1       2.318   9.528  18.163  0.00  0.00    +0.000 C 
ENDROOT
BRANCH   9  13
ATOM     13  C   UNL     1       2.485   5.082  18.908  0.00  0.00    +0.000 A 
ATOM     14  C   UNL     1       1.739   3.902  18.851  0.00  0.00    +0.000 A 
ATOM     15  C   UNL     1       2.055   2.943  17.895  0.00  0.00    +0.000 A 
ATOM     16  C   UNL     1       3.074   3.187  16.961  0.00  0.00    +0.000 A 
ATOM     17  C   UNL     1       3.848   4.357  16.998  0.00  0.00    +0.000 A 
ATOM     18  C   UNL     1       3.580   5.244  18.053  0.00  0.00    +0.000 A 
BRANCH  17  19
ATOM     19  N   UNL     1       4.805   4.707  16.025  0.00  0.00    +0.000 N 
BRANCH  19  20
ATOM     20  C   UNL     1       5.848   3.720  15.655  0.00  0.00    +0.000 C 
BRANCH  20  21
ATOM     21  C   UNL     1       6.558   4.051  14.329  0.00  0.00    +0.000 C 
BRANCH  21  22
ATOM     22  O   UNL     1       5.798   3.633  13.198  0.00  0.00    +0.000 OA
ATOM     23  H   UNL     1       5.212   2.927  13.536  0.00  0.00    +0.000 HD
ENDBRANCH  21  22
ENDBRANCH  20  21
ENDBRANCH  19  20
BRANCH  19  24
ATOM     24  C   UNL     1       5.305   6.104  16.122  0.00  0.00    +0.000 C 
BRANCH  24  25
ATOM     25  C   UNL     1       6.437   6.321  17.117  0.00  0.00    +0.000 A 
ATOM     26  C   UNL     1       7.066   7.583  17.156  0.00  0.00    +0.000 A 
ATOM     27  C   UNL     1       8.051   7.873  18.101  0.00  0.00    +0.000 A 
ATOM     28  C   UNL     1       8.429   6.917  19.034  0.00  0.00    +0.000 A 
ATOM     29  C   UNL     1       7.816   5.670  19.027  0.00  0.00    +0.000 A 
ATOM     30  C   UNL     1       6.822   5.377  18.083  0.00  0.00    +0.000 A 
ENDBRANCH  24  25
ENDBRANCH  19  24
ENDBRANCH  17  19
ENDBRANCH   9  13
BRANCH   1  31
ATOM     31  O   UNL     1      -2.034  11.863  20.910  0.00  0.00    +0.000 OA
BRANCH  31  32
ATOM     32  S   UNL     1      -1.965  12.440  22.430  0.00  0.00    +0.000 S 
ATOM     33  O   UNL     1      -2.025  11.359  23.386  0.00  0.00    +0.000 OA
ATOM     34  O   UNL     1      -2.803  13.613  22.545  0.00  0.00    +0.000 OA
BRANCH  32  35
ATOM     35  N   UNL     1      -0.409  13.066  22.537  0.00  0.00    +0.000 NA
ATOM     36  H   UNL     1      -0.323  13.537  23.438  0.00  0.00    +0.000 HD
ATOM     37  H   UNL     1      -0.266  13.715  21.762  0.00  0.00    +0.000 HD
ENDBRANCH  32  35
ENDBRANCH  31  32
ENDBRANCH   1  31
TORSDOF 10
ENDMDL
MODEL 6
REMARK VINA RESULT:      -7.5      1.605      3.005
REMARK  Name = 
REMARK  10 active torsions:
REMARK  status: ('A' for Active; 'I' for Inactive)
REMARK    1  A    between atoms: N_1  and  S_2
REMARK    2  A    between atoms: S_2  and  O_5
REMARK    3  A    between atoms: O_5  and  C_6
REMARK    4  A    between atoms: C_14  and  C_16
REMARK    5  A    between atoms: C_20  and  N_21
REMARK    6  A    between atoms: N_21  and  C_22
REMARK    7  A    between atoms: N_21  and  C_25
REMARK    8  A    between atoms: C_22  and  C_23
REMARK    9  A    between atoms: C_23  and  O_24
REMARK   10  A    between atoms: C_25  and  C_26
REMARK                            x       y       z     vdW  Elec       q    Type
REMARK                         _______ _______ _______ _____ _____    ______ ____
ROOT
ATOM      1  C   UNL     1      -1.309  11.602  20.242  0.00  0.00    +0.000 A 
ATOM      2  C   UNL     1      -0.876  12.234  19.072  0.00  0.00    +0.000 A 
ATOM      3  C   UNL     1       0.256  11.775  18.402  0.00  0.00    +0.000 A 
ATOM      4  C   UNL     1       0.942  10.662  18.891  0.00  0.00    +0.000 A 
ATOM      5  C   UNL     1       0.517  10.020  20.064  0.00  0.00    +0.000 A 
ATOM      6  C   UNL     1      -0.613  10.497  20.735  0.00  0.00    +0.000 A 
ATOM      7  C   UNL     1       1.303   8.845  20.603  0.00  0.00    +0.000 C 
ATOM      8  N   UNL     1       1.896   7.990  19.564  0.00  0.00    +0.000 N 
ATOM      9  C   UNL     1       2.084   6.645  19.918  0.00  0.00    +0.000 C 
ATOM     10  O   UNL     1       1.835   6.219  21.048  0.00  0.00    +0.000 OA
ATOM     11  C   UNL     1       1.970   8.554  18.200  0.00  0.00    +0.000 C 
ATOM     12  C   UNL     1       2.122  10.076  18.182  0.00  0.00    +0.000 C 
ENDROOT
BRANCH   9  13
ATOM     13  C   UNL     1       2.560   5.647  18.922  0.00  0.00    +0.000 A 
ATOM     14  C   UNL     1       1.651   4.700  18.444  0.00  0.00    +0.000 A 
ATOM     15  C   UNL     1       2.065   3.781  17.487  0.00  0.00    +0.000 A 
ATOM     16  C   UNL     1       3.366   3.846  16.964  0.00  0.00    +0.000 A 
ATOM     17  C   UNL     1       4.306   4.779  17.429  0.00  0.00    +0.000 A 
ATOM     18  C   UNL     1       3.887   5.607  18.483  0.00  0.00    +0.000 A 
BRANCH  17  19
ATOM     19  N   UNL     1       5.586   4.965  16.869  0.00  0.00    +0.000 N 
BRANCH  19  20
ATOM     20  C   UNL     1       5.930   6.284  16.284  0.00  0.00    +0.000 C 
BRANCH  20  21
ATOM     21  C   UNL     1       6.896   7.105  17.156  0.00  0.00    +0.000 C 
BRANCH  21  22
ATOM     22  O   UNL     1       7.541   6.300  18.141  0.00  0.00    +0.000 OA
ATOM     23  H   UNL     1       8.045   6.931  18.691  0.00  0.00    +0.000 HD
ENDBRANCH  21  22
ENDBRANCH  20  21
ENDBRANCH  19  20
BRANCH  19  24
ATOM     24  C   UNL     1       6.095   3.807  16.089  0.00  0.00    +0.000 C 
BRANCH  24  25
ATOM     25  C   UNL     1       6.364   4.086  14.616  0.00  0.00    +0.000 A 
ATOM     26  C   UNL     1       7.489   4.866  14.273  0.00  0.00    +0.000 A 
ATOM     27  C   UNL     1       7.839   5.086  12.940  0.00  0.00    +0.000 A 
ATOM     28  C   UNL     1       7.083   4.531  11.917  0.00  0.00    +0.000 A 
ATOM     29  C   UNL     1       5.979   3.746  12.227  0.00  0.00    +0.000 A 
ATOM     30  C   UNL     1       5.628   3.517  13.564  0.00  0.00    +0.000 A 
ENDBRANCH  24  25
ENDBRANCH  19  24
ENDBRANCH  17  19
ENDBRANCH   9  13
BRANCH   1  31
ATOM     31  O   UNL     1      -2.452  12.108  20.806  0.00  0.00    +0.000 OA
BRANCH  31  32
ATOM     32  S   UNL     1      -2.461  12.696  22.324  0.00  0.00    +0.000 S 
ATOM     33  O   UNL     1      -2.403  11.619  23.285  0.00  0.00    +0.000 OA
ATOM     34  O   UNL     1      -3.429  13.765  22.426  0.00  0.00    +0.000 OA
BRANCH  32  35
ATOM     35  N   UNL     1      -0.988  13.499  22.439  0.00  0.00    +0.000 NA
ATOM     36  H   UNL     1      -0.762  13.595  23.428  0.00  0.00    +0.000 HD
ATOM     37  H   UNL     1      -1.079  14.409  21.986  0.00  0.00    +0.000 HD
ENDBRANCH  32  35
ENDBRANCH  31  32
ENDBRANCH   1  31
TORSDOF 10
ENDMDL
MODEL 7
REMARK VINA RESULT:      -7.3      3.648      4.700
REMARK  Name = 
REMARK  10 active torsions:
REMARK  status: ('A' for Active; 'I' for Inactive)
REMARK    1  A    between atoms: N_1  and  S_2
REMARK    2  A    between atoms: S_2  and  O_5
REMARK    3  A    between atoms: O_5  and  C_6
REMARK    4  A    between atoms: C_14  and  C_16
REMARK    5  A    between atoms: C_20  and  N_21
REMARK    6  A    between atoms: N_21  and  C_22
REMARK    7  A    between atoms: N_21  and  C_25
REMARK    8  A    between atoms: C_22  and  C_23
REMARK    9  A    between atoms: C_23  and  O_24
REMARK   10  A    between atoms: C_25  and  C_26
REMARK                            x       y       z     vdW  Elec       q    Type
REMARK                         _______ _______ _______ _____ _____    ______ ____
ROOT
ATOM      1  C   UNL     1       1.977  14.221  19.303  0.00  0.00    +0.000 A 
ATOM      2  C   UNL     1       1.264  14.251  20.505  0.00  0.00    +0.000 A 
ATOM      3  C   UNL     1       0.613  13.108  20.965  0.00  0.00    +0.000 A 
ATOM      4  C   UNL     1       0.699  11.924  20.232  0.00  0.00    +0.000 A 
ATOM      5  C   UNL     1       1.412  11.883  19.024  0.00  0.00    +0.000 A 
ATOM      6  C   UNL     1       2.051  13.038  18.565  0.00  0.00    +0.000 A 
ATOM      7  C   UNL     1       1.452  10.601  18.220  0.00  0.00    +0.000 C 
ATOM      8  N   UNL     1       1.472   9.379  19.036  0.00  0.00    +0.000 N 
ATOM      9  C   UNL     1       2.098   8.268  18.452  0.00  0.00    +0.000 C 
ATOM     10  O   UNL     1       2.542   8.289  17.302  0.00  0.00    +0.000 OA
ATOM     11  C   UNL     1       1.091   9.521  20.458  0.00  0.00    +0.000 C 
ATOM     12  C   UNL     1       0.083  10.645  20.705  0.00  0.00    +0.000 C 
ENDROOT
BRANCH   9  13
ATOM     13  C   UNL     1       2.296   7.006  19.216  0.00  0.00    +0.000 A 
ATOM     14  C   UNL     1       1.488   6.770  20.332  0.00  0.00    +0.000 A 
ATOM     15  C   UNL     1       1.632   5.582  21.038  0.00  0.00    +0.000 A 
ATOM     16  C   UNL     1       2.538   4.605  20.596  0.00  0.00    +0.000 A 
ATOM     17  C   UNL     1       3.371   4.814  19.486  0.00  0.00    +0.000 A 
ATOM     18  C   UNL     1       3.283   6.075  18.875  0.00  0.00    +0.000 A 
BRANCH  17  19
ATOM     19  N   UNL     1       4.217   3.833  18.931  0.00  0.00    +0.000 N 
BRANCH  19  20
ATOM     20  C   UNL     1       4.241   2.479  19.536  0.00  0.00    +0.000 C 
BRANCH  20  21
ATOM     21  C   UNL     1       3.664   1.389  18.613  0.00  0.00    +0.000 C 
BRANCH  21  22
ATOM     22  O   UNL     1       2.248   1.494  18.485  0.00  0.00    +0.000 OA
ATOM     23  H   UNL     1       1.903   1.371  19.391  0.00  0.00    +0.000 HD
ENDBRANCH  21  22
ENDBRANCH  20  21
ENDBRANCH  19  20
BRANCH  19  24
ATOM     24  C   UNL     1       5.554   4.332  18.515  0.00  0.00    +0.000 C 
BRANCH  24  25
ATOM     25  C   UNL     1       5.702   4.625  17.028  0.00  0.00    +0.000 A 
ATOM     26  C   UNL     1       5.930   3.545  16.149  0.00  0.00    +0.000 A 
ATOM     27  C   UNL     1       5.990   3.735  14.767  0.00  0.00    +0.000 A 
ATOM     28  C   UNL     1       5.818   5.002  14.227  0.00  0.00    +0.000 A 
ATOM     29  C   UNL     1       5.578   6.082  15.070  0.00  0.00    +0.000 A 
ATOM     30  C   UNL     1       5.511   5.893  16.457  0.00  0.00    +0.000 A 
ENDBRANCH  24  25
ENDBRANCH  19  24
ENDBRANCH  17  19
ENDBRANCH   9  13
BRANCH   1  31
ATOM     31  O   UNL     1       2.610  15.387  18.955  0.00  0.00    +0.000 OA
BRANCH  31  32
ATOM     32  S   UNL     1       4.234  15.500  18.944  0.00  0.00    +0.000 S 
ATOM     33  O   UNL     1       4.761  15.103  17.659  0.00  0.00    +0.000 OA
ATOM     34  O   UNL     1       4.767  14.983  20.185  0.00  0.00    +0.000 OA
BRANCH  32  35
ATOM     35  N   UNL     1       4.509  17.154  19.066  0.00  0.00    +0.000 NA
ATOM     36  H   UNL     1       4.766  17.357  20.032  0.00  0.00    +0.000 HD
ATOM     37  H   UNL     1       3.656  17.646  18.796  0.00  0.00    +0.000 HD
ENDBRANCH  32  35
ENDBRANCH  31  32
ENDBRANCH   1  31
TORSDOF 10
ENDMDL
MODEL 8
REMARK VINA RESULT:      -7.2      2.762      4.923
REMARK  Name = 
REMARK  10 active torsions:
REMARK  status: ('A' for Active; 'I' for Inactive)
REMARK    1  A    between atoms: N_1  and  S_2
REMARK    2  A    between atoms: S_2  and  O_5
REMARK    3  A    between atoms: O_5  and  C_6
REMARK    4  A    between atoms: C_14  and  C_16
REMARK    5  A    between atoms: C_20  and  N_21
REMARK    6  A    between atoms: N_21  and  C_22
REMARK    7  A    between atoms: N_21  and  C_25
REMARK    8  A    between atoms: C_22  and  C_23
REMARK    9  A    between atoms: C_23  and  O_24
REMARK   10  A    between atoms: C_25  and  C_26
REMARK                            x       y       z     vdW  Elec       q    Type
REMARK                         _______ _______ _______ _____ _____    ______ ____
ROOT
ATOM      1  C   UNL     1      -2.744  13.531  22.782  0.00  0.00    +0.000 A 
ATOM      2  C   UNL     1      -2.048  14.591  22.193  0.00  0.00    +0.000 A 
ATOM      3  C   UNL     1      -0.769  14.393  21.677  0.00  0.00    +0.000 A 
ATOM      4  C   UNL     1      -0.196  13.122  21.727  0.00  0.00    +0.000 A 
ATOM      5  C   UNL     1      -0.885  12.051  22.315  0.00  0.00    +0.000 A 
ATOM      6  C   UNL     1      -2.162  12.263  22.841  0.00  0.00    +0.000 A 
ATOM      7  C   UNL     1      -0.226  10.691  22.401  0.00  0.00    +0.000 C 
ATOM      8  N   UNL     1       0.638  10.367  21.256  0.00  0.00    +0.000 N 
ATOM      9  C   UNL     1       0.772   9.002  20.963  0.00  0.00    +0.000 C 
ATOM     10  O   UNL     1       0.257   8.124  21.659  0.00  0.00    +0.000 OA
ATOM     11  C   UNL     1       1.039  11.492  20.385  0.00  0.00    +0.000 C 
ATOM     12  C   UNL     1       1.143  12.825  21.128  0.00  0.00    +0.000 C 
ENDROOT
BRANCH   9  13
ATOM     13  C   UNL     1       1.516   8.543  19.758  0.00  0.00    +0.000 A 
ATOM     14  C   UNL     1       1.473   9.336  18.609  0.00  0.00    +0.000 A 
ATOM     15  C   UNL     1       2.191   8.944  17.485  0.00  0.00    +0.000 A 
ATOM     16  C   UNL     1       2.996   7.796  17.528  0.00  0.00    +0.000 A 
ATOM     17  C   UNL     1       3.054   6.972  18.663  0.00  0.00    +0.000 A 
ATOM     18  C   UNL     1       2.220   7.335  19.733  0.00  0.00    +0.000 A 
BRANCH  17  19
ATOM     19  N   UNL     1       3.925   5.874  18.805  0.00  0.00    +0.000 N 
BRANCH  19  20
ATOM     20  C   UNL     1       5.363   6.050  18.485  0.00  0.00    +0.000 C 
BRANCH  20  21
ATOM     21  C   UNL     1       6.101   4.720  18.246  0.00  0.00    +0.000 C 
BRANCH  21  22
ATOM     22  O   UNL     1       7.516   4.874  18.322  0.00  0.00    +0.000 OA
ATOM     23  H   UNL     1       7.840   4.035  18.704  0.00  0.00    +0.000 HD
ENDBRANCH  21  22
ENDBRANCH  20  21
ENDBRANCH  19  20
BRANCH  19  24
ATOM     24  C   UNL     1       3.361   4.574  18.355  0.00  0.00    +0.000 C 
BRANCH  24  25
ATOM     25  C   UNL     1       2.599   3.795  19.420  0.00  0.00    +0.000 A 
ATOM     26  C   UNL     1       3.325   3.240  20.495  0.00  0.00    +0.000 A 
ATOM     27  C   UNL     1       2.678   2.589  21.547  0.00  0.00    +0.000 A 
ATOM     28  C   UNL     1       1.294   2.480  21.557  0.00  0.00    +0.000 A 
ATOM     29  C   UNL     1       0.554   3.030  20.517  0.00  0.00    +0.000 A 
ATOM     30  C   UNL     1       1.200   3.690  19.462  0.00  0.00    +0.000 A 
ENDBRANCH  24  25
ENDBRANCH  19  24
ENDBRANCH  17  19
ENDBRANCH   9  13
BRANCH   1  31
ATOM     31  O   UNL     1      -4.008  13.821  23.228  0.00  0.00    +0.000 OA
BRANCH  31  32
ATOM     32  S   UNL     1      -5.276  12.868  22.864  0.00  0.00    +0.000 S 
ATOM     33  O   UNL     1      -5.661  12.076  24.010  0.00  0.00    +0.000 OA
ATOM     34  O   UNL     1      -5.085  12.281  21.556  0.00  0.00    +0.000 OA
BRANCH  32  35
ATOM     35  N   UNL     1      -6.527  13.963  22.616  0.00  0.00    +0.000 NA
ATOM     36  H   UNL     1      -6.788  14.349  23.523  0.00  0.00    +0.000 HD
ATOM     37  H   UNL     1      -7.308  13.470  22.182  0.00  0.00    +0.000 HD
ENDBRANCH  32  35
ENDBRANCH  31  32
ENDBRANCH   1  31
TORSDOF 10
ENDMDL
MODEL 9
REMARK VINA RESULT:      -7.2      4.074     10.530
REMARK  Name = 
REMARK  10 active torsions:
REMARK  status: ('A' for Active; 'I' for Inactive)
REMARK    1  A    between atoms: N_1  and  S_2
REMARK    2  A    between atoms: S_2  and  O_5
REMARK    3  A    between atoms: O_5  and  C_6
REMARK    4  A    between atoms: C_14  and  C_16
REMARK    5  A    between atoms: C_20  and  N_21
REMARK    6  A    between atoms: N_21  and  C_22
REMARK    7  A    between atoms: N_21  and  C_25
REMARK    8  A    between atoms: C_22  and  C_23
REMARK    9  A    between atoms: C_23  and  O_24
REMARK   10  A    between atoms: C_25  and  C_26
REMARK                            x       y       z     vdW  Elec       q    Type
REMARK                         _______ _______ _______ _____ _____    ______ ____
ROOT
ATOM      1  C   UNL     1       5.161   5.465  18.746  0.00  0.00    +0.000 A 
ATOM      2  C   UNL     1       5.099   5.890  17.416  0.00  0.00    +0.000 A 
ATOM      3  C   UNL     1       4.039   6.680  16.978  0.00  0.00    +0.000 A 
ATOM      4  C   UNL     1       3.051   7.069  17.883  0.00  0.00    +0.000 A 
ATOM      5  C   UNL     1       3.103   6.649  19.221  0.00  0.00    +0.000 A 
ATOM      6  C   UNL     1       4.164   5.846  19.646  0.00  0.00    +0.000 A 
ATOM      7  C   UNL     1       1.995   7.043  20.174  0.00  0.00    +0.000 C 
ATOM      8  N   UNL     1       1.434   8.379  19.927  0.00  0.00    +0.000 N 
ATOM      9  C   UNL     1       0.898   9.030  21.048  0.00  0.00    +0.000 C 
ATOM     10  O   UNL     1       0.836   8.493  22.156  0.00  0.00    +0.000 OA
ATOM     11  C   UNL     1       1.737   8.997  18.618  0.00  0.00    +0.000 C 
ATOM     12  C   UNL     1       1.924   7.975  17.495  0.00  0.00    +0.000 C 
ENDROOT
BRANCH   9  13
ATOM     13  C   UNL     1       0.410  10.434  20.962  0.00  0.00    +0.000 A 
ATOM     14  C   UNL     1       1.337  11.469  21.109  0.00  0.00    +0.000 A 
ATOM     15  C   UNL     1       0.908  12.787  20.997  0.00  0.00    +0.000 A 
ATOM     16  C   UNL     1      -0.429  13.068  20.678  0.00  0.00    +0.000 A 
ATOM     17  C   UNL     1      -1.387  12.052  20.533  0.00  0.00    +0.000 A 
ATOM     18  C   UNL     1      -0.941  10.743  20.776  0.00  0.00    +0.000 A 
BRANCH  17  19
ATOM     19  N   UNL     1      -2.713  12.264  20.108  0.00  0.00    +0.000 N 
BRANCH  19  20
ATOM     20  C   UNL     1      -3.076  11.953  18.703  0.00  0.00    +0.000 C 
BRANCH  20  21
ATOM     21  C   UNL     1      -1.868  11.945  17.749  0.00  0.00    +0.000 C 
BRANCH  21  22
ATOM     22  O   UNL     1      -2.252  11.664  16.405  0.00  0.00    +0.000 OA
ATOM     23  H   UNL     1      -3.077  12.170  16.268  0.00  0.00    +0.000 HD
ENDBRANCH  21  22
ENDBRANCH  20  21
ENDBRANCH  19  20
BRANCH  19  24
ATOM     24  C   UNL     1      -3.342  13.505  20.632  0.00  0.00    +0.000 C 
BRANCH  24  25
ATOM     25  C   UNL     1      -4.306  13.302  21.793  0.00  0.00    +0.000 A 
ATOM     26  C   UNL     1      -5.665  13.057  21.504  0.00  0.00    +0.000 A 
ATOM     27  C   UNL     1      -6.583  12.779  22.518  0.00  0.00    +0.000 A 
ATOM     28  C   UNL     1      -6.170  12.729  23.842  0.00  0.00    +0.000 A 
ATOM     29  C   UNL     1      -4.834  12.952  24.154  0.00  0.00    +0.000 A 
ATOM     30  C   UNL     1      -3.908  13.227  23.138  0.00  0.00    +0.000 A 
ENDBRANCH  24  25
ENDBRANCH  19  24
ENDBRANCH  17  19
ENDBRANCH   9  13
BRANCH   1  31
ATOM     31  O   UNL     1       6.262   4.720  19.084  0.00  0.00    +0.000 OA
BRANCH  31  32
ATOM     32  S   UNL     1       7.771   5.299  18.889  0.00  0.00    +0.000 S 
ATOM     33  O   UNL     1       7.736   6.695  18.520  0.00  0.00    +0.000 OA
ATOM     34  O   UNL     1       8.573   4.334  18.168  0.00  0.00    +0.000 OA
BRANCH  32  35
ATOM     35  N   UNL     1       8.412   5.246  20.442  0.00  0.00    +0.000 NA
ATOM     36  H   UNL     1       7.794   5.781  21.052  0.00  0.00    +0.000 HD
ATOM     37  H   UNL     1       9.351   5.645  20.419  0.00  0.00    +0.000 HD
ENDBRANCH  32  35
ENDBRANCH  31  32
ENDBRANCH   1  31
TORSDOF 10
ENDMDL
