MODEL 1
REMARK VINA RESULT:      -6.5      0.000      0.000
REMARK  Name = 
REMARK  9 active torsions:
REMARK  status: ('A' for Active; 'I' for Inactive)
REMARK    1  A    between atoms: C_1  and  C_2
REMARK    2  A    between atoms: C_2  and  N_3
REMARK    3  A    between atoms: N_3  and  C_4
REMARK    4  A    between atoms: N_3  and  C_6
REMARK    5  A    between atoms: C_4  and  C_5
REMARK    6  A    between atoms: C_9  and  N_10
REMARK    7  A    between atoms: C_11  and  C_13
REMARK    8  A    between atoms: C_13  and  C_14
REMARK    9  A    between atoms: N_16  and  N_17
REMARK                            x       y       z     vdW  Elec       q    Type
REMARK                         _______ _______ _______ _____ _____    ______ ____
ROOT
ATOM      1  N   UNL     1       5.622   3.829  15.629  0.00  0.00    +0.000 N 
ATOM      2  C   UNL     1       5.883   4.809  14.687  0.00  0.00    +0.000 C 
ATOM      3  O   UNL     1       5.625   6.008  14.801  0.00  0.00    +0.000 OA
ATOM      4  H   UNL     1       5.904   2.874  15.401  0.00  0.00    +0.000 HD
ENDROOT
BRANCH   1   8
ATOM      5  C   UNL     1       3.543   4.334  19.316  0.00  0.00    +0.000 A 
ATOM      6  C   UNL     1       4.907   4.617  19.205  0.00  0.00    +0.000 A 
ATOM      7  C   UNL     1       5.603   4.456  18.007  0.00  0.00    +0.000 A 
ATOM      8  C   UNL     1       4.956   3.998  16.864  0.00  0.00    +0.000 A 
ATOM      9  C   UNL     1       3.590   3.702  16.950  0.00  0.00    +0.000 A 
ATOM     10  C   UNL     1       2.895   3.865  18.164  0.00  0.00    +0.000 A 
BRANCH   5  11
ATOM     11  N   UNL     1       2.844   4.523  20.526  0.00  0.00    +0.000 N 
BRANCH  11  13
ATOM     12  C   UNL     1       1.237   2.729  21.243  0.00  0.00    +0.000 C 
ATOM     13  C   UNL     1       2.639   3.302  21.329  0.00  0.00    +0.000 C 
ENDBRANCH  11  13
BRANCH  11  14
ATOM     14  C   UNL     1       1.776   5.542  20.486  0.00  0.00    +0.000 C 
ATOM     15  C   UNL     1       2.214   6.895  19.931  0.00  0.00    +0.000 C 
ENDBRANCH  11  14
ENDBRANCH   5  11
ENDBRANCH   1   8
BRANCH   2  16
ATOM     16  C   UNL     1       6.629   4.371  13.452  0.00  0.00    +0.000 C 
BRANCH  16  17
ATOM     17  C   UNL     1       5.911   3.431  12.532  0.00  0.00    +0.000 C 
ATOM     18  O   UNL     1       4.712   3.538  12.267  0.00  0.00    +0.000 OA
ATOM     19  N   UNL     1       6.698   2.390  12.055  0.00  0.00    +0.000 N 
ATOM     20  H   UNL     1       7.713   2.424  12.140  0.00  0.00    +0.000 HD
BRANCH  19  21
ATOM     21  N   UNL     1       6.137   1.478  11.135  0.00  0.00    +0.000 NA
ATOM     22  H   UNL     1       5.154   1.756  10.997  0.00  0.00    +0.000 HD
ATOM     23  H   UNL     1       6.072   0.565  11.594  0.00  0.00    +0.000 HD
ENDBRANCH  19  21
ENDBRANCH  16  17
ENDBRANCH   2  16
TORSDOF 7
ENDMDL
MODEL 2
REMARK VINA RESULT:      -6.4      3.602      5.852
REMARK  Name = 
REMARK  9 active torsions:
REMARK  status: ('A' for Active; 'I' for Inactive)
REMARK    1  A    between atoms: C_1  and  C_2
REMARK    2  A    between atoms: C_2  and  N_3
REMARK    3  A    between atoms: N_3  and  C_4
REMARK    4  A    between atoms: N_3  and  C_6
REMARK    5  A    between atoms: C_4  and  C_5
REMARK    6  A    between atoms: C_9  and  N_10
REMARK    7  A    between atoms: C_11  and  C_13
REMARK    8  A    between atoms: C_13  and  C_14
REMARK    9  A    between atoms: N_16  and  N_17
REMARK                            x       y       z     vdW  Elec       q    Type
REMARK                         _______ _______ _______ _____ _____    ______ ____
ROOT
ATOM      1  N   UNL     1       3.602   6.086  18.264  0.00  0.00    +0.000 N 
ATOM      2  C   UNL     1       3.218   4.849  17.776  0.00  0.00    +0.000 C 
ATOM      3  O   UNL     1       2.060   4.480  17.575  0.00  0.00    +0.000 OA
ATOM      4  H   UNL     1       4.603   6.257  18.369  0.00  0.00    +0.000 HD
ENDROOT
BRANCH   1   8
ATOM      5  C   UNL     1       1.055   9.286  19.468  0.00  0.00    +0.000 A 
ATOM      6  C   UNL     1       1.369   8.238  20.338  0.00  0.00    +0.000 A 
ATOM      7  C   UNL     1       2.199   7.183  19.959  0.00  0.00    +0.000 A 
ATOM      8  C   UNL     1       2.749   7.132  18.684  0.00  0.00    +0.000 A 
ATOM      9  C   UNL     1       2.446   8.167  17.791  0.00  0.00    +0.000 A 
ATOM     10  C   UNL     1       1.605   9.228  18.179  0.00  0.00    +0.000 A 
BRANCH   5  11
ATOM     11  N   UNL     1       0.233  10.359  19.868  0.00  0.00    +0.000 N 
BRANCH  11  13
ATOM     12  C   UNL     1      -1.709  10.598  18.291  0.00  0.00    +0.000 C 
ATOM     13  C   UNL     1      -0.370  11.132  18.766  0.00  0.00    +0.000 C 
ENDBRANCH  11  13
BRANCH  11  14
ATOM     14  C   UNL     1       0.673  11.070  21.086  0.00  0.00    +0.000 C 
ATOM     15  C   UNL     1      -0.381  11.148  22.188  0.00  0.00    +0.000 C 
ENDBRANCH  11  14
ENDBRANCH   5  11
ENDBRANCH   1   8
BRANCH   2  16
ATOM     16  C   UNL     1       4.329   3.910  17.379  0.00  0.00    +0.000 C 
BRANCH  16  17
ATOM     17  C   UNL     1       5.661   4.132  18.028  0.00  0.00    +0.000 C 
ATOM     18  O   UNL     1       5.786   4.397  19.226  0.00  0.00    +0.000 OA
ATOM     19  N   UNL     1       6.738   4.078  17.152  0.00  0.00    +0.000 N 
ATOM     20  H   UNL     1       6.628   3.684  16.218  0.00  0.00    +0.000 HD
BRANCH  19  21
ATOM     21  N   UNL     1       8.044   4.216  17.668  0.00  0.00    +0.000 NA
ATOM     22  H   UNL     1       7.956   4.659  18.595  0.00  0.00    +0.000 HD
ATOM     23  H   UNL     1       8.533   4.919  17.106  0.00  0.00    +0.000 HD
ENDBRANCH  19  21
ENDBRANCH  16  17
ENDBRANCH   2  16
TORSDOF 7
ENDMDL
MODEL 3
REMARK VINA RESULT:      -6.4      1.299      1.472
REMARK  Name = 
REMARK  9 active torsions:
REMARK  status: ('A' for Active; 'I' for Inactive)
REMARK    1  A    between atoms: C_1  and  C_2
REMARK    2  A    between atoms: C_2  and  N_3
REMARK    3  A    between atoms: N_3  and  C_4
REMARK    4  A    between atoms: N_3  and  C_6
REMARK    5  A    between atoms: C_4  and  C_5
REMARK    6  A    between atoms: C_9  and  N_10
REMARK    7  A    between atoms: C_11  and  C_13
REMARK    8  A    between atoms: C_13  and  C_14
REMARK    9  A    between atoms: N_16  and  N_17
REMARK                            x       y       z     vdW  Elec       q    Type
REMARK                         _______ _______ _______ _____ _____    ______ ____
ROOT
ATOM      1  N   UNL     1       5.562   4.474  14.699  0.00  0.00    +0.000 N 
ATOM      2  C   UNL     1       6.803   4.863  14.227  0.00  0.00    +0.000 C 
ATOM      3  O   UNL     1       7.617   5.566  14.828  0.00  0.00    +0.000 OA
ATOM      4  H   UNL     1       4.997   3.876  14.092  0.00  0.00    +0.000 HD
ENDROOT
BRANCH   1   8
ATOM      5  C   UNL     1       3.718   5.557  18.386  0.00  0.00    +0.000 A 
ATOM      6  C   UNL     1       4.281   6.520  17.544  0.00  0.00    +0.000 A 
ATOM      7  C   UNL     1       4.890   6.182  16.335  0.00  0.00    +0.000 A 
ATOM      8  C   UNL     1       4.962   4.857  15.920  0.00  0.00    +0.000 A 
ATOM      9  C   UNL     1       4.410   3.873  16.749  0.00  0.00    +0.000 A 
ATOM     10  C   UNL     1       3.799   4.221  17.969  0.00  0.00    +0.000 A 
BRANCH   5  11
ATOM     11  N   UNL     1       3.085   5.912  19.595  0.00  0.00    +0.000 N 
BRANCH  11  13
ATOM     12  C   UNL     1       1.235   4.355  20.279  0.00  0.00    +0.000 C 
ATOM     13  C   UNL     1       2.682   4.778  20.449  0.00  0.00    +0.000 C 
ENDBRANCH  11  13
BRANCH  11  14
ATOM     14  C   UNL     1       2.212   7.101  19.525  0.00  0.00    +0.000 C 
ATOM     15  C   UNL     1       1.780   7.648  20.883  0.00  0.00    +0.000 C 
ENDBRANCH  11  14
ENDBRANCH   5  11
ENDBRANCH   1   8
BRANCH   2  16
ATOM     16  C   UNL     1       7.222   4.297  12.893  0.00  0.00    +0.000 C 
BRANCH  16  17
ATOM     17  C   UNL     1       6.277   3.330  12.247  0.00  0.00    +0.000 C 
ATOM     18  O   UNL     1       5.067   3.543  12.145  0.00  0.00    +0.000 OA
ATOM     19  N   UNL     1       6.871   2.144  11.832  0.00  0.00    +0.000 N 
ATOM     20  H   UNL     1       7.886   2.067  11.764  0.00  0.00    +0.000 HD
BRANCH  19  21
ATOM     21  N   UNL     1       6.083   1.186  11.159  0.00  0.00    +0.000 NA
ATOM     22  H   UNL     1       6.496   1.062  10.223  0.00  0.00    +0.000 HD
ATOM     23  H   UNL     1       5.168   1.606  10.971  0.00  0.00    +0.000 HD
ENDBRANCH  19  21
ENDBRANCH  16  17
ENDBRANCH   2  16
TORSDOF 7
ENDMDL
MODEL 4
REMARK VINA RESULT:      -6.4      3.094      4.696
REMARK  Name = 
REMARK  9 active torsions:
REMARK  status: ('A' for Active; 'I' for Inactive)
REMARK    1  A    between atoms: C_1  and  C_2
REMARK    2  A    between atoms: C_2  and  N_3
REMARK    3  A    between atoms: N_3  and  C_4
REMARK    4  A    between atoms: N_3  and  C_6
REMARK    5  A    between atoms: C_4  and  C_5
REMARK    6  A    between atoms: C_9  and  N_10
REMARK    7  A    between atoms: C_11  and  C_13
REMARK    8  A    between atoms: C_13  and  C_14
REMARK    9  A    between atoms: N_16  and  N_17
REMARK                            x       y       z     vdW  Elec       q    Type
REMARK                         _______ _______ _______ _____ _____    ______ ____
ROOT
ATOM      1  N   UNL     1       3.602   5.704  17.625  0.00  0.00    +0.000 N 
ATOM      2  C   UNL     1       4.860   5.864  17.071  0.00  0.00    +0.000 C 
ATOM      3  O   UNL     1       5.587   6.850  17.202  0.00  0.00    +0.000 OA
ATOM      4  H   UNL     1       3.118   4.823  17.439  0.00  0.00    +0.000 HD
ENDROOT
BRANCH   1   8
ATOM      5  C   UNL     1       1.456   8.625  19.868  0.00  0.00    +0.000 A 
ATOM      6  C   UNL     1       1.827   7.402  20.433  0.00  0.00    +0.000 A 
ATOM      7  C   UNL     1       2.528   6.435  19.713  0.00  0.00    +0.000 A 
ATOM      8  C   UNL     1       2.885   6.654  18.387  0.00  0.00    +0.000 A 
ATOM      9  C   UNL     1       2.521   7.870  17.796  0.00  0.00    +0.000 A 
ATOM     10  C   UNL     1       1.811   8.841  18.529  0.00  0.00    +0.000 A 
BRANCH   5  11
ATOM     11  N   UNL     1       0.768   9.606  20.612  0.00  0.00    +0.000 N 
BRANCH  11  13
ATOM     12  C   UNL     1       0.057   9.513  23.021  0.00  0.00    +0.000 C 
ATOM     13  C   UNL     1      -0.206   9.083  21.589  0.00  0.00    +0.000 C 
ENDBRANCH  11  13
BRANCH  11  14
ATOM     14  C   UNL     1       0.451  10.847  19.878  0.00  0.00    +0.000 C 
ATOM     15  C   UNL     1      -1.039  11.167  19.793  0.00  0.00    +0.000 C 
ENDBRANCH  11  14
ENDBRANCH   5  11
ENDBRANCH   1   8
BRANCH   2  16
ATOM     16  C   UNL     1       5.414   4.685  16.312  0.00  0.00    +0.000 C 
BRANCH  16  17
ATOM     17  C   UNL     1       6.806   4.825  15.775  0.00  0.00    +0.000 C 
ATOM     18  O   UNL     1       7.806   4.479  16.409  0.00  0.00    +0.000 OA
ATOM     19  N   UNL     1       6.878   5.440  14.531  0.00  0.00    +0.000 N 
ATOM     20  H   UNL     1       6.042   5.550  13.958  0.00  0.00    +0.000 HD
BRANCH  19  21
ATOM     21  N   UNL     1       8.136   5.572  13.908  0.00  0.00    +0.000 NA
ATOM     22  H   UNL     1       8.445   6.544  14.056  0.00  0.00    +0.000 HD
ATOM     23  H   UNL     1       7.996   5.510  12.895  0.00  0.00    +0.000 HD
ENDBRANCH  19  21
ENDBRANCH  16  17
ENDBRANCH   2  16
TORSDOF 7
ENDMDL
MODEL 5
REMARK VINA RESULT:      -6.4      3.576      5.758
REMARK  Name = 
REMARK  9 active torsions:
REMARK  status: ('A' for Active; 'I' for Inactive)
REMARK    1  A    between atoms: C_1  and  C_2
REMARK    2  A    between atoms: C_2  and  N_3
REMARK    3  A    between atoms: N_3  and  C_4
REMARK    4  A    between atoms: N_3  and  C_6
REMARK    5  A    between atoms: C_4  and  C_5
REMARK    6  A    between atoms: C_9  and  N_10
REMARK    7  A    between atoms: C_11  and  C_13
REMARK    8  A    between atoms: C_13  and  C_14
REMARK    9  A    between atoms: N_16  and  N_17
REMARK                            x       y       z     vdW  Elec       q    Type
REMARK                         _______ _______ _______ _____ _____    ______ ____
ROOT
ATOM      1  N   UNL     1       3.607   6.046  18.195  0.00  0.00    +0.000 N 
ATOM      2  C   UNL     1       3.166   4.805  17.771  0.00  0.00    +0.000 C 
ATOM      3  O   UNL     1       1.991   4.476  17.599  0.00  0.00    +0.000 OA
ATOM      4  H   UNL     1       4.616   6.179  18.282  0.00  0.00    +0.000 HD
ENDROOT
BRANCH   1   8
ATOM      5  C   UNL     1       1.158   9.321  19.402  0.00  0.00    +0.000 A 
ATOM      6  C   UNL     1       1.718   9.263  18.123  0.00  0.00    +0.000 A 
ATOM      7  C   UNL     1       2.522   8.200  17.713  0.00  0.00    +0.000 A 
ATOM      8  C   UNL     1       2.804   7.146  18.575  0.00  0.00    +0.000 A 
ATOM      9  C   UNL     1       2.260   7.182  19.864  0.00  0.00    +0.000 A 
ATOM     10  C   UNL     1       1.450   8.260  20.273  0.00  0.00    +0.000 A 
BRANCH   5  11
ATOM     11  N   UNL     1       0.328  10.388  19.799  0.00  0.00    +0.000 N 
BRANCH  11  13
ATOM     12  C   UNL     1      -0.330  11.225  22.076  0.00  0.00    +0.000 C 
ATOM     13  C   UNL     1      -0.467  10.146  21.018  0.00  0.00    +0.000 C 
ENDBRANCH  11  13
BRANCH  11  14
ATOM     14  C   UNL     1      -0.272  11.165  18.696  0.00  0.00    +0.000 C 
ATOM     15  C   UNL     1      -1.679  10.722  18.303  0.00  0.00    +0.000 C 
ENDBRANCH  11  14
ENDBRANCH   5  11
ENDBRANCH   1   8
BRANCH   2  16
ATOM     16  C   UNL     1       4.232   3.803  17.406  0.00  0.00    +0.000 C 
BRANCH  16  17
ATOM     17  C   UNL     1       5.610   4.065  17.934  0.00  0.00    +0.000 C 
ATOM     18  O   UNL     1       5.836   4.314  19.120  0.00  0.00    +0.000 OA
ATOM     19  N   UNL     1       6.601   4.069  16.960  0.00  0.00    +0.000 N 
ATOM     20  H   UNL     1       6.419   3.688  16.031  0.00  0.00    +0.000 HD
BRANCH  19  21
ATOM     21  N   UNL     1       7.943   4.250  17.355  0.00  0.00    +0.000 NA
ATOM     22  H   UNL     1       8.147   3.532  18.065  0.00  0.00    +0.000 HD
ATOM     23  H   UNL     1       8.005   5.132  17.872  0.00  0.00    +0.000 HD
ENDBRANCH  19  21
ENDBRANCH  16  17
ENDBRANCH   2  16
TORSDOF 7
ENDMDL
MODEL 6
REMARK VINA RESULT:      -6.4      4.170      6.314
REMARK  Name = 
REMARK  9 active torsions:
REMARK  status: ('A' for Active; 'I' for Inactive)
REMARK    1  A    between atoms: C_1  and  C_2
REMARK    2  A    between atoms: C_2  and  N_3
REMARK    3  A    between atoms: N_3  and  C_4
REMARK    4  A    between atoms: N_3  and  C_6
REMARK    5  A    between atoms: C_4  and  C_5
REMARK    6  A    between atoms: C_9  and  N_10
REMARK    7  A    between atoms: C_11  and  C_13
REMARK    8  A    between atoms: C_13  and  C_14
REMARK    9  A    between atoms: N_16  and  N_17
REMARK                            x       y       z     vdW  Elec       q    Type
REMARK                         _______ _______ _______ _____ _____    ______ ____
ROOT
ATOM      1  N   UNL     1       3.220   5.985  18.464  0.00  0.00    +0.000 N 
ATOM      2  C   UNL     1       2.692   4.824  17.927  0.00  0.00    +0.000 C 
ATOM      3  O   UNL     1       1.522   4.655  17.580  0.00  0.00    +0.000 OA
ATOM      4  H   UNL     1       4.216   5.983  18.694  0.00  0.00    +0.000 HD
ENDROOT
BRANCH   1   8
ATOM      5  C   UNL     1       1.067   9.521  19.483  0.00  0.00    +0.000 A 
ATOM      6  C   UNL     1       1.572   9.322  18.195  0.00  0.00    +0.000 A 
ATOM      7  C   UNL     1       2.280   8.171  17.846  0.00  0.00    +0.000 A 
ATOM      8  C   UNL     1       2.515   7.169  18.780  0.00  0.00    +0.000 A 
ATOM      9  C   UNL     1       2.025   7.346  20.079  0.00  0.00    +0.000 A 
ATOM     10  C   UNL     1       1.313   8.511  20.425  0.00  0.00    +0.000 A 
BRANCH   5  11
ATOM     11  N   UNL     1       0.333  10.676  19.820  0.00  0.00    +0.000 N 
BRANCH  11  13
ATOM     12  C   UNL     1      -0.854  11.154  21.983  0.00  0.00    +0.000 C 
ATOM     13  C   UNL     1       0.460  11.113  21.223  0.00  0.00    +0.000 C 
ENDBRANCH  11  13
BRANCH  11  14
ATOM     14  C   UNL     1      -0.970  10.816  19.141  0.00  0.00    +0.000 C 
ATOM     15  C   UNL     1      -1.155  12.134  18.392  0.00  0.00    +0.000 C 
ENDBRANCH  11  14
ENDBRANCH   5  11
ENDBRANCH   1   8
BRANCH   2  16
ATOM     16  C   UNL     1       3.666   3.703  17.666  0.00  0.00    +0.000 C 
BRANCH  16  17
ATOM     17  C   UNL     1       4.594   3.344  18.786  0.00  0.00    +0.000 C 
ATOM     18  O   UNL     1       5.479   4.100  19.190  0.00  0.00    +0.000 OA
ATOM     19  N   UNL     1       4.413   2.060  19.285  0.00  0.00    +0.000 N 
ATOM     20  H   UNL     1       3.571   1.529  19.063  0.00  0.00    +0.000 HD
BRANCH  19  21
ATOM     21  N   UNL     1       5.196   1.638  20.381  0.00  0.00    +0.000 NA
ATOM     22  H   UNL     1       5.101   0.614  20.443  0.00  0.00    +0.000 HD
ATOM     23  H   UNL     1       4.751   1.978  21.238  0.00  0.00    +0.000 HD
ENDBRANCH  19  21
ENDBRANCH  16  17
ENDBRANCH   2  16
TORSDOF 7
ENDMDL
MODEL 7
REMARK VINA RESULT:      -6.3      3.062      4.849
REMARK  Name = 
REMARK  9 active torsions:
REMARK  status: ('A' for Active; 'I' for Inactive)
REMARK    1  A    between atoms: C_1  and  C_2
REMARK    2  A    between atoms: C_2  and  N_3
REMARK    3  A    between atoms: N_3  and  C_4
REMARK    4  A    between atoms: N_3  and  C_6
REMARK    5  A    between atoms: C_4  and  C_5
REMARK    6  A    between atoms: C_9  and  N_10
REMARK    7  A    between atoms: C_11  and  C_13
REMARK    8  A    between atoms: C_13  and  C_14
REMARK    9  A    between atoms: N_16  and  N_17
REMARK                            x       y       z     vdW  Elec       q    Type
REMARK                         _______ _______ _______ _____ _____    ______ ____
ROOT
ATOM      1  N   UNL     1       3.595   5.670  17.578  0.00  0.00    +0.000 N 
ATOM      2  C   UNL     1       4.961   5.631  17.365  0.00  0.00    +0.000 C 
ATOM      3  O   UNL     1       5.796   6.365  17.896  0.00  0.00    +0.000 OA
ATOM      4  H   UNL     1       3.024   4.988  17.075  0.00  0.00    +0.000 HD
ENDROOT
BRANCH   1   8
ATOM      5  C   UNL     1       1.485   8.506  19.961  0.00  0.00    +0.000 A 
ATOM      6  C   UNL     1       1.835   7.250  20.464  0.00  0.00    +0.000 A 
ATOM      7  C   UNL     1       2.524   6.310  19.697  0.00  0.00    +0.000 A 
ATOM      8  C   UNL     1       2.889   6.591  18.385  0.00  0.00    +0.000 A 
ATOM      9  C   UNL     1       2.545   7.840  17.856  0.00  0.00    +0.000 A 
ATOM     10  C   UNL     1       1.847   8.783  18.635  0.00  0.00    +0.000 A 
BRANCH   5  11
ATOM     11  N   UNL     1       0.809   9.457  20.752  0.00  0.00    +0.000 N 
BRANCH  11  13
ATOM     12  C   UNL     1      -0.740  11.180  19.777  0.00  0.00    +0.000 C 
ATOM     13  C   UNL     1       0.681  10.798  20.149  0.00  0.00    +0.000 C 
ENDBRANCH  11  13
BRANCH  11  14
ATOM     14  C   UNL     1       1.037   9.345  22.207  0.00  0.00    +0.000 C 
ATOM     15  C   UNL     1      -0.222   9.496  23.057  0.00  0.00    +0.000 C 
ENDBRANCH  11  14
ENDBRANCH   5  11
ENDBRANCH   1   8
BRANCH   2  16
ATOM     16  C   UNL     1       5.470   4.531  16.468  0.00  0.00    +0.000 C 
BRANCH  16  17
ATOM     17  C   UNL     1       6.825   4.732  15.861  0.00  0.00    +0.000 C 
ATOM     18  O   UNL     1       7.870   4.424  16.438  0.00  0.00    +0.000 OA
ATOM     19  N   UNL     1       6.806   5.357  14.620  0.00  0.00    +0.000 N 
ATOM     20  H   UNL     1       5.937   5.436  14.091  0.00  0.00    +0.000 HD
BRANCH  19  21
ATOM     21  N   UNL     1       8.023   5.544  13.932  0.00  0.00    +0.000 NA
ATOM     22  H   UNL     1       8.456   6.398  14.314  0.00  0.00    +0.000 HD
ATOM     23  H   UNL     1       7.804   5.792  12.963  0.00  0.00    +0.000 HD
ENDBRANCH  19  21
ENDBRANCH  16  17
ENDBRANCH   2  16
TORSDOF 7
ENDMDL
MODEL 8
REMARK VINA RESULT:      -6.3      3.616      5.940
REMARK  Name = 
REMARK  9 active torsions:
REMARK  status: ('A' for Active; 'I' for Inactive)
REMARK    1  A    between atoms: C_1  and  C_2
REMARK    2  A    between atoms: C_2  and  N_3
REMARK    3  A    between atoms: N_3  and  C_4
REMARK    4  A    between atoms: N_3  and  C_6
REMARK    5  A    between atoms: C_4  and  C_5
REMARK    6  A    between atoms: C_9  and  N_10
REMARK    7  A    between atoms: C_11  and  C_13
REMARK    8  A    between atoms: C_13  and  C_14
REMARK    9  A    between atoms: N_16  and  N_17
REMARK                            x       y       z     vdW  Elec       q    Type
REMARK                         _______ _______ _______ _____ _____    ______ ____
ROOT
ATOM      1  N   UNL     1       3.563   6.087  18.168  0.00  0.00    +0.000 N 
ATOM      2  C   UNL     1       3.128   4.842  17.750  0.00  0.00    +0.000 C 
ATOM      3  O   UNL     1       1.953   4.496  17.612  0.00  0.00    +0.000 OA
ATOM      4  H   UNL     1       4.572   6.235  18.225  0.00  0.00    +0.000 HD
ENDROOT
BRANCH   1   8
ATOM      5  C   UNL     1       1.106   9.320  19.467  0.00  0.00    +0.000 A 
ATOM      6  C   UNL     1       1.608   9.265  18.164  0.00  0.00    +0.000 A 
ATOM      7  C   UNL     1       2.414   8.215  17.723  0.00  0.00    +0.000 A 
ATOM      8  C   UNL     1       2.756   7.173  18.578  0.00  0.00    +0.000 A 
ATOM      9  C   UNL     1       2.271   7.208  19.891  0.00  0.00    +0.000 A 
ATOM     10  C   UNL     1       1.460   8.272  20.329  0.00  0.00    +0.000 A 
BRANCH   5  11
ATOM     11  N   UNL     1       0.273  10.374  19.895  0.00  0.00    +0.000 N 
BRANCH  11  13
ATOM     12  C   UNL     1       0.367  12.689  18.921  0.00  0.00    +0.000 C 
ATOM     13  C   UNL     1      -0.191  11.281  18.828  0.00  0.00    +0.000 C 
ENDBRANCH  11  13
BRANCH  11  14
ATOM     14  C   UNL     1       0.599  10.936  21.222  0.00  0.00    +0.000 C 
ATOM     15  C   UNL     1      -0.516  10.802  22.256  0.00  0.00    +0.000 C 
ENDBRANCH  11  14
ENDBRANCH   5  11
ENDBRANCH   1   8
BRANCH   2  16
ATOM     16  C   UNL     1       4.196   3.858  17.348  0.00  0.00    +0.000 C 
BRANCH  16  17
ATOM     17  C   UNL     1       5.572   4.099  17.891  0.00  0.00    +0.000 C 
ATOM     18  O   UNL     1       5.789   4.338  19.081  0.00  0.00    +0.000 OA
ATOM     19  N   UNL     1       6.573   4.097  16.928  0.00  0.00    +0.000 N 
ATOM     20  H   UNL     1       6.396   3.724  15.995  0.00  0.00    +0.000 HD
BRANCH  19  21
ATOM     21  N   UNL     1       7.914   4.259  17.338  0.00  0.00    +0.000 NA
ATOM     22  H   UNL     1       8.249   3.333  17.640  0.00  0.00    +0.000 HD
ATOM     23  H   UNL     1       7.916   4.814  18.198  0.00  0.00    +0.000 HD
ENDBRANCH  19  21
ENDBRANCH  16  17
ENDBRANCH   2  16
TORSDOF 7
ENDMDL
MODEL 9
REMARK VINA RESULT:      -6.3      4.160      6.108
REMARK  Name = 
REMARK  9 active torsions:
REMARK  status: ('A' for Active; 'I' for Inactive)
REMARK    1  A    between atoms: C_1  and  C_2
REMARK    2  A    between atoms: C_2  and  N_3
REMARK    3  A    between atoms: N_3  and  C_4
REMARK    4  A    between atoms: N_3  and  C_6
REMARK    5  A    between atoms: C_4  and  C_5
REMARK    6  A    between atoms: C_9  and  N_10
REMARK    7  A    between atoms: C_11  and  C_13
REMARK    8  A    between atoms: C_13  and  C_14
REMARK    9  A    between atoms: N_16  and  N_17
REMARK                            x       y       z     vdW  Elec       q    Type
REMARK                         _______ _______ _______ _____ _____    ______ ____
ROOT
ATOM      1  N   UNL     1       3.268   5.761  18.341  0.00  0.00    +0.000 N 
ATOM      2  C   UNL     1       2.722   4.612  17.798  0.00  0.00    +0.000 C 
ATOM      3  O   UNL     1       1.529   4.422  17.559  0.00  0.00    +0.000 OA
ATOM      4  H   UNL     1       4.281   5.780  18.473  0.00  0.00    +0.000 HD
ENDROOT
BRANCH   1   8
ATOM      5  C   UNL     1       1.174   9.250  19.613  0.00  0.00    +0.000 A 
ATOM      6  C   UNL     1       1.431   8.194  20.492  0.00  0.00    +0.000 A 
ATOM      7  C   UNL     1       2.114   7.045  20.091  0.00  0.00    +0.000 A 
ATOM      8  C   UNL     1       2.566   6.905  18.784  0.00  0.00    +0.000 A 
ATOM      9  C   UNL     1       2.316   7.946  17.882  0.00  0.00    +0.000 A 
ATOM     10  C   UNL     1       1.624   9.102  18.293  0.00  0.00    +0.000 A 
BRANCH   5  11
ATOM     11  N   UNL     1       0.503  10.417  20.033  0.00  0.00    +0.000 N 
BRANCH  11  13
ATOM     12  C   UNL     1      -0.448  11.530  22.076  0.00  0.00    +0.000 C 
ATOM     13  C   UNL     1      -0.320  10.264  21.248  0.00  0.00    +0.000 C 
ENDBRANCH  11  13
BRANCH  11  14
ATOM     14  C   UNL     1       0.022  11.294  18.947  0.00  0.00    +0.000 C 
ATOM     15  C   UNL     1      -1.427  11.050  18.534  0.00  0.00    +0.000 C 
ENDBRANCH  11  14
ENDBRANCH   5  11
ENDBRANCH   1   8
BRANCH   2  16
ATOM     16  C   UNL     1       3.695   3.536  17.387  0.00  0.00    +0.000 C 
BRANCH  16  17
ATOM     17  C   UNL     1       3.918   2.421  18.363  0.00  0.00    +0.000 C 
ATOM     18  O   UNL     1       3.286   1.363  18.327  0.00  0.00    +0.000 OA
ATOM     19  N   UNL     1       4.850   2.709  19.353  0.00  0.00    +0.000 N 
ATOM     20  H   UNL     1       5.480   3.506  19.258  0.00  0.00    +0.000 HD
BRANCH  19  21
ATOM     21  N   UNL     1       5.178   1.709  20.292  0.00  0.00    +0.000 NA
ATOM     22  H   UNL     1       5.777   2.150  21.005  0.00  0.00    +0.000 HD
ATOM     23  H   UNL     1       5.798   1.035  19.833  0.00  0.00    +0.000 HD
ENDBRANCH  19  21
ENDBRANCH  16  17
ENDBRANCH   2  16
TORSDOF 7
ENDMDL
