MODEL 1
REMARK VINA RESULT:      -7.6      0.000      0.000
REMARK  Name = 
REMARK  3 active torsions:
REMARK  status: ('A' for Active; 'I' for Inactive)
REMARK    1  A    between atoms: C_1  and  N_2
REMARK    2  A    between atoms: N_2  and  C_3
REMARK    3  A    between atoms: N_11  and  C_12
REMARK                            x       y       z     vdW  Elec       q    Type
REMARK                         _______ _______ _______ _____ _____    ______ ____
ROOT
ATOM      1  C   UNL     1       7.003   5.467  16.844  0.00  0.00    +0.000 A 
ATOM      2  N   UNL     1       7.750   5.834  17.917  0.00  0.00    +0.000 NA
ATOM      3  C   UNL     1       7.254   5.631  19.154  0.00  0.00    +0.000 A 
ATOM      4  N   UNL     1       6.065   5.106  19.498  0.00  0.00    +0.000 NA
ATOM      5  C   UNL     1       5.351   4.742  18.413  0.00  0.00    +0.000 A 
ATOM      6  C   UNL     1       5.751   4.864  17.091  0.00  0.00    +0.000 A 
ATOM      7  N   UNL     1       4.822   4.317  16.234  0.00  0.00    +0.000 NA
ATOM      8  C   UNL     1       3.877   3.860  17.026  0.00  0.00    +0.000 A 
ATOM      9  N   UNL     1       4.119   4.110  18.364  0.00  0.00    +0.000 N 
ENDROOT
BRANCH   9  10
ATOM     10  C   UNL     1       3.266   3.773  19.447  0.00  0.00    +0.000 A 
ATOM     11  C   UNL     1       3.607   2.724  20.313  0.00  0.00    +0.000 A 
ATOM     12  C   UNL     1       2.771   2.404  21.385  0.00  0.00    +0.000 A 
ATOM     13  C   UNL     1       1.580   3.102  21.578  0.00  0.00    +0.000 A 
ATOM     14  C   UNL     1       1.228   4.131  20.709  0.00  0.00    +0.000 A 
ATOM     15  C   UNL     1       2.073   4.478  19.652  0.00  0.00    +0.000 A 
ENDBRANCH   9  10
BRANCH   1  17
ATOM     16  C   UNL     1       7.100   4.667  14.582  0.00  0.00    +0.000 C 
ATOM     17  N   UNL     1       7.461   5.684  15.542  0.00  0.00    +0.000 N 
ATOM     18  H   UNL     1       7.266   6.644  15.262  0.00  0.00    +0.000 HD
ENDBRANCH   1  17
TORSDOF 2
ENDMDL
MODEL 2
REMARK VINA RESULT:      -7.6      1.749      2.027
REMARK  Name = 
REMARK  3 active torsions:
REMARK  status: ('A' for Active; 'I' for Inactive)
REMARK    1  A    between atoms: C_1  and  N_2
REMARK    2  A    between atoms: N_2  and  C_3
REMARK    3  A    between atoms: N_11  and  C_12
REMARK                            x       y       z     vdW  Elec       q    Type
REMARK                         _______ _______ _______ _____ _____    ______ ____
ROOT
ATOM      1  C   UNL     1       7.201   6.882  17.922  0.00  0.00    +0.000 A 
ATOM      2  N   UNL     1       8.000   6.289  18.845  0.00  0.00    +0.000 NA
ATOM      3  C   UNL     1       7.467   5.359  19.664  0.00  0.00    +0.000 A 
ATOM      4  N   UNL     1       6.197   4.923  19.711  0.00  0.00    +0.000 NA
ATOM      5  C   UNL     1       5.431   5.521  18.777  0.00  0.00    +0.000 A 
ATOM      6  C   UNL     1       5.854   6.466  17.854  0.00  0.00    +0.000 A 
ATOM      7  N   UNL     1       4.841   6.809  16.987  0.00  0.00    +0.000 NA
ATOM      8  C   UNL     1       3.820   6.074  17.371  0.00  0.00    +0.000 A 
ATOM      9  N   UNL     1       4.100   5.288  18.473  0.00  0.00    +0.000 N 
ENDROOT
BRANCH   9  10
ATOM     10  C   UNL     1       3.190   4.422  19.137  0.00  0.00    +0.000 A 
ATOM     11  C   UNL     1       3.037   3.098  18.704  0.00  0.00    +0.000 A 
ATOM     12  C   UNL     1       2.151   2.245  19.368  0.00  0.00    +0.000 A 
ATOM     13  C   UNL     1       1.394   2.717  20.439  0.00  0.00    +0.000 A 
ATOM     14  C   UNL     1       1.529   4.038  20.859  0.00  0.00    +0.000 A 
ATOM     15  C   UNL     1       2.435   4.888  20.220  0.00  0.00    +0.000 A 
ENDBRANCH   9  10
BRANCH   1  17
ATOM     16  C   UNL     1       8.079   9.107  17.715  0.00  0.00    +0.000 C 
ATOM     17  N   UNL     1       7.700   7.872  17.071  0.00  0.00    +0.000 N 
ATOM     18  H   UNL     1       8.394   7.470  16.441  0.00  0.00    +0.000 HD
ENDBRANCH   1  17
TORSDOF 2
ENDMDL
MODEL 3
REMARK VINA RESULT:      -7.6      1.752      2.223
REMARK  Name = 
REMARK  3 active torsions:
REMARK  status: ('A' for Active; 'I' for Inactive)
REMARK    1  A    between atoms: C_1  and  N_2
REMARK    2  A    between atoms: N_2  and  C_3
REMARK    3  A    between atoms: N_11  and  C_12
REMARK                            x       y       z     vdW  Elec       q    Type
REMARK                         _______ _______ _______ _____ _____    ______ ____
ROOT
ATOM      1  C   UNL     1       7.180   6.873  17.917  0.00  0.00    +0.000 A 
ATOM      2  N   UNL     1       7.964   6.265  18.843  0.00  0.00    +0.000 NA
ATOM      3  C   UNL     1       7.413   5.340  19.654  0.00  0.00    +0.000 A 
ATOM      4  N   UNL     1       6.137   4.921  19.692  0.00  0.00    +0.000 NA
ATOM      5  C   UNL     1       5.385   5.534  18.755  0.00  0.00    +0.000 A 
ATOM      6  C   UNL     1       5.827   6.477  17.839  0.00  0.00    +0.000 A 
ATOM      7  N   UNL     1       4.825   6.837  16.967  0.00  0.00    +0.000 NA
ATOM      8  C   UNL     1       3.791   6.116  17.342  0.00  0.00    +0.000 A 
ATOM      9  N   UNL     1       4.053   5.321  18.443  0.00  0.00    +0.000 N 
ENDROOT
BRANCH   9  10
ATOM     10  C   UNL     1       3.127   4.466  19.097  0.00  0.00    +0.000 A 
ATOM     11  C   UNL     1       2.265   4.979  20.076  0.00  0.00    +0.000 A 
ATOM     12  C   UNL     1       1.346   4.137  20.708  0.00  0.00    +0.000 A 
ATOM     13  C   UNL     1       1.309   2.779  20.393  0.00  0.00    +0.000 A 
ATOM     14  C   UNL     1       2.177   2.262  19.436  0.00  0.00    +0.000 A 
ATOM     15  C   UNL     1       3.078   3.103  18.777  0.00  0.00    +0.000 A 
ENDBRANCH   9  10
BRANCH   1  17
ATOM     16  C   UNL     1       8.081   9.091  17.723  0.00  0.00    +0.000 C 
ATOM     17  N   UNL     1       7.697   7.859  17.073  0.00  0.00    +0.000 N 
ATOM     18  H   UNL     1       8.395   7.452  16.451  0.00  0.00    +0.000 HD
ENDBRANCH   1  17
TORSDOF 2
ENDMDL
MODEL 4
REMARK VINA RESULT:      -7.5      2.013      2.614
REMARK  Name = 
REMARK  3 active torsions:
REMARK  status: ('A' for Active; 'I' for Inactive)
REMARK    1  A    between atoms: C_1  and  N_2
REMARK    2  A    between atoms: N_2  and  C_3
REMARK    3  A    between atoms: N_11  and  C_12
REMARK                            x       y       z     vdW  Elec       q    Type
REMARK                         _______ _______ _______ _____ _____    ______ ____
ROOT
ATOM      1  C   UNL     1       7.546   7.165  17.878  0.00  0.00    +0.000 A 
ATOM      2  N   UNL     1       8.088   6.577  18.974  0.00  0.00    +0.000 NA
ATOM      3  C   UNL     1       7.436   5.547  19.549  0.00  0.00    +0.000 A 
ATOM      4  N   UNL     1       6.263   4.999  19.187  0.00  0.00    +0.000 NA
ATOM      5  C   UNL     1       5.754   5.596  18.090  0.00  0.00    +0.000 A 
ATOM      6  C   UNL     1       6.332   6.640  17.383  0.00  0.00    +0.000 A 
ATOM      7  N   UNL     1       5.595   6.956  16.264  0.00  0.00    +0.000 NA
ATOM      8  C   UNL     1       4.589   6.109  16.285  0.00  0.00    +0.000 A 
ATOM      9  N   UNL     1       4.607   5.271  17.385  0.00  0.00    +0.000 N 
ENDROOT
BRANCH   9  10
ATOM     10  C   UNL     1       3.637   4.282  17.700  0.00  0.00    +0.000 A 
ATOM     11  C   UNL     1       3.976   2.923  17.651  0.00  0.00    +0.000 A 
ATOM     12  C   UNL     1       3.023   1.954  17.975  0.00  0.00    +0.000 A 
ATOM     13  C   UNL     1       1.725   2.334  18.315  0.00  0.00    +0.000 A 
ATOM     14  C   UNL     1       1.380   3.682  18.346  0.00  0.00    +0.000 A 
ATOM     15  C   UNL     1       2.335   4.659  18.053  0.00  0.00    +0.000 A 
ENDBRANCH   9  10
BRANCH   1  17
ATOM     16  C   UNL     1       8.391   9.400  18.115  0.00  0.00    +0.000 C 
ATOM     17  N   UNL     1       8.169   8.255  17.264  0.00  0.00    +0.000 N 
ATOM     18  H   UNL     1       8.977   7.936  16.732  0.00  0.00    +0.000 HD
ENDBRANCH   1  17
TORSDOF 2
ENDMDL
MODEL 5
REMARK VINA RESULT:      -7.4      0.415      1.238
REMARK  Name = 
REMARK  3 active torsions:
REMARK  status: ('A' for Active; 'I' for Inactive)
REMARK    1  A    between atoms: C_1  and  N_2
REMARK    2  A    between atoms: N_2  and  C_3
REMARK    3  A    between atoms: N_11  and  C_12
REMARK                            x       y       z     vdW  Elec       q    Type
REMARK                         _______ _______ _______ _____ _____    ______ ____
ROOT
ATOM      1  C   UNL     1       7.045   4.953  16.818  0.00  0.00    +0.000 A 
ATOM      2  N   UNL     1       7.709   5.520  17.857  0.00  0.00    +0.000 NA
ATOM      3  C   UNL     1       7.137   5.506  19.078  0.00  0.00    +0.000 A 
ATOM      4  N   UNL     1       5.944   5.001  19.432  0.00  0.00    +0.000 NA
ATOM      5  C   UNL     1       5.313   4.435  18.382  0.00  0.00    +0.000 A 
ATOM      6  C   UNL     1       5.796   4.351  17.085  0.00  0.00    +0.000 A 
ATOM      7  N   UNL     1       4.943   3.635  16.277  0.00  0.00    +0.000 NA
ATOM      8  C   UNL     1       3.959   3.279  17.075  0.00  0.00    +0.000 A 
ATOM      9  N   UNL     1       4.105   3.757  18.364  0.00  0.00    +0.000 N 
ENDROOT
BRANCH   9  10
ATOM     10  C   UNL     1       3.191   3.572  19.435  0.00  0.00    +0.000 A 
ATOM     11  C   UNL     1       1.991   4.295  19.469  0.00  0.00    +0.000 A 
ATOM     12  C   UNL     1       1.088   4.100  20.517  0.00  0.00    +0.000 A 
ATOM     13  C   UNL     1       1.392   3.212  21.548  0.00  0.00    +0.000 A 
ATOM     14  C   UNL     1       2.592   2.507  21.528  0.00  0.00    +0.000 A 
ATOM     15  C   UNL     1       3.487   2.673  20.468  0.00  0.00    +0.000 A 
ENDBRANCH   9  10
BRANCH   1  17
ATOM     16  C   UNL     1       6.616   4.941  14.455  0.00  0.00    +0.000 C 
ATOM     17  N   UNL     1       7.582   4.968  15.528  0.00  0.00    +0.000 N 
ATOM     18  H   UNL     1       8.298   5.690  15.460  0.00  0.00    +0.000 HD
ENDBRANCH   1  17
TORSDOF 2
ENDMDL
MODEL 6
REMARK VINA RESULT:      -7.2      1.995      5.852
REMARK  Name = 
REMARK  3 active torsions:
REMARK  status: ('A' for Active; 'I' for Inactive)
REMARK    1  A    between atoms: C_1  and  N_2
REMARK    2  A    between atoms: N_2  and  C_3
REMARK    3  A    between atoms: N_11  and  C_12
REMARK                            x       y       z     vdW  Elec       q    Type
REMARK                         _______ _______ _______ _____ _____    ______ ____
ROOT
ATOM      1  C   UNL     1       1.680   4.089  20.151  0.00  0.00    +0.000 A 
ATOM      2  N   UNL     1       1.715   5.427  20.378  0.00  0.00    +0.000 NA
ATOM      3  C   UNL     1       2.589   6.181  19.682  0.00  0.00    +0.000 A 
ATOM      4  N   UNL     1       3.483   5.782  18.761  0.00  0.00    +0.000 NA
ATOM      5  C   UNL     1       3.418   4.452  18.550  0.00  0.00    +0.000 A 
ATOM      6  C   UNL     1       2.550   3.566  19.170  0.00  0.00    +0.000 A 
ATOM      7  N   UNL     1       2.685   2.294  18.663  0.00  0.00    +0.000 NA
ATOM      8  C   UNL     1       3.615   2.407  17.739  0.00  0.00    +0.000 A 
ATOM      9  N   UNL     1       4.126   3.687  17.637  0.00  0.00    +0.000 N 
ENDROOT
BRANCH   9  10
ATOM     10  C   UNL     1       5.162   4.108  16.762  0.00  0.00    +0.000 A 
ATOM     11  C   UNL     1       4.933   4.173  15.380  0.00  0.00    +0.000 A 
ATOM     12  C   UNL     1       5.952   4.600  14.524  0.00  0.00    +0.000 A 
ATOM     13  C   UNL     1       7.206   4.929  15.036  0.00  0.00    +0.000 A 
ATOM     14  C   UNL     1       7.442   4.847  16.405  0.00  0.00    +0.000 A 
ATOM     15  C   UNL     1       6.421   4.450  17.272  0.00  0.00    +0.000 A 
ENDBRANCH   9  10
BRANCH   1  17
ATOM     16  C   UNL     1       1.429   2.478  21.913  0.00  0.00    +0.000 C 
ATOM     17  N   UNL     1       0.813   3.262  20.869  0.00  0.00    +0.000 N 
ATOM     18  H   UNL     1      -0.019   3.784  21.141  0.00  0.00    +0.000 HD
ENDBRANCH   1  17
TORSDOF 2
ENDMDL
MODEL 7
REMARK VINA RESULT:      -7.2      1.994      5.788
REMARK  Name = 
REMARK  3 active torsions:
REMARK  status: ('A' for Active; 'I' for Inactive)
REMARK    1  A    between atoms: C_1  and  N_2
REMARK    2  A    between atoms: N_2  and  C_3
REMARK    3  A    between atoms: N_11  and  C_12
REMARK                            x       y       z     vdW  Elec       q    Type
REMARK                         _______ _______ _______ _____ _____    ______ ____
ROOT
ATOM      1  C   UNL     1       1.687   4.092  20.162  0.00  0.00    +0.000 A 
ATOM      2  N   UNL     1       1.713   5.433  20.375  0.00  0.00    +0.000 NA
ATOM      3  C   UNL     1       2.582   6.185  19.670  0.00  0.00    +0.000 A 
ATOM      4  N   UNL     1       3.478   5.782  18.753  0.00  0.00    +0.000 NA
ATOM      5  C   UNL     1       3.421   4.449  18.556  0.00  0.00    +0.000 A 
ATOM      6  C   UNL     1       2.559   3.564  19.186  0.00  0.00    +0.000 A 
ATOM      7  N   UNL     1       2.702   2.287  18.692  0.00  0.00    +0.000 NA
ATOM      8  C   UNL     1       3.630   2.397  17.767  0.00  0.00    +0.000 A 
ATOM      9  N   UNL     1       4.133   3.679  17.650  0.00  0.00    +0.000 N 
ENDROOT
BRANCH   9  10
ATOM     10  C   UNL     1       5.166   4.097  16.770  0.00  0.00    +0.000 A 
ATOM     11  C   UNL     1       6.426   4.444  17.277  0.00  0.00    +0.000 A 
ATOM     12  C   UNL     1       7.443   4.841  16.406  0.00  0.00    +0.000 A 
ATOM     13  C   UNL     1       7.199   4.928  15.036  0.00  0.00    +0.000 A 
ATOM     14  C   UNL     1       5.943   4.604  14.531  0.00  0.00    +0.000 A 
ATOM     15  C   UNL     1       4.929   4.176  15.391  0.00  0.00    +0.000 A 
ENDBRANCH   9  10
BRANCH   1  17
ATOM     16  C   UNL     1       1.453   2.472  21.920  0.00  0.00    +0.000 C 
ATOM     17  N   UNL     1       0.825   3.267  20.890  0.00  0.00    +0.000 N 
ATOM     18  H   UNL     1       0.002   3.794  21.178  0.00  0.00    +0.000 HD
ENDBRANCH   1  17
TORSDOF 2
ENDMDL
MODEL 8
REMARK VINA RESULT:      -6.9      3.114      4.722
REMARK  Name = 
REMARK  3 active torsions:
REMARK  status: ('A' for Active; 'I' for Inactive)
REMARK    1  A    between atoms: C_1  and  N_2
REMARK    2  A    between atoms: N_2  and  C_3
REMARK    3  A    between atoms: N_11  and  C_12
REMARK                            x       y       z     vdW  Elec       q    Type
REMARK                         _______ _______ _______ _____ _____    ______ ____
ROOT
ATOM      1  C   UNL     1       4.776   3.462  19.346  0.00  0.00    +0.000 A 
ATOM      2  N   UNL     1       5.837   4.041  18.727  0.00  0.00    +0.000 NA
ATOM      3  C   UNL     1       5.765   5.347  18.400  0.00  0.00    +0.000 A 
ATOM      4  N   UNL     1       4.743   6.198  18.594  0.00  0.00    +0.000 NA
ATOM      5  C   UNL     1       3.710   5.598  19.219  0.00  0.00    +0.000 A 
ATOM      6  C   UNL     1       3.661   4.277  19.638  0.00  0.00    +0.000 A 
ATOM      7  N   UNL     1       2.496   4.010  20.320  0.00  0.00    +0.000 NA
ATOM      8  C   UNL     1       1.849   5.156  20.324  0.00  0.00    +0.000 A 
ATOM      9  N   UNL     1       2.517   6.159  19.647  0.00  0.00    +0.000 N 
ENDROOT
BRANCH   9  10
ATOM     10  C   UNL     1       2.055   7.487  19.449  0.00  0.00    +0.000 A 
ATOM     11  C   UNL     1       1.487   8.201  20.513  0.00  0.00    +0.000 A 
ATOM     12  C   UNL     1       1.046   9.512  20.318  0.00  0.00    +0.000 A 
ATOM     13  C   UNL     1       1.137  10.101  19.058  0.00  0.00    +0.000 A 
ATOM     14  C   UNL     1       1.682   9.389  17.994  0.00  0.00    +0.000 A 
ATOM     15  C   UNL     1       2.154   8.088  18.187  0.00  0.00    +0.000 A 
ENDBRANCH   9  10
BRANCH   1  17
ATOM     16  C   UNL     1       3.967   1.257  18.848  0.00  0.00    +0.000 C 
ATOM     17  N   UNL     1       4.791   2.105  19.678  0.00  0.00    +0.000 N 
ATOM     18  H   UNL     1       5.751   1.792  19.814  0.00  0.00    +0.000 HD
ENDBRANCH   1  17
TORSDOF 2
ENDMDL
MODEL 9
REMARK VINA RESULT:      -6.8      2.978      5.179
REMARK  Name = 
REMARK  3 active torsions:
REMARK  status: ('A' for Active; 'I' for Inactive)
REMARK    1  A    between atoms: C_1  and  N_2
REMARK    2  A    between atoms: N_2  and  C_3
REMARK    3  A    between atoms: N_11  and  C_12
REMARK                            x       y       z     vdW  Elec       q    Type
REMARK                         _______ _______ _______ _____ _____    ______ ____
ROOT
ATOM      1  C   UNL     1       3.698   2.558  19.572  0.00  0.00    +0.000 A 
ATOM      2  N   UNL     1       2.425   2.099  19.664  0.00  0.00    +0.000 NA
ATOM      3  C   UNL     1       1.410   2.986  19.624  0.00  0.00    +0.000 A 
ATOM      4  N   UNL     1       1.478   4.323  19.515  0.00  0.00    +0.000 NA
ATOM      5  C   UNL     1       2.754   4.748  19.415  0.00  0.00    +0.000 A 
ATOM      6  C   UNL     1       3.886   3.947  19.410  0.00  0.00    +0.000 A 
ATOM      7  N   UNL     1       5.026   4.691  19.206  0.00  0.00    +0.000 NA
ATOM      8  C   UNL     1       4.592   5.926  19.077  0.00  0.00    +0.000 A 
ATOM      9  N   UNL     1       3.222   6.038  19.222  0.00  0.00    +0.000 N 
ENDROOT
BRANCH   9  10
ATOM     10  C   UNL     1       2.470   7.242  19.174  0.00  0.00    +0.000 A 
ATOM     11  C   UNL     1       1.839   7.725  20.329  0.00  0.00    +0.000 A 
ATOM     12  C   UNL     1       1.112   8.917  20.280  0.00  0.00    +0.000 A 
ATOM     13  C   UNL     1       0.983   9.611  19.078  0.00  0.00    +0.000 A 
ATOM     14  C   UNL     1       1.591   9.124  17.924  0.00  0.00    +0.000 A 
ATOM     15  C   UNL     1       2.346   7.949  17.971  0.00  0.00    +0.000 A 
ENDBRANCH   9  10
BRANCH   1  17
ATOM     16  C   UNL     1       5.172   1.277  20.970  0.00  0.00    +0.000 C 
ATOM     17  N   UNL     1       4.784   1.681  19.638  0.00  0.00    +0.000 N 
ATOM     18  H   UNL     1       4.661   0.926  18.966  0.00  0.00    +0.000 HD
ENDBRANCH   1  17
TORSDOF 2
ENDMDL
