MODEL 1
REMARK VINA RESULT:     -10.1      0.000      0.000
REMARK  Name = 
REMARK  7 active torsions:
REMARK  status: ('A' for Active; 'I' for Inactive)
REMARK    1  A    between atoms: C_1  and  C_2
REMARK    2  A    between atoms: C_2  and  C_3
REMARK    3  A    between atoms: C_2  and  C_4
REMARK    4  A    between atoms: C_2  and  C_5
REMARK    5  A    between atoms: C_8  and  C_9
REMARK    6  A    between atoms: C_9  and  C_10
REMARK    7  A    between atoms: C_9  and  C_19
REMARK                            x       y       z     vdW  Elec       q    Type
REMARK                         _______ _______ _______ _____ _____    ______ ____
ROOT
ATOM      1  C   UNL     1       4.102   4.920  17.172  0.00  0.00    +0.000 C 
ENDROOT
BRANCH   1   2
ATOM      2  C   UNL     1       3.510   3.699  17.916  0.00  0.00    +0.000 A 
ATOM      3  C   UNL     1       2.528   2.944  17.263  0.00  0.00    +0.000 A 
ATOM      4  N   UNL     1       1.401   3.540  17.887  0.00  0.00    +0.000 N 
ATOM      5  C   UNL     1       1.655   3.336  19.233  0.00  0.00    +0.000 A 
ATOM      6  C   UNL     1       0.768   3.041  20.281  0.00  0.00    +0.000 A 
ATOM      7  C   UNL     1       1.329   2.584  21.464  0.00  0.00    +0.000 A 
ATOM      8  C   UNL     1       2.713   2.531  21.604  0.00  0.00    +0.000 A 
ATOM      9  C   UNL     1       3.592   2.974  20.568  0.00  0.00    +0.000 A 
ATOM     10  C   UNL     1       3.060   3.404  19.316  0.00  0.00    +0.000 A 
ATOM     11  H   UNL     1       0.940   4.380  17.545  0.00  0.00    +0.000 HD
ENDBRANCH   1   2
BRANCH   1  12
ATOM     12  C   UNL     1       5.307   4.648  16.337  0.00  0.00    +0.000 A 
ATOM     13  C   UNL     1       6.586   4.703  16.909  0.00  0.00    +0.000 A 
ATOM     14  N   UNL     1       7.082   5.705  16.048  0.00  0.00    +0.000 N 
ATOM     15  C   UNL     1       6.902   5.106  14.804  0.00  0.00    +0.000 A 
ATOM     16  C   UNL     1       7.660   5.239  13.637  0.00  0.00    +0.000 A 
ATOM     17  C   UNL     1       7.291   4.455  12.552  0.00  0.00    +0.000 A 
ATOM     18  C   UNL     1       6.159   3.643  12.636  0.00  0.00    +0.000 A 
ATOM     19  C   UNL     1       5.325   3.624  13.796  0.00  0.00    +0.000 A 
ATOM     20  C   UNL     1       5.711   4.352  14.954  0.00  0.00    +0.000 A 
ATOM     21  H   UNL     1       6.762   6.656  16.167  0.00  0.00    +0.000 HD
ENDBRANCH   1  12
BRANCH   1  25
ATOM     22  C   UNL     1       1.994   8.688  18.629  0.00  0.00    +0.000 A 
ATOM     23  C   UNL     1       2.251   7.534  19.409  0.00  0.00    +0.000 A 
ATOM     24  C   UNL     1       3.026   6.400  18.979  0.00  0.00    +0.000 A 
ATOM     25  C   UNL     1       3.672   6.344  17.748  0.00  0.00    +0.000 A 
ATOM     26  C   UNL     1       3.582   7.559  17.016  0.00  0.00    +0.000 A 
ATOM     27  C   UNL     1       2.755   8.692  17.438  0.00  0.00    +0.000 A 
BRANCH  22  29
ATOM     28  C   UNL     1       0.372   9.641  20.479  0.00  0.00    +0.000 C 
ATOM     29  C   UNL     1       0.899   9.776  19.010  0.00  0.00    +0.000 C 
ATOM     30  C   UNL     1      -0.388   9.880  18.107  0.00  0.00    +0.000 C 
ATOM     31  C   UNL     1       1.460  11.216  18.903  0.00  0.00    +0.000 C 
ENDBRANCH  22  29
ENDBRANCH   1  25
TORSDOF 4
ENDMDL
MODEL 2
REMARK VINA RESULT:      -9.1      4.014     10.103
REMARK  Name = 
REMARK  7 active torsions:
REMARK  status: ('A' for Active; 'I' for Inactive)
REMARK    1  A    between atoms: C_1  and  C_2
REMARK    2  A    between atoms: C_2  and  C_3
REMARK    3  A    between atoms: C_2  and  C_4
REMARK    4  A    between atoms: C_2  and  C_5
REMARK    5  A    between atoms: C_8  and  C_9
REMARK    6  A    between atoms: C_9  and  C_10
REMARK    7  A    between atoms: C_9  and  C_19
REMARK                            x       y       z     vdW  Elec       q    Type
REMARK                         _______ _______ _______ _____ _____    ______ ____
ROOT
ATOM      1  C   UNL     1      -0.217  10.631  20.296  0.00  0.00    +0.000 C 
ENDROOT
BRANCH   1   2
ATOM      2  C   UNL     1      -0.861  11.214  19.015  0.00  0.00    +0.000 A 
ATOM      3  C   UNL     1      -1.222  12.566  19.017  0.00  0.00    +0.000 A 
ATOM      4  N   UNL     1      -2.599  12.383  19.310  0.00  0.00    +0.000 N 
ATOM      5  C   UNL     1      -3.020  11.552  18.285  0.00  0.00    +0.000 A 
ATOM      6  C   UNL     1      -4.239  11.531  17.588  0.00  0.00    +0.000 A 
ATOM      7  C   UNL     1      -4.272  10.801  16.410  0.00  0.00    +0.000 A 
ATOM      8  C   UNL     1      -3.163  10.055  16.020  0.00  0.00    +0.000 A 
ATOM      9  C   UNL     1      -1.984   9.982  16.826  0.00  0.00    +0.000 A 
ATOM     10  C   UNL     1      -1.887  10.757  18.020  0.00  0.00    +0.000 A 
ATOM     11  H   UNL     1      -2.975  12.312  20.252  0.00  0.00    +0.000 HD
ENDBRANCH   1   2
BRANCH   1  12
ATOM     12  C   UNL     1      -0.393  11.442  21.535  0.00  0.00    +0.000 A 
ATOM     13  C   UNL     1      -0.802  10.826  22.727  0.00  0.00    +0.000 A 
ATOM     14  N   UNL     1      -1.968  11.605  22.894  0.00  0.00    +0.000 N 
ATOM     15  C   UNL     1      -1.432  12.890  22.924  0.00  0.00    +0.000 A 
ATOM     16  C   UNL     1      -1.876  14.020  23.616  0.00  0.00    +0.000 A 
ATOM     17  C   UNL     1      -1.096  15.164  23.522  0.00  0.00    +0.000 A 
ATOM     18  C   UNL     1       0.032  15.170  22.699  0.00  0.00    +0.000 A 
ATOM     19  C   UNL     1       0.391  14.041  21.900  0.00  0.00    +0.000 A 
ATOM     20  C   UNL     1      -0.337  12.827  22.026  0.00  0.00    +0.000 A 
ATOM     21  H   UNL     1      -2.761  11.435  22.291  0.00  0.00    +0.000 HD
ENDBRANCH   1  12
BRANCH   1  25
ATOM     22  C   UNL     1       2.358   7.068  19.100  0.00  0.00    +0.000 A 
ATOM     23  C   UNL     1       2.182   8.248  18.338  0.00  0.00    +0.000 A 
ATOM     24  C   UNL     1       1.469   9.419  18.779  0.00  0.00    +0.000 A 
ATOM     25  C   UNL     1       0.919   9.540  20.051  0.00  0.00    +0.000 A 
ATOM     26  C   UNL     1       1.234   8.444  20.901  0.00  0.00    +0.000 A 
ATOM     27  C   UNL     1       1.921   7.237  20.434  0.00  0.00    +0.000 A 
BRANCH  22  29
ATOM     28  C   UNL     1       3.995   5.889  17.400  0.00  0.00    +0.000 C 
ATOM     29  C   UNL     1       2.881   5.698  18.484  0.00  0.00    +0.000 C 
ATOM     30  C   UNL     1       1.824   4.726  17.836  0.00  0.00    +0.000 C 
ATOM     31  C   UNL     1       3.508   4.784  19.566  0.00  0.00    +0.000 C 
ENDBRANCH  22  29
ENDBRANCH   1  25
TORSDOF 4
ENDMDL
MODEL 3
REMARK VINA RESULT:      -8.7      3.990     10.042
REMARK  Name = 
REMARK  7 active torsions:
REMARK  status: ('A' for Active; 'I' for Inactive)
REMARK    1  A    between atoms: C_1  and  C_2
REMARK    2  A    between atoms: C_2  and  C_3
REMARK    3  A    between atoms: C_2  and  C_4
REMARK    4  A    between atoms: C_2  and  C_5
REMARK    5  A    between atoms: C_8  and  C_9
REMARK    6  A    between atoms: C_9  and  C_10
REMARK    7  A    between atoms: C_9  and  C_19
REMARK                            x       y       z     vdW  Elec       q    Type
REMARK                         _______ _______ _______ _____ _____    ______ ____
ROOT
ATOM      1  C   UNL     1       0.018  10.982  18.741  0.00  0.00    +0.000 C 
ENDROOT
BRANCH   1   2
ATOM      2  C   UNL     1       0.306  12.345  19.415  0.00  0.00    +0.000 A 
ATOM      3  C   UNL     1       0.580  12.356  20.787  0.00  0.00    +0.000 A 
ATOM      4  N   UNL     1      -0.723  12.711  21.226  0.00  0.00    +0.000 N 
ATOM      5  C   UNL     1      -0.956  13.900  20.554  0.00  0.00    +0.000 A 
ATOM      6  C   UNL     1      -1.633  15.054  20.979  0.00  0.00    +0.000 A 
ATOM      7  C   UNL     1      -1.447  16.201  20.220  0.00  0.00    +0.000 A 
ATOM      8  C   UNL     1      -0.703  16.147  19.046  0.00  0.00    +0.000 A 
ATOM      9  C   UNL     1      -0.145  14.922  18.564  0.00  0.00    +0.000 A 
ATOM     10  C   UNL     1      -0.267  13.729  19.337  0.00  0.00    +0.000 A 
ATOM     11  H   UNL     1      -1.464  12.039  21.409  0.00  0.00    +0.000 HD
ENDBRANCH   1   2
BRANCH   1  12
ATOM     12  C   UNL     1      -1.379  10.780  18.260  0.00  0.00    +0.000 A 
ATOM     13  C   UNL     1      -1.660   9.787  17.310  0.00  0.00    +0.000 A 
ATOM     14  N   UNL     1      -2.201  10.664  16.346  0.00  0.00    +0.000 N 
ATOM     15  C   UNL     1      -3.239  11.250  17.067  0.00  0.00    +0.000 A 
ATOM     16  C   UNL     1      -4.477  11.717  16.617  0.00  0.00    +0.000 A 
ATOM     17  C   UNL     1      -5.360  12.190  17.579  0.00  0.00    +0.000 A 
ATOM     18  C   UNL     1      -4.961  12.254  18.916  0.00  0.00    +0.000 A 
ATOM     19  C   UNL     1      -3.642  11.893  19.329  0.00  0.00    +0.000 A 
ATOM     20  C   UNL     1      -2.736  11.332  18.389  0.00  0.00    +0.000 A 
ATOM     21  H   UNL     1      -1.579  11.272  15.832  0.00  0.00    +0.000 HD
ENDBRANCH   1  12
BRANCH   1  25
ATOM     22  C   UNL     1       2.397   7.125  19.212  0.00  0.00    +0.000 A 
ATOM     23  C   UNL     1       2.476   8.011  18.111  0.00  0.00    +0.000 A 
ATOM     24  C   UNL     1       1.817   9.288  18.027  0.00  0.00    +0.000 A 
ATOM     25  C   UNL     1       1.066   9.825  19.068  0.00  0.00    +0.000 A 
ATOM     26  C   UNL     1       1.115   9.041  20.253  0.00  0.00    +0.000 A 
ATOM     27  C   UNL     1       1.750   7.722  20.318  0.00  0.00    +0.000 A 
BRANCH  22  29
ATOM     28  C   UNL     1       4.440   5.454  19.202  0.00  0.00    +0.000 C 
ATOM     29  C   UNL     1       2.882   5.611  19.154  0.00  0.00    +0.000 C 
ATOM     30  C   UNL     1       2.406   4.727  17.940  0.00  0.00    +0.000 C 
ATOM     31  C   UNL     1       2.346   4.790  20.353  0.00  0.00    +0.000 C 
ENDBRANCH  22  29
ENDBRANCH   1  25
TORSDOF 4
ENDMDL
MODEL 4
REMARK VINA RESULT:      -8.7      4.321     10.225
REMARK  Name = 
REMARK  7 active torsions:
REMARK  status: ('A' for Active; 'I' for Inactive)
REMARK    1  A    between atoms: C_1  and  C_2
REMARK    2  A    between atoms: C_2  and  C_3
REMARK    3  A    between atoms: C_2  and  C_4
REMARK    4  A    between atoms: C_2  and  C_5
REMARK    5  A    between atoms: C_8  and  C_9
REMARK    6  A    between atoms: C_9  and  C_10
REMARK    7  A    between atoms: C_9  and  C_19
REMARK                            x       y       z     vdW  Elec       q    Type
REMARK                         _______ _______ _______ _____ _____    ______ ____
ROOT
ATOM      1  C   UNL     1      -0.673  10.588  19.891  0.00  0.00    +0.000 C 
ENDROOT
BRANCH   1   2
ATOM      2  C   UNL     1      -1.008  11.013  18.441  0.00  0.00    +0.000 A 
ATOM      3  C   UNL     1      -1.157  12.379  18.174  0.00  0.00    +0.000 A 
ATOM      4  N   UNL     1      -2.575  12.419  18.234  0.00  0.00    +0.000 N 
ATOM      5  C   UNL     1      -2.947  11.480  17.287  0.00  0.00    +0.000 A 
ATOM      6  C   UNL     1      -4.028  11.487  16.390  0.00  0.00    +0.000 A 
ATOM      7  C   UNL     1      -3.981  10.572  15.349  0.00  0.00    +0.000 A 
ATOM      8  C   UNL     1      -2.949   9.640  15.286  0.00  0.00    +0.000 A 
ATOM      9  C   UNL     1      -1.939   9.566  16.294  0.00  0.00    +0.000 A 
ATOM     10  C   UNL     1      -1.919  10.519  17.356  0.00  0.00    +0.000 A 
ATOM     11  H   UNL     1      -3.103  12.560  19.092  0.00  0.00    +0.000 HD
ENDBRANCH   1   2
BRANCH   1  12
ATOM     12  C   UNL     1      -1.167  11.499  20.963  0.00  0.00    +0.000 A 
ATOM     13  C   UNL     1      -0.270  12.037  21.897  0.00  0.00    +0.000 A 
ATOM     14  N   UNL     1      -0.910  11.498  23.034  0.00  0.00    +0.000 N 
ATOM     15  C   UNL     1      -2.187  12.038  22.905  0.00  0.00    +0.000 A 
ATOM     16  C   UNL     1      -3.097  12.407  23.900  0.00  0.00    +0.000 A 
ATOM     17  C   UNL     1      -4.283  12.996  23.482  0.00  0.00    +0.000 A 
ATOM     18  C   UNL     1      -4.551  13.125  22.118  0.00  0.00    +0.000 A 
ATOM     19  C   UNL     1      -3.661  12.621  21.121  0.00  0.00    +0.000 A 
ATOM     20  C   UNL     1      -2.404  12.080  21.505  0.00  0.00    +0.000 A 
ATOM     21  H   UNL     1      -0.829  10.508  23.217  0.00  0.00    +0.000 HD
ENDBRANCH   1  12
BRANCH   1  25
ATOM     22  C   UNL     1       2.191   7.045  19.776  0.00  0.00    +0.000 A 
ATOM     23  C   UNL     1       2.121   8.079  18.810  0.00  0.00    +0.000 A 
ATOM     24  C   UNL     1       1.302   9.259  18.918  0.00  0.00    +0.000 A 
ATOM     25  C   UNL     1       0.523   9.543  20.035  0.00  0.00    +0.000 A 
ATOM     26  C   UNL     1       0.710   8.616  21.096  0.00  0.00    +0.000 A 
ATOM     27  C   UNL     1       1.509   7.394  20.964  0.00  0.00    +0.000 A 
BRANCH  22  29
ATOM     28  C   UNL     1       2.488   4.544  20.560  0.00  0.00    +0.000 C 
ATOM     29  C   UNL     1       2.861   5.631  19.496  0.00  0.00    +0.000 C 
ATOM     30  C   UNL     1       4.430   5.569  19.361  0.00  0.00    +0.000 C 
ATOM     31  C   UNL     1       2.418   5.045  18.133  0.00  0.00    +0.000 C 
ENDBRANCH  22  29
ENDBRANCH   1  25
TORSDOF 4
ENDMDL
MODEL 5
REMARK VINA RESULT:      -8.7      4.056      9.720
REMARK  Name = 
REMARK  7 active torsions:
REMARK  status: ('A' for Active; 'I' for Inactive)
REMARK    1  A    between atoms: C_1  and  C_2
REMARK    2  A    between atoms: C_2  and  C_3
REMARK    3  A    between atoms: C_2  and  C_4
REMARK    4  A    between atoms: C_2  and  C_5
REMARK    5  A    between atoms: C_8  and  C_9
REMARK    6  A    between atoms: C_9  and  C_10
REMARK    7  A    between atoms: C_9  and  C_19
REMARK                            x       y       z     vdW  Elec       q    Type
REMARK                         _______ _______ _______ _____ _____    ______ ____
ROOT
ATOM      1  C   UNL     1       0.048  10.941  18.572  0.00  0.00    +0.000 C 
ENDROOT
BRANCH   1   2
ATOM      2  C   UNL     1       0.424  12.365  19.048  0.00  0.00    +0.000 A 
ATOM      3  C   UNL     1       0.100  13.443  18.217  0.00  0.00    +0.000 A 
ATOM      4  N   UNL     1       1.376  13.593  17.612  0.00  0.00    +0.000 N 
ATOM      5  C   UNL     1       2.209  13.781  18.702  0.00  0.00    +0.000 A 
ATOM      6  C   UNL     1       3.336  14.606  18.840  0.00  0.00    +0.000 A 
ATOM      7  C   UNL     1       3.791  14.831  20.131  0.00  0.00    +0.000 A 
ATOM      8  C   UNL     1       3.197  14.173  21.204  0.00  0.00    +0.000 A 
ATOM      9  C   UNL     1       2.142  13.227  21.016  0.00  0.00    +0.000 A 
ATOM     10  C   UNL     1       1.609  13.002  19.712  0.00  0.00    +0.000 A 
ATOM     11  H   UNL     1       1.675  13.083  16.784  0.00  0.00    +0.000 HD
ENDBRANCH   1   2
BRANCH   1  12
ATOM     12  C   UNL     1      -1.373  10.748  18.166  0.00  0.00    +0.000 A 
ATOM     13  C   UNL     1      -1.711   9.756  17.235  0.00  0.00    +0.000 A 
ATOM     14  N   UNL     1      -2.297  10.634  16.299  0.00  0.00    +0.000 N 
ATOM     15  C   UNL     1      -3.291  11.229  17.072  0.00  0.00    +0.000 A 
ATOM     16  C   UNL     1      -4.548  11.704  16.688  0.00  0.00    +0.000 A 
ATOM     17  C   UNL     1      -5.374  12.186  17.694  0.00  0.00    +0.000 A 
ATOM     18  C   UNL     1      -4.905  12.250  19.007  0.00  0.00    +0.000 A 
ATOM     19  C   UNL     1      -3.569  11.880  19.352  0.00  0.00    +0.000 A 
ATOM     20  C   UNL     1      -2.717  11.311  18.366  0.00  0.00    +0.000 A 
ATOM     21  H   UNL     1      -1.699  11.237  15.751  0.00  0.00    +0.000 HD
ENDBRANCH   1  12
BRANCH   1  25
ATOM     22  C   UNL     1       2.297   7.069  19.419  0.00  0.00    +0.000 A 
ATOM     23  C   UNL     1       2.421   7.854  18.247  0.00  0.00    +0.000 A 
ATOM     24  C   UNL     1       1.804   9.138  18.040  0.00  0.00    +0.000 A 
ATOM     25  C   UNL     1       1.054   9.786  19.017  0.00  0.00    +0.000 A 
ATOM     26  C   UNL     1       1.059   9.107  20.266  0.00  0.00    +0.000 A 
ATOM     27  C   UNL     1       1.651   7.780  20.457  0.00  0.00    +0.000 A 
BRANCH  22  29
ATOM     28  C   UNL     1       2.209   4.813  20.783  0.00  0.00    +0.000 C 
ATOM     29  C   UNL     1       2.734   5.543  19.501  0.00  0.00    +0.000 C 
ATOM     30  C   UNL     1       4.272   5.208  19.424  0.00  0.00    +0.000 C 
ATOM     31  C   UNL     1       2.186   4.724  18.305  0.00  0.00    +0.000 C 
ENDBRANCH  22  29
ENDBRANCH   1  25
TORSDOF 4
ENDMDL
MODEL 6
REMARK VINA RESULT:      -8.6      4.075      9.893
REMARK  Name = 
REMARK  7 active torsions:
REMARK  status: ('A' for Active; 'I' for Inactive)
REMARK    1  A    between atoms: C_1  and  C_2
REMARK    2  A    between atoms: C_2  and  C_3
REMARK    3  A    between atoms: C_2  and  C_4
REMARK    4  A    between atoms: C_2  and  C_5
REMARK    5  A    between atoms: C_8  and  C_9
REMARK    6  A    between atoms: C_9  and  C_10
REMARK    7  A    between atoms: C_9  and  C_19
REMARK                            x       y       z     vdW  Elec       q    Type
REMARK                         _______ _______ _______ _____ _____    ______ ____
ROOT
ATOM      1  C   UNL     1      -0.002  11.020  18.405  0.00  0.00    +0.000 C 
ENDROOT
BRANCH   1   2
ATOM      2  C   UNL     1       0.397  12.463  18.797  0.00  0.00    +0.000 A 
ATOM      3  C   UNL     1       1.758  12.750  18.949  0.00  0.00    +0.000 A 
ATOM      4  N   UNL     1       1.807  12.634  20.364  0.00  0.00    +0.000 N 
ATOM      5  C   UNL     1       0.852  13.548  20.778  0.00  0.00    +0.000 A 
ATOM      6  C   UNL     1       0.848  14.400  21.893  0.00  0.00    +0.000 A 
ATOM      7  C   UNL     1      -0.087  15.425  21.892  0.00  0.00    +0.000 A 
ATOM      8  C   UNL     1      -1.025  15.511  20.868  0.00  0.00    +0.000 A 
ATOM      9  C   UNL     1      -1.086  14.542  19.819  0.00  0.00    +0.000 A 
ATOM     10  C   UNL     1      -0.113  13.501  19.752  0.00  0.00    +0.000 A 
ATOM     11  H   UNL     1       1.967  11.758  20.856  0.00  0.00    +0.000 HD
ENDBRANCH   1   2
BRANCH   1  12
ATOM     12  C   UNL     1      -1.437  10.817  18.054  0.00  0.00    +0.000 A 
ATOM     13  C   UNL     1      -1.803   9.826  17.132  0.00  0.00    +0.000 A 
ATOM     14  N   UNL     1      -2.432  10.704  16.223  0.00  0.00    +0.000 N 
ATOM     15  C   UNL     1      -3.399  11.287  17.038  0.00  0.00    +0.000 A 
ATOM     16  C   UNL     1      -4.674  11.753  16.705  0.00  0.00    +0.000 A 
ATOM     17  C   UNL     1      -5.465  12.224  17.744  0.00  0.00    +0.000 A 
ATOM     18  C   UNL     1      -4.945  12.286  19.038  0.00  0.00    +0.000 A 
ATOM     19  C   UNL     1      -3.594  11.925  19.329  0.00  0.00    +0.000 A 
ATOM     20  C   UNL     1      -2.777  11.367  18.308  0.00  0.00    +0.000 A 
ATOM     21  H   UNL     1      -1.860  11.314  15.656  0.00  0.00    +0.000 HD
ENDBRANCH   1  12
BRANCH   1  25
ATOM     22  C   UNL     1       2.278   7.184  19.327  0.00  0.00    +0.000 A 
ATOM     23  C   UNL     1       2.412   7.958  18.148  0.00  0.00    +0.000 A 
ATOM     24  C   UNL     1       1.782   9.232  17.920  0.00  0.00    +0.000 A 
ATOM     25  C   UNL     1       1.010   9.881  18.878  0.00  0.00    +0.000 A 
ATOM     26  C   UNL     1       1.004   9.215  20.133  0.00  0.00    +0.000 A 
ATOM     27  C   UNL     1       1.609   7.897  20.347  0.00  0.00    +0.000 A 
BRANCH  22  29
ATOM     28  C   UNL     1       4.288   5.478  19.455  0.00  0.00    +0.000 C 
ATOM     29  C   UNL     1       2.733   5.664  19.431  0.00  0.00    +0.000 C 
ATOM     30  C   UNL     1       2.204   4.656  18.340  0.00  0.00    +0.000 C 
ATOM     31  C   UNL     1       2.216   4.998  20.731  0.00  0.00    +0.000 C 
ENDBRANCH  22  29
ENDBRANCH   1  25
TORSDOF 4
ENDMDL
MODEL 7
REMARK VINA RESULT:      -8.6      4.392     10.206
REMARK  Name = 
REMARK  7 active torsions:
REMARK  status: ('A' for Active; 'I' for Inactive)
REMARK    1  A    between atoms: C_1  and  C_2
REMARK    2  A    between atoms: C_2  and  C_3
REMARK    3  A    between atoms: C_2  and  C_4
REMARK    4  A    between atoms: C_2  and  C_5
REMARK    5  A    between atoms: C_8  and  C_9
REMARK    6  A    between atoms: C_9  and  C_10
REMARK    7  A    between atoms: C_9  and  C_19
REMARK                            x       y       z     vdW  Elec       q    Type
REMARK                         _______ _______ _______ _____ _____    ______ ____
ROOT
ATOM      1  C   UNL     1      -0.291  10.890  20.490  0.00  0.00    +0.000 C 
ENDROOT
BRANCH   1   2
ATOM      2  C   UNL     1      -0.871  11.348  19.130  0.00  0.00    +0.000 A 
ATOM      3  C   UNL     1      -1.230  12.694  18.989  0.00  0.00    +0.000 A 
ATOM      4  N   UNL     1      -2.620  12.533  19.230  0.00  0.00    +0.000 N 
ATOM      5  C   UNL     1      -2.992  11.609  18.268  0.00  0.00    +0.000 A 
ATOM      6  C   UNL     1      -4.175  11.519  17.518  0.00  0.00    +0.000 A 
ATOM      7  C   UNL     1      -4.151  10.682  16.412  0.00  0.00    +0.000 A 
ATOM      8  C   UNL     1      -3.025   9.907  16.149  0.00  0.00    +0.000 A 
ATOM      9  C   UNL     1      -1.887   9.915  17.014  0.00  0.00    +0.000 A 
ATOM     10  C   UNL     1      -1.847  10.797  18.134  0.00  0.00    +0.000 A 
ATOM     11  H   UNL     1      -3.042  12.549  20.156  0.00  0.00    +0.000 HD
ENDBRANCH   1   2
BRANCH   1  12
ATOM     12  C   UNL     1      -0.467  11.842  21.623  0.00  0.00    +0.000 A 
ATOM     13  C   UNL     1      -1.120  11.430  22.794  0.00  0.00    +0.000 A 
ATOM     14  N   UNL     1      -2.139  12.405  22.737  0.00  0.00    +0.000 N 
ATOM     15  C   UNL     1      -1.390  13.579  22.735  0.00  0.00    +0.000 A 
ATOM     16  C   UNL     1      -1.706  14.832  23.266  0.00  0.00    +0.000 A 
ATOM     17  C   UNL     1      -0.729  15.815  23.187  0.00  0.00    +0.000 A 
ATOM     18  C   UNL     1       0.473  15.548  22.529  0.00  0.00    +0.000 A 
ATOM     19  C   UNL     1       0.719  14.299  21.881  0.00  0.00    +0.000 A 
ATOM     20  C   UNL     1      -0.224  13.242  22.004  0.00  0.00    +0.000 A 
ATOM     21  H   UNL     1      -2.871  12.308  22.047  0.00  0.00    +0.000 HD
ENDBRANCH   1  12
BRANCH   1  25
ATOM     22  C   UNL     1       2.156   7.107  19.804  0.00  0.00    +0.000 A 
ATOM     23  C   UNL     1       2.040   8.188  18.897  0.00  0.00    +0.000 A 
ATOM     24  C   UNL     1       1.369   9.432  19.173  0.00  0.00    +0.000 A 
ATOM     25  C   UNL     1       0.804   9.733  20.408  0.00  0.00    +0.000 A 
ATOM     26  C   UNL     1       1.060   8.742  21.394  0.00  0.00    +0.000 A 
ATOM     27  C   UNL     1       1.704   7.460  21.097  0.00  0.00    +0.000 A 
BRANCH  22  29
ATOM     28  C   UNL     1       1.995   4.509  20.236  0.00  0.00    +0.000 C 
ATOM     29  C   UNL     1       2.632   5.652  19.375  0.00  0.00    +0.000 C 
ATOM     30  C   UNL     1       4.179   5.354  19.356  0.00  0.00    +0.000 C 
ATOM     31  C   UNL     1       2.245   5.331  17.910  0.00  0.00    +0.000 C 
ENDBRANCH  22  29
ENDBRANCH   1  25
TORSDOF 4
ENDMDL
MODEL 8
REMARK VINA RESULT:      -8.5      3.888      9.805
REMARK  Name = 
REMARK  7 active torsions:
REMARK  status: ('A' for Active; 'I' for Inactive)
REMARK    1  A    between atoms: C_1  and  C_2
REMARK    2  A    between atoms: C_2  and  C_3
REMARK    3  A    between atoms: C_2  and  C_4
REMARK    4  A    between atoms: C_2  and  C_5
REMARK    5  A    between atoms: C_8  and  C_9
REMARK    6  A    between atoms: C_9  and  C_10
REMARK    7  A    between atoms: C_9  and  C_19
REMARK                            x       y       z     vdW  Elec       q    Type
REMARK                         _______ _______ _______ _____ _____    ______ ____
ROOT
ATOM      1  C   UNL     1      -0.146  11.013  18.873  0.00  0.00    +0.000 C 
ENDROOT
BRANCH   1   2
ATOM      2  C   UNL     1      -0.017  12.222  19.831  0.00  0.00    +0.000 A 
ATOM      3  C   UNL     1       0.983  12.183  20.809  0.00  0.00    +0.000 A 
ATOM      4  N   UNL     1       0.163  11.752  21.885  0.00  0.00    +0.000 N 
ATOM      5  C   UNL     1      -0.817  12.730  21.931  0.00  0.00    +0.000 A 
ATOM      6  C   UNL     1      -1.466  13.300  23.037  0.00  0.00    +0.000 A 
ATOM      7  C   UNL     1      -2.176  14.470  22.810  0.00  0.00    +0.000 A 
ATOM      8  C   UNL     1      -2.301  14.970  21.517  0.00  0.00    +0.000 A 
ATOM      9  C   UNL     1      -1.746  14.287  20.389  0.00  0.00    +0.000 A 
ATOM     10  C   UNL     1      -0.966  13.108  20.582  0.00  0.00    +0.000 A 
ATOM     11  H   UNL     1      -0.036  10.777  22.092  0.00  0.00    +0.000 HD
ENDBRANCH   1   2
BRANCH   1  12
ATOM     12  C   UNL     1      -1.500  10.789  18.292  0.00  0.00    +0.000 A 
ATOM     13  C   UNL     1      -1.688   9.816  17.299  0.00  0.00    +0.000 A 
ATOM     14  N   UNL     1      -2.186  10.705  16.323  0.00  0.00    +0.000 N 
ATOM     15  C   UNL     1      -3.286  11.244  16.985  0.00  0.00    +0.000 A 
ATOM     16  C   UNL     1      -4.503  11.691  16.463  0.00  0.00    +0.000 A 
ATOM     17  C   UNL     1      -5.462  12.115  17.373  0.00  0.00    +0.000 A 
ATOM     18  C   UNL     1      -5.157  12.153  18.735  0.00  0.00    +0.000 A 
ATOM     19  C   UNL     1      -3.861  11.814  19.230  0.00  0.00    +0.000 A 
ATOM     20  C   UNL     1      -2.877  11.303  18.340  0.00  0.00    +0.000 A 
ATOM     21  H   UNL     1      -1.547  11.342  15.869  0.00  0.00    +0.000 HD
ENDBRANCH   1  12
BRANCH   1  25
ATOM     22  C   UNL     1       2.580   7.367  18.677  0.00  0.00    +0.000 A 
ATOM     23  C   UNL     1       2.577   8.442  17.756  0.00  0.00    +0.000 A 
ATOM     24  C   UNL     1       1.802   9.648  17.894  0.00  0.00    +0.000 A 
ATOM     25  C   UNL     1       1.005   9.916  19.002  0.00  0.00    +0.000 A 
ATOM     26  C   UNL     1       1.126   8.937  20.026  0.00  0.00    +0.000 A 
ATOM     27  C   UNL     1       1.880   7.692  19.862  0.00  0.00    +0.000 A 
BRANCH  22  29
ATOM     28  C   UNL     1       2.137   4.883  17.905  0.00  0.00    +0.000 C 
ATOM     29  C   UNL     1       3.202   5.940  18.353  0.00  0.00    +0.000 C 
ATOM     30  C   UNL     1       4.054   5.232  19.474  0.00  0.00    +0.000 C 
ATOM     31  C   UNL     1       4.228   6.011  17.195  0.00  0.00    +0.000 C 
ENDBRANCH  22  29
ENDBRANCH   1  25
TORSDOF 4
ENDMDL
MODEL 9
REMARK VINA RESULT:      -8.5      3.714      9.140
REMARK  Name = 
REMARK  7 active torsions:
REMARK  status: ('A' for Active; 'I' for Inactive)
REMARK    1  A    between atoms: C_1  and  C_2
REMARK    2  A    between atoms: C_2  and  C_3
REMARK    3  A    between atoms: C_2  and  C_4
REMARK    4  A    between atoms: C_2  and  C_5
REMARK    5  A    between atoms: C_8  and  C_9
REMARK    6  A    between atoms: C_9  and  C_10
REMARK    7  A    between atoms: C_9  and  C_19
REMARK                            x       y       z     vdW  Elec       q    Type
REMARK                         _______ _______ _______ _____ _____    ______ ____
ROOT
ATOM      1  C   UNL     1       0.547  10.764  19.720  0.00  0.00    +0.000 C 
ENDROOT
BRANCH   1   2
ATOM      2  C   UNL     1       0.394  11.284  21.169  0.00  0.00    +0.000 A 
ATOM      3  C   UNL     1       0.188  10.345  22.186  0.00  0.00    +0.000 A 
ATOM      4  N   UNL     1      -1.223  10.477  22.269  0.00  0.00    +0.000 N 
ATOM      5  C   UNL     1      -1.388  11.827  22.526  0.00  0.00    +0.000 A 
ATOM      6  C   UNL     1      -2.327  12.479  23.341  0.00  0.00    +0.000 A 
ATOM      7  C   UNL     1      -2.067  13.804  23.656  0.00  0.00    +0.000 A 
ATOM      8  C   UNL     1      -0.973  14.454  23.090  0.00  0.00    +0.000 A 
ATOM      9  C   UNL     1      -0.115  13.803  22.150  0.00  0.00    +0.000 A 
ATOM     10  C   UNL     1      -0.315  12.426  21.836  0.00  0.00    +0.000 A 
ATOM     11  H   UNL     1      -1.877   9.952  21.693  0.00  0.00    +0.000 HD
ENDBRANCH   1   2
BRANCH   1  12
ATOM     12  C   UNL     1      -0.485  11.232  18.751  0.00  0.00    +0.000 A 
ATOM     13  C   UNL     1      -0.691  12.604  18.550  0.00  0.00    +0.000 A 
ATOM     14  N   UNL     1      -2.053  12.598  18.922  0.00  0.00    +0.000 N 
ATOM     15  C   UNL     1      -2.575  11.677  18.017  0.00  0.00    +0.000 A 
ATOM     16  C   UNL     1      -3.845  11.628  17.436  0.00  0.00    +0.000 A 
ATOM     17  C   UNL     1      -4.072  10.629  16.499  0.00  0.00    +0.000 A 
ATOM     18  C   UNL     1      -3.076   9.687  16.235  0.00  0.00    +0.000 A 
ATOM     19  C   UNL     1      -1.833   9.682  16.939  0.00  0.00    +0.000 A 
ATOM     20  C   UNL     1      -1.533  10.731  17.849  0.00  0.00    +0.000 A 
ATOM     21  H   UNL     1      -2.294  12.494  19.898  0.00  0.00    +0.000 HD
ENDBRANCH   1  12
BRANCH   1  25
ATOM     22  C   UNL     1       2.387   6.697  18.806  0.00  0.00    +0.000 A 
ATOM     23  C   UNL     1       2.402   7.819  17.943  0.00  0.00    +0.000 A 
ATOM     24  C   UNL     1       1.930   9.135  18.288  0.00  0.00    +0.000 A 
ATOM     25  C   UNL     1       1.457   9.464  19.555  0.00  0.00    +0.000 A 
ATOM     26  C   UNL     1       1.596   8.407  20.494  0.00  0.00    +0.000 A 
ATOM     27  C   UNL     1       2.035   7.058  20.127  0.00  0.00    +0.000 A 
BRANCH  22  29
ATOM     28  C   UNL     1       3.834   5.070  17.316  0.00  0.00    +0.000 C 
ATOM     29  C   UNL     1       2.630   5.207  18.308  0.00  0.00    +0.000 C 
ATOM     30  C   UNL     1       1.430   4.450  17.621  0.00  0.00    +0.000 C 
ATOM     31  C   UNL     1       2.953   4.253  19.485  0.00  0.00    +0.000 C 
ENDBRANCH  22  29
ENDBRANCH   1  25
TORSDOF 4
ENDMDL
