MODEL 1
REMARK VINA RESULT:      -6.0      0.000      0.000
REMARK  Name = 
REMARK  2 active torsions:
REMARK  status: ('A' for Active; 'I' for Inactive)
REMARK    1  A    between atoms: C_4  and  C_5
REMARK    2  A    between atoms: C_14  and  C_15
REMARK                            x       y       z     vdW  Elec       q    Type
REMARK                         _______ _______ _______ _____ _____    ______ ____
ROOT
ATOM      1  C   UNL     1       1.235  12.145  20.542  0.00  0.00    +0.000 C 
ATOM      2  N   UNL     1       1.564  13.087  21.373  0.00  0.00    +0.000 NA
ATOM      3  C   UNL     1       2.198  14.271  20.935  0.00  0.00    +0.000 A 
ATOM      4  C   UNL     1       3.366  14.618  21.627  0.00  0.00    +0.000 A 
ATOM      5  C   UNL     1       4.086  15.769  21.301  0.00  0.00    +0.000 A 
ATOM      6  C   UNL     1       3.639  16.601  20.284  0.00  0.00    +0.000 A 
ATOM      7  C   UNL     1       2.467  16.286  19.601  0.00  0.00    +0.000 A 
ATOM      8  C   UNL     1       1.731  15.123  19.917  0.00  0.00    +0.000 A 
ATOM      9  S   UNL     1       0.212  14.922  19.002  0.00  0.00    +0.000 S 
ATOM     10  C   UNL     1       0.261  13.161  18.469  0.00  0.00    +0.000 C 
ATOM     11  C   UNL     1       1.399  12.304  19.040  0.00  0.00    +0.000 C 
ENDROOT
BRANCH  10  12
ATOM     12  C   UNL     1      -1.098  12.531  18.719  0.00  0.00    +0.000 A 
ATOM     13  C   UNL     1      -1.744  11.527  18.010  0.00  0.00    +0.000 A 
ATOM     14  C   UNL     1      -3.119  11.390  18.376  0.00  0.00    +0.000 A 
ATOM     15  C   UNL     1      -4.164  10.612  17.884  0.00  0.00    +0.000 A 
ATOM     16  N   UNL     1      -5.428  10.842  18.299  0.00  0.00    +0.000 NA
ATOM     17  C   UNL     1      -5.619  11.804  19.217  0.00  0.00    +0.000 A 
ATOM     18  N   UNL     1      -4.688  12.538  19.842  0.00  0.00    +0.000 NA
ATOM     19  C   UNL     1      -3.454  12.290  19.375  0.00  0.00    +0.000 A 
ATOM     20  S   UNL     1      -2.102  13.136  19.973  0.00  0.00    +0.000 S 
ENDBRANCH  10  12
BRANCH   1  24
ATOM     21  C   UNL     1      -0.434   9.348  22.451  0.00  0.00    +0.000 A 
ATOM     22  C   UNL     1       0.041   8.533  21.453  0.00  0.00    +0.000 A 
ATOM     23  S   UNL     1       0.824   9.422  20.221  0.00  0.00    +0.000 S 
ATOM     24  C   UNL     1       0.607  10.916  21.048  0.00  0.00    +0.000 A 
ATOM     25  C   UNL     1      -0.149  10.720  22.194  0.00  0.00    +0.000 A 
ENDBRANCH   1  24
TORSDOF 2
ENDMDL
MODEL 2
REMARK VINA RESULT:      -6.0      3.354      5.616
REMARK  Name = 
REMARK  2 active torsions:
REMARK  status: ('A' for Active; 'I' for Inactive)
REMARK    1  A    between atoms: C_4  and  C_5
REMARK    2  A    between atoms: C_14  and  C_15
REMARK                            x       y       z     vdW  Elec       q    Type
REMARK                         _______ _______ _______ _____ _____    ______ ____
ROOT
ATOM      1  C   UNL     1       0.038  14.218  21.328  0.00  0.00    +0.000 C 
ATOM      2  N   UNL     1       0.111  14.496  22.595  0.00  0.00    +0.000 NA
ATOM      3  C   UNL     1      -1.041  14.529  23.412  0.00  0.00    +0.000 A 
ATOM      4  C   UNL     1      -1.198  15.690  24.182  0.00  0.00    +0.000 A 
ATOM      5  C   UNL     1      -2.288  15.847  25.040  0.00  0.00    +0.000 A 
ATOM      6  C   UNL     1      -3.234  14.838  25.151  0.00  0.00    +0.000 A 
ATOM      7  C   UNL     1      -3.082  13.667  24.412  0.00  0.00    +0.000 A 
ATOM      8  C   UNL     1      -1.987  13.496  23.538  0.00  0.00    +0.000 A 
ATOM      9  S   UNL     1      -1.905  11.902  22.738  0.00  0.00    +0.000 S 
ATOM     10  C   UNL     1      -1.560  12.320  20.980  0.00  0.00    +0.000 C 
ATOM     11  C   UNL     1      -1.265  13.795  20.672  0.00  0.00    +0.000 C 
ENDROOT
BRANCH  10  12
ATOM     12  C   UNL     1      -0.465  11.406  20.460  0.00  0.00    +0.000 A 
ATOM     13  C   UNL     1      -0.011  11.231  19.159  0.00  0.00    +0.000 A 
ATOM     14  C   UNL     1       0.838  10.090  19.020  0.00  0.00    +0.000 A 
ATOM     15  C   UNL     1       1.434   9.472  17.922  0.00  0.00    +0.000 A 
ATOM     16  N   UNL     1       2.030   8.270  18.067  0.00  0.00    +0.000 NA
ATOM     17  C   UNL     1       2.057   7.731  19.299  0.00  0.00    +0.000 A 
ATOM     18  N   UNL     1       1.621   8.276  20.443  0.00  0.00    +0.000 NA
ATOM     19  C   UNL     1       1.014   9.456  20.239  0.00  0.00    +0.000 A 
ATOM     20  S   UNL     1       0.326  10.325  21.533  0.00  0.00    +0.000 S 
ENDBRANCH  10  12
BRANCH   1  24
ATOM     21  C   UNL     1       3.509  14.134  19.844  0.00  0.00    +0.000 A 
ATOM     22  C   UNL     1       2.938  14.752  18.759  0.00  0.00    +0.000 A 
ATOM     23  S   UNL     1       1.246  14.917  18.933  0.00  0.00    +0.000 S 
ATOM     24  C   UNL     1       1.259  14.229  20.510  0.00  0.00    +0.000 A 
ATOM     25  C   UNL     1       2.537  13.792  20.829  0.00  0.00    +0.000 A 
ENDBRANCH   1  24
TORSDOF 2
ENDMDL
MODEL 3
REMARK VINA RESULT:      -5.7      3.468      6.100
REMARK  Name = 
REMARK  2 active torsions:
REMARK  status: ('A' for Active; 'I' for Inactive)
REMARK    1  A    between atoms: C_4  and  C_5
REMARK    2  A    between atoms: C_14  and  C_15
REMARK                            x       y       z     vdW  Elec       q    Type
REMARK                         _______ _______ _______ _____ _____    ______ ____
ROOT
ATOM      1  C   UNL     1      -3.487  12.837  19.919  0.00  0.00    +0.000 C 
ATOM      2  N   UNL     1      -3.065  11.645  19.620  0.00  0.00    +0.000 NA
ATOM      3  C   UNL     1      -1.695  11.308  19.685  0.00  0.00    +0.000 A 
ATOM      4  C   UNL     1      -1.170  10.702  18.535  0.00  0.00    +0.000 A 
ATOM      5  C   UNL     1       0.168  10.311  18.469  0.00  0.00    +0.000 A 
ATOM      6  C   UNL     1       1.002  10.507  19.561  0.00  0.00    +0.000 A 
ATOM      7  C   UNL     1       0.493  11.084  20.722  0.00  0.00    +0.000 A 
ATOM      8  C   UNL     1      -0.858  11.489  20.801  0.00  0.00    +0.000 A 
ATOM      9  S   UNL     1      -1.360  12.130  22.390  0.00  0.00    +0.000 S 
ATOM     10  C   UNL     1      -2.291  13.658  21.962  0.00  0.00    +0.000 C 
ATOM     11  C   UNL     1      -2.557  13.904  20.470  0.00  0.00    +0.000 C 
ENDROOT
BRANCH  10  12
ATOM     12  C   UNL     1      -3.573  13.699  22.776  0.00  0.00    +0.000 A 
ATOM     13  C   UNL     1      -4.372  12.650  23.210  0.00  0.00    +0.000 A 
ATOM     14  C   UNL     1      -5.637  13.089  23.709  0.00  0.00    +0.000 A 
ATOM     15  C   UNL     1      -6.775  12.416  24.148  0.00  0.00    +0.000 A 
ATOM     16  N   UNL     1      -7.916  13.101  24.376  0.00  0.00    +0.000 NA
ATOM     17  C   UNL     1      -7.890  14.434  24.205  0.00  0.00    +0.000 A 
ATOM     18  N   UNL     1      -6.835  15.201  23.897  0.00  0.00    +0.000 NA
ATOM     19  C   UNL     1      -5.735  14.470  23.654  0.00  0.00    +0.000 A 
ATOM     20  S   UNL     1      -4.273  15.211  23.190  0.00  0.00    +0.000 S 
ENDBRANCH  10  12
BRANCH   1  24
ATOM     21  C   UNL     1      -6.975  14.281  19.882  0.00  0.00    +0.000 A 
ATOM     22  C   UNL     1      -7.394  12.975  19.796  0.00  0.00    +0.000 A 
ATOM     23  S   UNL     1      -6.081  11.890  19.668  0.00  0.00    +0.000 S 
ATOM     24  C   UNL     1      -4.918  13.152  19.804  0.00  0.00    +0.000 A 
ATOM     25  C   UNL     1      -5.554  14.384  19.840  0.00  0.00    +0.000 A 
ENDBRANCH   1  24
TORSDOF 2
ENDMDL
MODEL 4
REMARK VINA RESULT:      -5.7      7.428      9.922
REMARK  Name = 
REMARK  2 active torsions:
REMARK  status: ('A' for Active; 'I' for Inactive)
REMARK    1  A    between atoms: C_4  and  C_5
REMARK    2  A    between atoms: C_14  and  C_15
REMARK                            x       y       z     vdW  Elec       q    Type
REMARK                         _______ _______ _______ _____ _____    ______ ____
ROOT
ATOM      1  C   UNL     1       8.088  14.704  20.466  0.00  0.00    +0.000 C 
ATOM      2  N   UNL     1       8.124  13.985  19.386  0.00  0.00    +0.000 NA
ATOM      3  C   UNL     1       9.311  13.348  18.960  0.00  0.00    +0.000 A 
ATOM      4  C   UNL     1       9.672  13.582  17.625  0.00  0.00    +0.000 A 
ATOM      5  C   UNL     1      10.818  13.006  17.075  0.00  0.00    +0.000 A 
ATOM      6  C   UNL     1      11.616  12.174  17.848  0.00  0.00    +0.000 A 
ATOM      7  C   UNL     1      11.260  11.910  19.168  0.00  0.00    +0.000 A 
ATOM      8  C   UNL     1      10.106  12.489  19.739  0.00  0.00    +0.000 A 
ATOM      9  S   UNL     1       9.755  11.973  21.412  0.00  0.00    +0.000 S 
ATOM     10  C   UNL     1       9.380  13.553  22.279  0.00  0.00    +0.000 C 
ATOM     11  C   UNL     1       9.281  14.809  21.402  0.00  0.00    +0.000 C 
ENDROOT
BRANCH  10  12
ATOM     12  C   UNL     1       8.139  13.365  23.134  0.00  0.00    +0.000 A 
ATOM     13  C   UNL     1       7.585  14.220  24.077  0.00  0.00    +0.000 A 
ATOM     14  C   UNL     1       6.580  13.587  24.873  0.00  0.00    +0.000 A 
ATOM     15  C   UNL     1       5.838  14.000  25.978  0.00  0.00    +0.000 A 
ATOM     16  N   UNL     1       5.094  13.104  26.662  0.00  0.00    +0.000 NA
ATOM     17  C   UNL     1       5.071  11.838  26.212  0.00  0.00    +0.000 A 
ATOM     18  N   UNL     1       5.649  11.349  25.106  0.00  0.00    +0.000 NA
ATOM     19  C   UNL     1       6.397  12.272  24.480  0.00  0.00    +0.000 A 
ATOM     20  S   UNL     1       7.278  11.881  23.075  0.00  0.00    +0.000 S 
ENDBRANCH  10  12
BRANCH   1  24
ATOM     21  C   UNL     1       4.563  15.883  21.129  0.00  0.00    +0.000 A 
ATOM     22  C   UNL     1       5.139  17.106  21.377  0.00  0.00    +0.000 A 
ATOM     23  S   UNL     1       6.844  17.038  21.299  0.00  0.00    +0.000 S 
ATOM     24  C   UNL     1       6.839  15.375  20.852  0.00  0.00    +0.000 A 
ATOM     25  C   UNL     1       5.543  14.880  20.874  0.00  0.00    +0.000 A 
ENDBRANCH   1  24
TORSDOF 2
ENDMDL
MODEL 5
REMARK VINA RESULT:      -5.7      4.876      7.022
REMARK  Name = 
REMARK  2 active torsions:
REMARK  status: ('A' for Active; 'I' for Inactive)
REMARK    1  A    between atoms: C_4  and  C_5
REMARK    2  A    between atoms: C_14  and  C_15
REMARK                            x       y       z     vdW  Elec       q    Type
REMARK                         _______ _______ _______ _____ _____    ______ ____
ROOT
ATOM      1  C   UNL     1      -4.426  12.357  20.187  0.00  0.00    +0.000 C 
ATOM      2  N   UNL     1      -3.397  12.354  19.394  0.00  0.00    +0.000 NA
ATOM      3  C   UNL     1      -3.368  11.562  18.224  0.00  0.00    +0.000 A 
ATOM      4  C   UNL     1      -2.233  10.752  18.076  0.00  0.00    +0.000 A 
ATOM      5  C   UNL     1      -2.074   9.927  16.961  0.00  0.00    +0.000 A 
ATOM      6  C   UNL     1      -3.043   9.910  15.968  0.00  0.00    +0.000 A 
ATOM      7  C   UNL     1      -4.165  10.726  16.085  0.00  0.00    +0.000 A 
ATOM      8  C   UNL     1      -4.341  11.562  17.209  0.00  0.00    +0.000 A 
ATOM      9  S   UNL     1      -5.791  12.602  17.153  0.00  0.00    +0.000 S 
ATOM     10  C   UNL     1      -6.530  12.402  18.826  0.00  0.00    +0.000 C 
ATOM     11  C   UNL     1      -5.704  11.608  19.849  0.00  0.00    +0.000 C 
ENDROOT
BRANCH  10  12
ATOM     12  C   UNL     1      -6.924  13.767  19.360  0.00  0.00    +0.000 A 
ATOM     13  C   UNL     1      -6.540  15.027  18.919  0.00  0.00    +0.000 A 
ATOM     14  C   UNL     1      -6.893  16.064  19.837  0.00  0.00    +0.000 A 
ATOM     15  C   UNL     1      -6.634  17.433  19.875  0.00  0.00    +0.000 A 
ATOM     16  N   UNL     1      -6.924  18.142  20.986  0.00  0.00    +0.000 NA
ATOM     17  C   UNL     1      -7.497  17.490  22.012  0.00  0.00    +0.000 A 
ATOM     18  N   UNL     1      -7.892  16.210  22.052  0.00  0.00    +0.000 NA
ATOM     19  C   UNL     1      -7.557  15.544  20.935  0.00  0.00    +0.000 A 
ATOM     20  S   UNL     1      -7.904  13.885  20.764  0.00  0.00    +0.000 S 
ENDBRANCH  10  12
BRANCH   1  24
ATOM     21  C   UNL     1      -4.871  14.011  23.551  0.00  0.00    +0.000 A 
ATOM     22  C   UNL     1      -4.209  15.076  22.990  0.00  0.00    +0.000 A 
ATOM     23  S   UNL     1      -3.677  14.734  21.403  0.00  0.00    +0.000 S 
ATOM     24  C   UNL     1      -4.398  13.171  21.410  0.00  0.00    +0.000 A 
ATOM     25  C   UNL     1      -4.938  12.902  22.659  0.00  0.00    +0.000 A 
ENDBRANCH   1  24
TORSDOF 2
ENDMDL
MODEL 6
REMARK VINA RESULT:      -5.7      2.919      5.889
REMARK  Name = 
REMARK  2 active torsions:
REMARK  status: ('A' for Active; 'I' for Inactive)
REMARK    1  A    between atoms: C_4  and  C_5
REMARK    2  A    between atoms: C_14  and  C_15
REMARK                            x       y       z     vdW  Elec       q    Type
REMARK                         _______ _______ _______ _____ _____    ______ ____
ROOT
ATOM      1  C   UNL     1      -0.403  10.531  20.649  0.00  0.00    +0.000 C 
ATOM      2  N   UNL     1       0.499   9.767  21.185  0.00  0.00    +0.000 NA
ATOM      3  C   UNL     1       1.129   8.738  20.450  0.00  0.00    +0.000 A 
ATOM      4  C   UNL     1       1.123   7.475  21.058  0.00  0.00    +0.000 A 
ATOM      5  C   UNL     1       1.720   6.373  20.443  0.00  0.00    +0.000 A 
ATOM      6  C   UNL     1       2.345   6.520  19.213  0.00  0.00    +0.000 A 
ATOM      7  C   UNL     1       2.383   7.772  18.605  0.00  0.00    +0.000 A 
ATOM      8  C   UNL     1       1.780   8.895  19.213  0.00  0.00    +0.000 A 
ATOM      9  S   UNL     1       1.999  10.434  18.336  0.00  0.00    +0.000 S 
ATOM     10  C   UNL     1       0.314  11.172  18.334  0.00  0.00    +0.000 C 
ATOM     11  C   UNL     1      -0.751  10.450  19.172  0.00  0.00    +0.000 C 
ENDROOT
BRANCH  10  12
ATOM     12  C   UNL     1       0.417  12.642  18.702  0.00  0.00    +0.000 A 
ATOM     13  C   UNL     1      -0.463  13.680  18.426  0.00  0.00    +0.000 A 
ATOM     14  C   UNL     1       0.102  14.967  18.690  0.00  0.00    +0.000 A 
ATOM     15  C   UNL     1      -0.349  16.268  18.478  0.00  0.00    +0.000 A 
ATOM     16  N   UNL     1       0.495  17.308  18.641  0.00  0.00    +0.000 NA
ATOM     17  C   UNL     1       1.747  17.038  19.049  0.00  0.00    +0.000 A 
ATOM     18  N   UNL     1       2.261  15.848  19.389  0.00  0.00    +0.000 NA
ATOM     19  C   UNL     1       1.390  14.847  19.182  0.00  0.00    +0.000 A 
ATOM     20  S   UNL     1       1.825  13.228  19.489  0.00  0.00    +0.000 S 
ENDBRANCH  10  12
BRANCH   1  24
ATOM     21  C   UNL     1      -1.658  12.955  23.257  0.00  0.00    +0.000 A 
ATOM     22  C   UNL     1      -2.735  13.123  22.422  0.00  0.00    +0.000 A 
ATOM     23  S   UNL     1      -2.555  12.251  20.964  0.00  0.00    +0.000 S 
ATOM     24  C   UNL     1      -1.056  11.567  21.462  0.00  0.00    +0.000 A 
ATOM     25  C   UNL     1      -0.673  12.098  22.685  0.00  0.00    +0.000 A 
ENDBRANCH   1  24
TORSDOF 2
ENDMDL
MODEL 7
REMARK VINA RESULT:      -5.7      3.458      5.251
REMARK  Name = 
REMARK  2 active torsions:
REMARK  status: ('A' for Active; 'I' for Inactive)
REMARK    1  A    between atoms: C_4  and  C_5
REMARK    2  A    between atoms: C_14  and  C_15
REMARK                            x       y       z     vdW  Elec       q    Type
REMARK                         _______ _______ _______ _____ _____    ______ ____
ROOT
ATOM      1  C   UNL     1      -0.368  14.322  21.299  0.00  0.00    +0.000 C 
ATOM      2  N   UNL     1      -0.015  14.592  22.519  0.00  0.00    +0.000 NA
ATOM      3  C   UNL     1      -0.972  14.877  23.520  0.00  0.00    +0.000 A 
ATOM      4  C   UNL     1      -0.745  16.053  24.249  0.00  0.00    +0.000 A 
ATOM      5  C   UNL     1      -1.608  16.448  25.272  0.00  0.00    +0.000 A 
ATOM      6  C   UNL     1      -2.707  15.664  25.592  0.00  0.00    +0.000 A 
ATOM      7  C   UNL     1      -2.935  14.479  24.896  0.00  0.00    +0.000 A 
ATOM      8  C   UNL     1      -2.073  14.070  23.856  0.00  0.00    +0.000 A 
ATOM      9  S   UNL     1      -2.467  12.486  23.132  0.00  0.00    +0.000 S 
ATOM     10  C   UNL     1      -2.362  12.803  21.322  0.00  0.00    +0.000 C 
ATOM     11  C   UNL     1      -1.826  14.178  20.897  0.00  0.00    +0.000 C 
ENDROOT
BRANCH  10  12
ATOM     12  C   UNL     1      -1.590  11.672  20.666  0.00  0.00    +0.000 A 
ATOM     13  C   UNL     1      -0.697  10.773  21.234  0.00  0.00    +0.000 A 
ATOM     14  C   UNL     1       0.038  10.033  20.257  0.00  0.00    +0.000 A 
ATOM     15  C   UNL     1       1.085   9.117  20.342  0.00  0.00    +0.000 A 
ATOM     16  N   UNL     1       1.728   8.724  19.222  0.00  0.00    +0.000 NA
ATOM     17  C   UNL     1       1.294   9.213  18.048  0.00  0.00    +0.000 A 
ATOM     18  N   UNL     1       0.236  10.006  17.830  0.00  0.00    +0.000 NA
ATOM     19  C   UNL     1      -0.351  10.388  18.976  0.00  0.00    +0.000 A 
ATOM     20  S   UNL     1      -1.688  11.443  18.968  0.00  0.00    +0.000 S 
ENDBRANCH  10  12
BRANCH   1  24
ATOM     21  C   UNL     1       1.751  13.755  18.226  0.00  0.00    +0.000 A 
ATOM     22  C   UNL     1       2.645  13.168  19.088  0.00  0.00    +0.000 A 
ATOM     23  S   UNL     1       2.137  13.287  20.715  0.00  0.00    +0.000 S 
ATOM     24  C   UNL     1       0.663  14.064  20.284  0.00  0.00    +0.000 A 
ATOM     25  C   UNL     1       0.636  14.310  18.919  0.00  0.00    +0.000 A 
ENDBRANCH   1  24
TORSDOF 2
ENDMDL
MODEL 8
REMARK VINA RESULT:      -5.7      5.362      7.851
REMARK  Name = 
REMARK  2 active torsions:
REMARK  status: ('A' for Active; 'I' for Inactive)
REMARK    1  A    between atoms: C_4  and  C_5
REMARK    2  A    between atoms: C_14  and  C_15
REMARK                            x       y       z     vdW  Elec       q    Type
REMARK                         _______ _______ _______ _____ _____    ______ ____
ROOT
ATOM      1  C   UNL     1       3.448  16.077  18.261  0.00  0.00    +0.000 C 
ATOM      2  N   UNL     1       3.036  17.279  17.994  0.00  0.00    +0.000 NA
ATOM      3  C   UNL     1       1.661  17.577  17.859  0.00  0.00    +0.000 A 
ATOM      4  C   UNL     1       1.308  18.267  16.691  0.00  0.00    +0.000 A 
ATOM      5  C   UNL     1      -0.015  18.631  16.438  0.00  0.00    +0.000 A 
ATOM      6  C   UNL     1      -1.007  18.323  17.358  0.00  0.00    +0.000 A 
ATOM      7  C   UNL     1      -0.672  17.660  18.536  0.00  0.00    +0.000 A 
ATOM      8  C   UNL     1       0.662  17.282  18.804  0.00  0.00    +0.000 A 
ATOM      9  S   UNL     1       0.923  16.520  20.397  0.00  0.00    +0.000 S 
ATOM     10  C   UNL     1       1.968  15.056  20.007  0.00  0.00    +0.000 C 
ATOM     11  C   UNL     1       2.481  14.945  18.564  0.00  0.00    +0.000 C 
ENDROOT
BRANCH  10  12
ATOM     12  C   UNL     1       3.101  14.975  21.015  0.00  0.00    +0.000 A 
ATOM     13  C   UNL     1       4.013  13.951  21.230  0.00  0.00    +0.000 A 
ATOM     14  C   UNL     1       4.753  14.116  22.442  0.00  0.00    +0.000 A 
ATOM     15  C   UNL     1       5.679  13.319  23.110  0.00  0.00    +0.000 A 
ATOM     16  N   UNL     1       6.070  13.644  24.361  0.00  0.00    +0.000 NA
ATOM     17  C   UNL     1       5.567  14.768  24.900  0.00  0.00    +0.000 A 
ATOM     18  N   UNL     1       4.762  15.668  24.318  0.00  0.00    +0.000 NA
ATOM     19  C   UNL     1       4.383  15.284  23.089  0.00  0.00    +0.000 A 
ATOM     20  S   UNL     1       3.314  16.234  22.162  0.00  0.00    +0.000 S 
ENDBRANCH  10  12
BRANCH   1  24
ATOM     21  C   UNL     1       6.969  14.718  18.335  0.00  0.00    +0.000 A 
ATOM     22  C   UNL     1       7.268  15.842  19.067  0.00  0.00    +0.000 A 
ATOM     23  S   UNL     1       5.923  16.886  19.213  0.00  0.00    +0.000 S 
ATOM     24  C   UNL     1       4.889  15.807  18.359  0.00  0.00    +0.000 A 
ATOM     25  C   UNL     1       5.615  14.722  17.890  0.00  0.00    +0.000 A 
ENDBRANCH   1  24
TORSDOF 2
ENDMDL
MODEL 9
REMARK VINA RESULT:      -5.6      8.083     10.124
REMARK  Name = 
REMARK  2 active torsions:
REMARK  status: ('A' for Active; 'I' for Inactive)
REMARK    1  A    between atoms: C_4  and  C_5
REMARK    2  A    between atoms: C_14  and  C_15
REMARK                            x       y       z     vdW  Elec       q    Type
REMARK                         _______ _______ _______ _____ _____    ______ ____
ROOT
ATOM      1  C   UNL     1       8.379  14.636  21.205  0.00  0.00    +0.000 C 
ATOM      2  N   UNL     1       8.088  14.158  20.033  0.00  0.00    +0.000 NA
ATOM      3  C   UNL     1       8.979  13.309  19.339  0.00  0.00    +0.000 A 
ATOM      4  C   UNL     1       9.259  13.686  18.017  0.00  0.00    +0.000 A 
ATOM      5  C   UNL     1      10.116  12.929  17.216  0.00  0.00    +0.000 A 
ATOM      6  C   UNL     1      10.697  11.774  17.720  0.00  0.00    +0.000 A 
ATOM      7  C   UNL     1      10.411  11.371  19.022  0.00  0.00    +0.000 A 
ATOM      8  C   UNL     1       9.549  12.128  19.845  0.00  0.00    +0.000 A 
ATOM      9  S   UNL     1       9.227  11.418  21.452  0.00  0.00    +0.000 S 
ATOM     10  C   UNL     1       9.436  12.841  22.600  0.00  0.00    +0.000 C 
ATOM     11  C   UNL     1       9.635  14.220  21.954  0.00  0.00    +0.000 C 
ENDROOT
BRANCH  10  12
ATOM     12  C   UNL     1       8.288  12.847  23.594  0.00  0.00    +0.000 A 
ATOM     13  C   UNL     1       8.215  13.437  24.849  0.00  0.00    +0.000 A 
ATOM     14  C   UNL     1       7.083  12.996  25.601  0.00  0.00    +0.000 A 
ATOM     15  C   UNL     1       6.658  13.225  26.908  0.00  0.00    +0.000 A 
ATOM     16  N   UNL     1       5.639  12.504  27.422  0.00  0.00    +0.000 NA
ATOM     17  C   UNL     1       5.042  11.607  26.618  0.00  0.00    +0.000 A 
ATOM     18  N   UNL     1       5.285  11.378  25.320  0.00  0.00    +0.000 NA
ATOM     19  C   UNL     1       6.323  12.100  24.868  0.00  0.00    +0.000 A 
ATOM     20  S   UNL     1       6.865  11.947  23.260  0.00  0.00    +0.000 S 
ENDBRANCH  10  12
BRANCH   1  24
ATOM     21  C   UNL     1       6.503  17.099  23.366  0.00  0.00    +0.000 A 
ATOM     22  C   UNL     1       5.371  16.546  22.817  0.00  0.00    +0.000 A 
ATOM     23  S   UNL     1       5.742  15.382  21.623  0.00  0.00    +0.000 S 
ATOM     24  C   UNL     1       7.437  15.542  21.876  0.00  0.00    +0.000 A 
ATOM     25  C   UNL     1       7.688  16.554  22.791  0.00  0.00    +0.000 A 
ENDBRANCH   1  24
TORSDOF 2
ENDMDL
