MODEL 1
REMARK VINA RESULT:      -8.3      0.000      0.000
REMARK  Name = 
REMARK  1 active torsions:
REMARK  status: ('A' for Active; 'I' for Inactive)
REMARK    1  A    between atoms: C_2  and  C_3
REMARK                            x       y       z     vdW  Elec       q    Type
REMARK                         _______ _______ _______ _____ _____    ______ ____
ROOT
ATOM      1  C   UNL     1       5.637   5.055  16.215  0.00  0.00    +0.000 A 
ATOM      2  C   UNL     1       4.993   3.974  16.791  0.00  0.00    +0.000 A 
ATOM      3  C   UNL     1       3.981   4.496  17.655  0.00  0.00    +0.000 A 
ATOM      4  C   UNL     1       4.062   5.873  17.513  0.00  0.00    +0.000 A 
ATOM      5  C   UNL     1       3.234   6.795  18.142  0.00  0.00    +0.000 A 
ATOM      6  C   UNL     1       2.245   6.274  18.978  0.00  0.00    +0.000 A 
ATOM      7  C   UNL     1       2.115   4.893  19.187  0.00  0.00    +0.000 A 
ATOM      8  C   UNL     1       1.124   4.391  20.040  0.00  0.00    +0.000 A 
ATOM      9  C   UNL     1       0.999   3.018  20.257  0.00  0.00    +0.000 A 
ATOM     10  C   UNL     1       1.860   2.124  19.622  0.00  0.00    +0.000 A 
ATOM     11  C   UNL     1       2.850   2.595  18.759  0.00  0.00    +0.000 A 
ATOM     12  C   UNL     1       2.988   3.979  18.532  0.00  0.00    +0.000 A 
ATOM     13  O   UNL     1       5.055   6.209  16.660  0.00  0.00    +0.000 OA
ENDROOT
BRANCH   1  15
ATOM     14  O   UNL     1       7.675   5.894  15.391  0.00  0.00    +0.000 OA
ATOM     15  C   UNL     1       6.701   5.152  15.234  0.00  0.00    +0.000 C 
ATOM     16  N   UNL     1       6.566   4.366  14.089  0.00  0.00    +0.000 N 
ATOM     17  C   UNL     1       7.608   4.267  13.087  0.00  0.00    +0.000 C 
ATOM     18  C   UNL     1       6.842   4.125  11.782  0.00  0.00    +0.000 C 
ATOM     19  C   UNL     1       5.601   3.340  12.182  0.00  0.00    +0.000 C 
ATOM     20  C   UNL     1       5.319   3.788  13.609  0.00  0.00    +0.000 C 
ENDBRANCH   1  15
TORSDOF 1
ENDMDL
MODEL 2
REMARK VINA RESULT:      -8.0      3.828      6.108
REMARK  Name = 
REMARK  1 active torsions:
REMARK  status: ('A' for Active; 'I' for Inactive)
REMARK    1  A    between atoms: C_2  and  C_3
REMARK                            x       y       z     vdW  Elec       q    Type
REMARK                         _______ _______ _______ _____ _____    ______ ____
ROOT
ATOM      1  C   UNL     1       2.799   6.611  19.182  0.00  0.00    +0.000 A 
ATOM      2  C   UNL     1       2.192   6.974  20.371  0.00  0.00    +0.000 A 
ATOM      3  C   UNL     1       1.530   8.221  20.144  0.00  0.00    +0.000 A 
ATOM      4  C   UNL     1       1.759   8.511  18.806  0.00  0.00    +0.000 A 
ATOM      5  C   UNL     1       1.265   9.620  18.130  0.00  0.00    +0.000 A 
ATOM      6  C   UNL     1       0.474  10.500  18.872  0.00  0.00    +0.000 A 
ATOM      7  C   UNL     1       0.217  10.283  20.233  0.00  0.00    +0.000 A 
ATOM      8  C   UNL     1      -0.568  11.186  20.964  0.00  0.00    +0.000 A 
ATOM      9  C   UNL     1      -0.817  10.977  22.321  0.00  0.00    +0.000 A 
ATOM     10  C   UNL     1      -0.290   9.862  22.970  0.00  0.00    +0.000 A 
ATOM     11  C   UNL     1       0.487   8.941  22.266  0.00  0.00    +0.000 A 
ATOM     12  C   UNL     1       0.748   9.141  20.895  0.00  0.00    +0.000 A 
ATOM     13  O   UNL     1       2.523   7.555  18.233  0.00  0.00    +0.000 OA
ENDROOT
BRANCH   1  15
ATOM     14  O   UNL     1       4.741   5.517  18.425  0.00  0.00    +0.000 OA
ATOM     15  C   UNL     1       3.564   5.442  18.789  0.00  0.00    +0.000 C 
ATOM     16  N   UNL     1       2.896   4.218  18.836  0.00  0.00    +0.000 N 
ATOM     17  C   UNL     1       3.568   2.957  18.593  0.00  0.00    +0.000 C 
ATOM     18  C   UNL     1       2.511   2.111  17.902  0.00  0.00    +0.000 C 
ATOM     19  C   UNL     1       1.210   2.577  18.540  0.00  0.00    +0.000 C 
ATOM     20  C   UNL     1       1.450   4.049  18.846  0.00  0.00    +0.000 C 
ENDBRANCH   1  15
TORSDOF 1
ENDMDL
MODEL 3
REMARK VINA RESULT:      -7.9      0.987      2.128
REMARK  Name = 
REMARK  1 active torsions:
REMARK  status: ('A' for Active; 'I' for Inactive)
REMARK    1  A    between atoms: C_2  and  C_3
REMARK                            x       y       z     vdW  Elec       q    Type
REMARK                         _______ _______ _______ _____ _____    ______ ____
ROOT
ATOM      1  C   UNL     1       5.625   4.803  16.360  0.00  0.00    +0.000 A 
ATOM      2  C   UNL     1       4.842   5.455  17.297  0.00  0.00    +0.000 A 
ATOM      3  C   UNL     1       3.976   4.477  17.877  0.00  0.00    +0.000 A 
ATOM      4  C   UNL     1       4.323   3.280  17.266  0.00  0.00    +0.000 A 
ATOM      5  C   UNL     1       3.762   2.041  17.552  0.00  0.00    +0.000 A 
ATOM      6  C   UNL     1       2.775   2.017  18.537  0.00  0.00    +0.000 A 
ATOM      7  C   UNL     1       2.356   3.189  19.184  0.00  0.00    +0.000 A 
ATOM      8  C   UNL     1       1.353   3.147  20.161  0.00  0.00    +0.000 A 
ATOM      9  C   UNL     1       0.929   4.313  20.799  0.00  0.00    +0.000 A 
ATOM     10  C   UNL     1       1.503   5.542  20.474  0.00  0.00    +0.000 A 
ATOM     11  C   UNL     1       2.510   5.613  19.512  0.00  0.00    +0.000 A 
ATOM     12  C   UNL     1       2.947   4.443  18.858  0.00  0.00    +0.000 A 
ATOM     13  O   UNL     1       5.302   3.475  16.355  0.00  0.00    +0.000 OA
ENDROOT
BRANCH   1  15
ATOM     14  O   UNL     1       7.464   6.170  15.823  0.00  0.00    +0.000 OA
ATOM     15  C   UNL     1       6.701   5.255  15.499  0.00  0.00    +0.000 C 
ATOM     16  N   UNL     1       6.830   4.605  14.271  0.00  0.00    +0.000 N 
ATOM     17  C   UNL     1       7.932   4.864  13.367  0.00  0.00    +0.000 C 
ATOM     18  C   UNL     1       7.311   4.717  11.987  0.00  0.00    +0.000 C 
ATOM     19  C   UNL     1       6.261   3.632  12.184  0.00  0.00    +0.000 C 
ATOM     20  C   UNL     1       5.786   3.827  13.618  0.00  0.00    +0.000 C 
ENDBRANCH   1  15
TORSDOF 1
ENDMDL
MODEL 4
REMARK VINA RESULT:      -7.8      3.255      5.193
REMARK  Name = 
REMARK  1 active torsions:
REMARK  status: ('A' for Active; 'I' for Inactive)
REMARK    1  A    between atoms: C_2  and  C_3
REMARK                            x       y       z     vdW  Elec       q    Type
REMARK                         _______ _______ _______ _____ _____    ______ ____
ROOT
ATOM      1  C   UNL     1       3.058   6.378  18.384  0.00  0.00    +0.000 A 
ATOM      2  C   UNL     1       2.498   6.615  19.627  0.00  0.00    +0.000 A 
ATOM      3  C   UNL     1       1.923   7.924  19.589  0.00  0.00    +0.000 A 
ATOM      4  C   UNL     1       2.149   8.378  18.297  0.00  0.00    +0.000 A 
ATOM      5  C   UNL     1       1.724   9.601  17.791  0.00  0.00    +0.000 A 
ATOM      6  C   UNL     1       1.011  10.422  18.666  0.00  0.00    +0.000 A 
ATOM      7  C   UNL     1       0.762  10.039  19.992  0.00  0.00    +0.000 A 
ATOM      8  C   UNL     1       0.056  10.884  20.858  0.00  0.00    +0.000 A 
ATOM      9  C   UNL     1      -0.184  10.508  22.181  0.00  0.00    +0.000 A 
ATOM     10  C   UNL     1       0.273   9.282  22.659  0.00  0.00    +0.000 A 
ATOM     11  C   UNL     1       0.970   8.416  21.816  0.00  0.00    +0.000 A 
ATOM     12  C   UNL     1       1.222   8.783  20.479  0.00  0.00    +0.000 A 
ATOM     13  O   UNL     1       2.833   7.460  17.579  0.00  0.00    +0.000 OA
ENDROOT
BRANCH   1  15
ATOM     14  O   UNL     1       3.193   4.115  17.751  0.00  0.00    +0.000 OA
ATOM     15  C   UNL     1       3.730   5.224  17.816  0.00  0.00    +0.000 C 
ATOM     16  N   UNL     1       5.029   5.428  17.351  0.00  0.00    +0.000 N 
ATOM     17  C   UNL     1       5.773   4.402  16.648  0.00  0.00    +0.000 C 
ATOM     18  C   UNL     1       7.210   4.632  17.087  0.00  0.00    +0.000 C 
ATOM     19  C   UNL     1       7.289   6.142  17.266  0.00  0.00    +0.000 C 
ATOM     20  C   UNL     1       5.894   6.537  17.730  0.00  0.00    +0.000 C 
ENDBRANCH   1  15
TORSDOF 1
ENDMDL
MODEL 5
REMARK VINA RESULT:      -7.7      1.531      2.700
REMARK  Name = 
REMARK  1 active torsions:
REMARK  status: ('A' for Active; 'I' for Inactive)
REMARK    1  A    between atoms: C_2  and  C_3
REMARK                            x       y       z     vdW  Elec       q    Type
REMARK                         _______ _______ _______ _____ _____    ______ ____
ROOT
ATOM      1  C   UNL     1       5.912   5.172  15.581  0.00  0.00    +0.000 A 
ATOM      2  C   UNL     1       5.156   6.281  15.919  0.00  0.00    +0.000 A 
ATOM      3  C   UNL     1       4.462   5.967  17.129  0.00  0.00    +0.000 A 
ATOM      4  C   UNL     1       4.879   4.686  17.460  0.00  0.00    +0.000 A 
ATOM      5  C   UNL     1       4.487   3.983  18.593  0.00  0.00    +0.000 A 
ATOM      6  C   UNL     1       3.607   4.636  19.458  0.00  0.00    +0.000 A 
ATOM      7  C   UNL     1       3.127   5.923  19.179  0.00  0.00    +0.000 A 
ATOM      8  C   UNL     1       2.232   6.556  20.052  0.00  0.00    +0.000 A 
ATOM      9  C   UNL     1       1.746   7.834  19.771  0.00  0.00    +0.000 A 
ATOM     10  C   UNL     1       2.147   8.502  18.615  0.00  0.00    +0.000 A 
ATOM     11  C   UNL     1       3.044   7.900  17.732  0.00  0.00    +0.000 A 
ATOM     12  C   UNL     1       3.542   6.609  18.002  0.00  0.00    +0.000 A 
ATOM     13  O   UNL     1       5.738   4.207  16.533  0.00  0.00    +0.000 OA
ENDROOT
BRANCH   1  15
ATOM     14  O   UNL     1       7.963   5.436  14.458  0.00  0.00    +0.000 OA
ATOM     15  C   UNL     1       6.845   4.915  14.501  0.00  0.00    +0.000 C 
ATOM     16  N   UNL     1       6.410   4.050  13.497  0.00  0.00    +0.000 N 
ATOM     17  C   UNL     1       7.279   3.605  12.425  0.00  0.00    +0.000 C 
ATOM     18  C   UNL     1       6.346   3.483  11.231  0.00  0.00    +0.000 C 
ATOM     19  C   UNL     1       5.027   3.045  11.853  0.00  0.00    +0.000 C 
ATOM     20  C   UNL     1       5.021   3.710  13.222  0.00  0.00    +0.000 C 
ENDBRANCH   1  15
TORSDOF 1
ENDMDL
MODEL 6
REMARK VINA RESULT:      -7.7      4.507      6.992
REMARK  Name = 
REMARK  1 active torsions:
REMARK  status: ('A' for Active; 'I' for Inactive)
REMARK    1  A    between atoms: C_2  and  C_3
REMARK                            x       y       z     vdW  Elec       q    Type
REMARK                         _______ _______ _______ _____ _____    ______ ____
ROOT
ATOM      1  C   UNL     1       2.369   7.034  19.741  0.00  0.00    +0.000 A 
ATOM      2  C   UNL     1       1.687   7.470  20.864  0.00  0.00    +0.000 A 
ATOM      3  C   UNL     1       1.057   8.707  20.522  0.00  0.00    +0.000 A 
ATOM      4  C   UNL     1       1.378   8.918  19.189  0.00  0.00    +0.000 A 
ATOM      5  C   UNL     1       0.943   9.990  18.419  0.00  0.00    +0.000 A 
ATOM      6  C   UNL     1       0.116  10.917  19.054  0.00  0.00    +0.000 A 
ATOM      7  C   UNL     1      -0.235  10.781  20.405  0.00  0.00    +0.000 A 
ATOM      8  C   UNL     1      -1.056  11.730  21.029  0.00  0.00    +0.000 A 
ATOM      9  C   UNL     1      -1.399  11.601  22.375  0.00  0.00    +0.000 A 
ATOM     10  C   UNL     1      -0.929  10.521  23.121  0.00  0.00    +0.000 A 
ATOM     11  C   UNL     1      -0.118   9.556  22.524  0.00  0.00    +0.000 A 
ATOM     12  C   UNL     1       0.237   9.674  21.166  0.00  0.00    +0.000 A 
ATOM     13  O   UNL     1       2.167   7.924  18.723  0.00  0.00    +0.000 OA
ENDROOT
BRANCH   1  15
ATOM     14  O   UNL     1       4.209   5.873  18.845  0.00  0.00    +0.000 OA
ATOM     15  C   UNL     1       3.144   5.839  19.468  0.00  0.00    +0.000 C 
ATOM     16  N   UNL     1       2.619   4.636  19.941  0.00  0.00    +0.000 N 
ATOM     17  C   UNL     1       3.344   3.384  19.852  0.00  0.00    +0.000 C 
ATOM     18  C   UNL     1       2.253   2.350  19.626  0.00  0.00    +0.000 C 
ATOM     19  C   UNL     1       1.072   2.901  20.412  0.00  0.00    +0.000 C 
ATOM     20  C   UNL     1       1.229   4.412  20.311  0.00  0.00    +0.000 C 
ENDBRANCH   1  15
TORSDOF 1
ENDMDL
MODEL 7
REMARK VINA RESULT:      -7.7      4.437      7.583
REMARK  Name = 
REMARK  1 active torsions:
REMARK  status: ('A' for Active; 'I' for Inactive)
REMARK    1  A    between atoms: C_2  and  C_3
REMARK                            x       y       z     vdW  Elec       q    Type
REMARK                         _______ _______ _______ _____ _____    ______ ____
ROOT
ATOM      1  C   UNL     1       1.406   8.215  20.827  0.00  0.00    +0.000 A 
ATOM      2  C   UNL     1       1.153   6.879  21.084  0.00  0.00    +0.000 A 
ATOM      3  C   UNL     1       1.760   6.124  20.033  0.00  0.00    +0.000 A 
ATOM      4  C   UNL     1       2.376   7.067  19.222  0.00  0.00    +0.000 A 
ATOM      5  C   UNL     1       3.128   6.782  18.089  0.00  0.00    +0.000 A 
ATOM      6  C   UNL     1       3.268   5.433  17.758  0.00  0.00    +0.000 A 
ATOM      7  C   UNL     1       2.658   4.425  18.518  0.00  0.00    +0.000 A 
ATOM      8  C   UNL     1       2.799   3.077  18.161  0.00  0.00    +0.000 A 
ATOM      9  C   UNL     1       2.184   2.074  18.911  0.00  0.00    +0.000 A 
ATOM     10  C   UNL     1       1.422   2.399  20.032  0.00  0.00    +0.000 A 
ATOM     11  C   UNL     1       1.272   3.731  20.416  0.00  0.00    +0.000 A 
ATOM     12  C   UNL     1       1.885   4.755  19.667  0.00  0.00    +0.000 A 
ATOM     13  O   UNL     1       2.158   8.316  19.690  0.00  0.00    +0.000 OA
ENDROOT
BRANCH   1  15
ATOM     14  O   UNL     1       1.466   9.621  22.714  0.00  0.00    +0.000 OA
ATOM     15  C   UNL     1       1.088   9.429  21.554  0.00  0.00    +0.000 C 
ATOM     16  N   UNL     1       0.320  10.377  20.877  0.00  0.00    +0.000 N 
ATOM     17  C   UNL     1       0.033  11.685  21.431  0.00  0.00    +0.000 C 
ATOM     18  C   UNL     1      -1.367  11.993  20.925  0.00  0.00    +0.000 C 
ATOM     19  C   UNL     1      -1.404  11.329  19.556  0.00  0.00    +0.000 C 
ATOM     20  C   UNL     1      -0.505  10.109  19.707  0.00  0.00    +0.000 C 
ENDBRANCH   1  15
TORSDOF 1
ENDMDL
MODEL 8
REMARK VINA RESULT:      -7.6      1.016      2.221
REMARK  Name = 
REMARK  1 active torsions:
REMARK  status: ('A' for Active; 'I' for Inactive)
REMARK    1  A    between atoms: C_2  and  C_3
REMARK                            x       y       z     vdW  Elec       q    Type
REMARK                         _______ _______ _______ _____ _____    ______ ____
ROOT
ATOM      1  C   UNL     1       5.654   4.759  15.976  0.00  0.00    +0.000 A 
ATOM      2  C   UNL     1       5.024   5.711  16.759  0.00  0.00    +0.000 A 
ATOM      3  C   UNL     1       4.149   5.014  17.649  0.00  0.00    +0.000 A 
ATOM      4  C   UNL     1       4.339   3.670  17.362  0.00  0.00    +0.000 A 
ATOM      5  C   UNL     1       3.716   2.614  18.016  0.00  0.00    +0.000 A 
ATOM      6  C   UNL     1       2.836   2.951  19.045  0.00  0.00    +0.000 A 
ATOM      7  C   UNL     1       2.578   4.289  19.379  0.00  0.00    +0.000 A 
ATOM      8  C   UNL     1       1.680   4.607  20.407  0.00  0.00    +0.000 A 
ATOM      9  C   UNL     1       1.415   5.938  20.734  0.00  0.00    +0.000 A 
ATOM     10  C   UNL     1       2.045   6.972  20.043  0.00  0.00    +0.000 A 
ATOM     11  C   UNL     1       2.950   6.684  19.022  0.00  0.00    +0.000 A 
ATOM     12  C   UNL     1       3.226   5.345  18.680  0.00  0.00    +0.000 A 
ATOM     13  O   UNL     1       5.231   3.517  16.358  0.00  0.00    +0.000 OA
ENDROOT
BRANCH   1  15
ATOM     14  O   UNL     1       7.676   5.557  15.074  0.00  0.00    +0.000 OA
ATOM     15  C   UNL     1       6.668   4.856  14.944  0.00  0.00    +0.000 C 
ATOM     16  N   UNL     1       6.444   4.118  13.781  0.00  0.00    +0.000 N 
ATOM     17  C   UNL     1       7.427   4.020  12.721  0.00  0.00    +0.000 C 
ATOM     18  C   UNL     1       6.590   3.954  11.455  0.00  0.00    +0.000 C 
ATOM     19  C   UNL     1       5.342   3.198  11.893  0.00  0.00    +0.000 C 
ATOM     20  C   UNL     1       5.152   3.603  13.348  0.00  0.00    +0.000 C 
ENDBRANCH   1  15
TORSDOF 1
ENDMDL
MODEL 9
REMARK VINA RESULT:      -7.6      4.536      7.538
REMARK  Name = 
REMARK  1 active torsions:
REMARK  status: ('A' for Active; 'I' for Inactive)
REMARK    1  A    between atoms: C_2  and  C_3
REMARK                            x       y       z     vdW  Elec       q    Type
REMARK                         _______ _______ _______ _____ _____    ______ ____
ROOT
ATOM      1  C   UNL     1       1.458   9.513  18.931  0.00  0.00    +0.000 A 
ATOM      2  C   UNL     1       2.315   9.067  17.941  0.00  0.00    +0.000 A 
ATOM      3  C   UNL     1       2.742   7.754  18.312  0.00  0.00    +0.000 A 
ATOM      4  C   UNL     1       2.077   7.482  19.499  0.00  0.00    +0.000 A 
ATOM      5  C   UNL     1       2.160   6.290  20.210  0.00  0.00    +0.000 A 
ATOM      6  C   UNL     1       2.980   5.298  19.669  0.00  0.00    +0.000 A 
ATOM      7  C   UNL     1       3.699   5.508  18.483  0.00  0.00    +0.000 A 
ATOM      8  C   UNL     1       4.527   4.505  17.963  0.00  0.00    +0.000 A 
ATOM      9  C   UNL     1       5.250   4.715  16.789  0.00  0.00    +0.000 A 
ATOM     10  C   UNL     1       5.156   5.930  16.112  0.00  0.00    +0.000 A 
ATOM     11  C   UNL     1       4.333   6.944  16.601  0.00  0.00    +0.000 A 
ATOM     12  C   UNL     1       3.597   6.746  17.787  0.00  0.00    +0.000 A 
ATOM     13  O   UNL     1       1.317   8.534  19.874  0.00  0.00    +0.000 OA
ENDROOT
BRANCH   1  15
ATOM     14  O   UNL     1       1.013  11.625  19.869  0.00  0.00    +0.000 OA
ATOM     15  C   UNL     1       0.686  10.732  19.082  0.00  0.00    +0.000 C 
ATOM     16  N   UNL     1      -0.459  10.845  18.293  0.00  0.00    +0.000 N 
ATOM     17  C   UNL     1      -1.254  12.056  18.246  0.00  0.00    +0.000 C 
ATOM     18  C   UNL     1      -2.676  11.548  18.071  0.00  0.00    +0.000 C 
ATOM     19  C   UNL     1      -2.504  10.293  17.226  0.00  0.00    +0.000 C 
ATOM     20  C   UNL     1      -1.155   9.735  17.657  0.00  0.00    +0.000 C 
ENDBRANCH   1  15
TORSDOF 1
ENDMDL
