MODEL 1
REMARK VINA RESULT:      -8.1      0.000      0.000
REMARK  Name = 
REMARK  10 active torsions:
REMARK  status: ('A' for Active; 'I' for Inactive)
REMARK    1  A    between atoms: C_2  and  O_3
REMARK    2  A    between atoms: C_2  and  C_4
REMARK    3  A    between atoms: C_4  and  C_5
REMARK    4  A    between atoms: C_5  and  N_6
REMARK    5  A    between atoms: N_9  and  C_10
REMARK    6  A    between atoms: C_10  and  C_11
REMARK    7  A    between atoms: C_11  and  O_12
REMARK    8  A    between atoms: O_12  and  C_13
REMARK    9  A    between atoms: C_13  and  C_14
REMARK   10  A    between atoms: C_13  and  C_21
REMARK                            x       y       z     vdW  Elec       q    Type
REMARK                         _______ _______ _______ _____ _____    ______ ____
ROOT
ATOM      1  O   UNL     1       4.071   6.345  19.412  0.00  0.00    +0.000 OA
ENDROOT
BRANCH   1   2
ATOM      2  C   UNL     1       4.831   5.174  19.718  0.00  0.00    +0.000 C 
BRANCH   2   3
ATOM      3  C   UNL     1       6.272   5.228  19.186  0.00  0.00    +0.000 C 
BRANCH   3   7
ATOM      4  N   UNL     1       6.241   5.622  15.403  0.00  0.00    +0.000 NA
ATOM      5  C   UNL     1       5.102   5.176  16.225  0.00  0.00    +0.000 C 
ATOM      6  C   UNL     1       5.425   4.028  17.209  0.00  0.00    +0.000 C 
ATOM      7  N   UNL     1       6.576   4.275  18.108  0.00  0.00    +0.000 NA
ATOM      8  C   UNL     1       7.720   4.785  17.311  0.00  0.00    +0.000 C 
ATOM      9  C   UNL     1       7.365   5.937  16.327  0.00  0.00    +0.000 C 
BRANCH   4  10
ATOM     10  C   UNL     1       6.703   4.601  14.440  0.00  0.00    +0.000 C 
BRANCH  10  11
ATOM     11  C   UNL     1       5.637   3.963  13.548  0.00  0.00    +0.000 C 
BRANCH  11  13
ATOM     12  O   UNL     1       7.199   3.994  11.685  0.00  0.00    +0.000 OA
ATOM     13  C   UNL     1       6.314   3.428  12.307  0.00  0.00    +0.000 C 
BRANCH  13  14
ATOM     14  O   UNL     1       5.850   2.213  11.939  0.00  0.00    +0.000 OA
ATOM     15  H   UNL     1       5.464   2.193  11.044  0.00  0.00    +0.000 HD
ENDBRANCH  13  14
ENDBRANCH  11  13
ENDBRANCH  10  11
ENDBRANCH   4  10
ENDBRANCH   3   7
ENDBRANCH   2   3
ENDBRANCH   1   2
BRANCH   1  16
ATOM     16  C   UNL     1       2.738   6.399  19.946  0.00  0.00    +0.000 C 
BRANCH  16  17
ATOM     17  C   UNL     1       2.018   7.683  19.559  0.00  0.00    +0.000 A 
ATOM     18  C   UNL     1       1.214   8.371  20.483  0.00  0.00    +0.000 A 
ATOM     19  C   UNL     1       0.526   9.524  20.101  0.00  0.00    +0.000 A 
ATOM     20  C   UNL     1       0.630   9.987  18.794  0.00  0.00    +0.000 A 
ATOM     21  F   UNL     1      -0.049  11.079  18.423  0.00  0.00    +0.000 F 
ATOM     22  C   UNL     1       1.423   9.328  17.865  0.00  0.00    +0.000 A 
ATOM     23  C   UNL     1       2.129   8.188  18.251  0.00  0.00    +0.000 A 
ENDBRANCH  16  17
BRANCH  16  24
ATOM     24  C   UNL     1       1.981   5.139  19.534  0.00  0.00    +0.000 A 
ATOM     25  C   UNL     1       1.922   4.725  18.191  0.00  0.00    +0.000 A 
ATOM     26  C   UNL     1       1.270   3.546  17.840  0.00  0.00    +0.000 A 
ATOM     27  C   UNL     1       0.681   2.774  18.832  0.00  0.00    +0.000 A 
ATOM     28  F   UNL     1       0.057   1.636  18.490  0.00  0.00    +0.000 F 
ATOM     29  C   UNL     1       0.720   3.156  20.164  0.00  0.00    +0.000 A 
ATOM     30  C   UNL     1       1.377   4.334  20.519  0.00  0.00    +0.000 A 
ENDBRANCH  16  24
ENDBRANCH   1  16
TORSDOF 10
ENDMDL
MODEL 2
REMARK VINA RESULT:      -7.9      4.153      8.575
REMARK  Name = 
REMARK  10 active torsions:
REMARK  status: ('A' for Active; 'I' for Inactive)
REMARK    1  A    between atoms: C_2  and  O_3
REMARK    2  A    between atoms: C_2  and  C_4
REMARK    3  A    between atoms: C_4  and  C_5
REMARK    4  A    between atoms: C_5  and  N_6
REMARK    5  A    between atoms: N_9  and  C_10
REMARK    6  A    between atoms: C_10  and  C_11
REMARK    7  A    between atoms: C_11  and  O_12
REMARK    8  A    between atoms: O_12  and  C_13
REMARK    9  A    between atoms: C_13  and  C_14
REMARK   10  A    between atoms: C_13  and  C_21
REMARK                            x       y       z     vdW  Elec       q    Type
REMARK                         _______ _______ _______ _____ _____    ______ ____
ROOT
ATOM      1  O   UNL     1       2.580   7.291  18.531  0.00  0.00    +0.000 OA
ENDROOT
BRANCH   1   2
ATOM      2  C   UNL     1       1.917   8.267  17.725  0.00  0.00    +0.000 C 
BRANCH   2   3
ATOM      3  C   UNL     1       1.724   9.615  18.438  0.00  0.00    +0.000 C 
BRANCH   3   7
ATOM      4  N   UNL     1      -0.228  12.510  19.949  0.00  0.00    +0.000 NA
ATOM      5  C   UNL     1       1.019  11.943  20.494  0.00  0.00    +0.000 C 
ATOM      6  C   UNL     1       1.012  10.406  20.660  0.00  0.00    +0.000 C 
ATOM      7  N   UNL     1       0.650   9.643  19.442  0.00  0.00    +0.000 NA
ATOM      8  C   UNL     1      -0.570  10.234  18.838  0.00  0.00    +0.000 C 
ATOM      9  C   UNL     1      -0.537  11.783  18.688  0.00  0.00    +0.000 C 
BRANCH   4  10
ATOM     10  C   UNL     1      -1.381  12.370  20.861  0.00  0.00    +0.000 C 
BRANCH  10  11
ATOM     11  C   UNL     1      -1.135  12.688  22.336  0.00  0.00    +0.000 C 
BRANCH  11  13
ATOM     12  O   UNL     1      -0.925  10.557  23.488  0.00  0.00    +0.000 OA
ATOM     13  C   UNL     1      -1.609  11.513  23.161  0.00  0.00    +0.000 C 
BRANCH  13  14
ATOM     14  O   UNL     1      -2.904  11.624  23.536  0.00  0.00    +0.000 OA
ATOM     15  H   UNL     1      -3.196  12.543  23.673  0.00  0.00    +0.000 HD
ENDBRANCH  13  14
ENDBRANCH  11  13
ENDBRANCH  10  11
ENDBRANCH   4  10
ENDBRANCH   3   7
ENDBRANCH   2   3
ENDBRANCH   1   2
BRANCH   1  16
ATOM     16  C   UNL     1       2.589   5.945  18.026  0.00  0.00    +0.000 C 
BRANCH  16  17
ATOM     17  C   UNL     1       3.936   5.571  17.421  0.00  0.00    +0.000 A 
ATOM     18  C   UNL     1       4.984   6.503  17.353  0.00  0.00    +0.000 A 
ATOM     19  C   UNL     1       6.199   6.159  16.757  0.00  0.00    +0.000 A 
ATOM     20  C   UNL     1       6.366   4.889  16.218  0.00  0.00    +0.000 A 
ATOM     21  F   UNL     1       7.523   4.568  15.626  0.00  0.00    +0.000 F 
ATOM     22  C   UNL     1       5.346   3.948  16.279  0.00  0.00    +0.000 A 
ATOM     23  C   UNL     1       4.140   4.283  16.894  0.00  0.00    +0.000 A 
ENDBRANCH  16  17
BRANCH  16  24
ATOM     24  C   UNL     1       2.142   4.992  19.130  0.00  0.00    +0.000 A 
ATOM     25  C   UNL     1       1.289   3.906  18.861  0.00  0.00    +0.000 A 
ATOM     26  C   UNL     1       0.931   3.017  19.871  0.00  0.00    +0.000 A 
ATOM     27  C   UNL     1       1.432   3.206  21.152  0.00  0.00    +0.000 A 
ATOM     28  F   UNL     1       1.089   2.344  22.122  0.00  0.00    +0.000 F 
ATOM     29  C   UNL     1       2.274   4.267  21.449  0.00  0.00    +0.000 A 
ATOM     30  C   UNL     1       2.637   5.156  20.438  0.00  0.00    +0.000 A 
ENDBRANCH  16  24
ENDBRANCH   1  16
TORSDOF 10
ENDMDL
MODEL 3
REMARK VINA RESULT:      -7.7      0.729      1.301
REMARK  Name = 
REMARK  10 active torsions:
REMARK  status: ('A' for Active; 'I' for Inactive)
REMARK    1  A    between atoms: C_2  and  O_3
REMARK    2  A    between atoms: C_2  and  C_4
REMARK    3  A    between atoms: C_4  and  C_5
REMARK    4  A    between atoms: C_5  and  N_6
REMARK    5  A    between atoms: N_9  and  C_10
REMARK    6  A    between atoms: C_10  and  C_11
REMARK    7  A    between atoms: C_11  and  O_12
REMARK    8  A    between atoms: O_12  and  C_13
REMARK    9  A    between atoms: C_13  and  C_14
REMARK   10  A    between atoms: C_13  and  C_21
REMARK                            x       y       z     vdW  Elec       q    Type
REMARK                         _______ _______ _______ _____ _____    ______ ____
ROOT
ATOM      1  O   UNL     1       4.264   6.359  18.778  0.00  0.00    +0.000 OA
ENDROOT
BRANCH   1   2
ATOM      2  C   UNL     1       5.299   5.452  19.165  0.00  0.00    +0.000 C 
BRANCH   2   3
ATOM      3  C   UNL     1       6.522   5.493  18.235  0.00  0.00    +0.000 C 
BRANCH   3   7
ATOM      4  N   UNL     1       5.780   4.973  14.540  0.00  0.00    +0.000 NA
ATOM      5  C   UNL     1       4.840   4.714  15.645  0.00  0.00    +0.000 C 
ATOM      6  C   UNL     1       5.409   3.839  16.786  0.00  0.00    +0.000 C 
ATOM      7  N   UNL     1       6.687   4.316  17.367  0.00  0.00    +0.000 NA
ATOM      8  C   UNL     1       7.631   4.645  16.271  0.00  0.00    +0.000 C 
ATOM      9  C   UNL     1       7.030   5.521  15.135  0.00  0.00    +0.000 C 
BRANCH   4  10
ATOM     10  C   UNL     1       6.125   3.762  13.768  0.00  0.00    +0.000 C 
BRANCH  10  11
ATOM     11  C   UNL     1       5.283   3.476  12.524  0.00  0.00    +0.000 C 
BRANCH  11  13
ATOM     12  O   UNL     1       5.359   1.426  11.219  0.00  0.00    +0.000 OA
ATOM     13  C   UNL     1       5.942   2.356  11.752  0.00  0.00    +0.000 C 
BRANCH  13  14
ATOM     14  O   UNL     1       7.286   2.486  11.683  0.00  0.00    +0.000 OA
ATOM     15  H   UNL     1       7.651   2.335  10.792  0.00  0.00    +0.000 HD
ENDBRANCH  13  14
ENDBRANCH  11  13
ENDBRANCH  10  11
ENDBRANCH   4  10
ENDBRANCH   3   7
ENDBRANCH   2   3
ENDBRANCH   1   2
BRANCH   1  16
ATOM     16  C   UNL     1       3.082   6.364  19.596  0.00  0.00    +0.000 C 
BRANCH  16  17
ATOM     17  C   UNL     1       2.243   7.616  19.378  0.00  0.00    +0.000 A 
ATOM     18  C   UNL     1       1.540   8.212  20.439  0.00  0.00    +0.000 A 
ATOM     19  C   UNL     1       0.741   9.334  20.216  0.00  0.00    +0.000 A 
ATOM     20  C   UNL     1       0.632   9.858  18.933  0.00  0.00    +0.000 A 
ATOM     21  F   UNL     1      -0.154  10.920  18.717  0.00  0.00    +0.000 F 
ATOM     22  C   UNL     1       1.322   9.291  17.870  0.00  0.00    +0.000 A 
ATOM     23  C   UNL     1       2.139   8.183  18.095  0.00  0.00    +0.000 A 
ENDBRANCH  16  17
BRANCH  16  24
ATOM     24  C   UNL     1       2.304   5.073  19.361  0.00  0.00    +0.000 A 
ATOM     25  C   UNL     1       1.753   4.343  20.431  0.00  0.00    +0.000 A 
ATOM     26  C   UNL     1       1.004   3.194  20.195  0.00  0.00    +0.000 A 
ATOM     27  C   UNL     1       0.796   2.774  18.888  0.00  0.00    +0.000 A 
ATOM     28  F   UNL     1       0.069   1.669  18.664  0.00  0.00    +0.000 F 
ATOM     29  C   UNL     1       1.326   3.471  17.813  0.00  0.00    +0.000 A 
ATOM     30  C   UNL     1       2.074   4.625  18.046  0.00  0.00    +0.000 A 
ENDBRANCH  16  24
ENDBRANCH   1  16
TORSDOF 10
ENDMDL
MODEL 4
REMARK VINA RESULT:      -7.6      4.376      8.794
REMARK  Name = 
REMARK  10 active torsions:
REMARK  status: ('A' for Active; 'I' for Inactive)
REMARK    1  A    between atoms: C_2  and  O_3
REMARK    2  A    between atoms: C_2  and  C_4
REMARK    3  A    between atoms: C_4  and  C_5
REMARK    4  A    between atoms: C_5  and  N_6
REMARK    5  A    between atoms: N_9  and  C_10
REMARK    6  A    between atoms: C_10  and  C_11
REMARK    7  A    between atoms: C_11  and  O_12
REMARK    8  A    between atoms: O_12  and  C_13
REMARK    9  A    between atoms: C_13  and  C_14
REMARK   10  A    between atoms: C_13  and  C_21
REMARK                            x       y       z     vdW  Elec       q    Type
REMARK                         _______ _______ _______ _____ _____    ______ ____
ROOT
ATOM      1  O   UNL     1       2.658   7.332  18.506  0.00  0.00    +0.000 OA
ENDROOT
BRANCH   1   2
ATOM      2  C   UNL     1       2.154   8.357  17.648  0.00  0.00    +0.000 C 
BRANCH   2   3
ATOM      3  C   UNL     1       1.703   9.617  18.405  0.00  0.00    +0.000 C 
BRANCH   3   7
ATOM      4  N   UNL     1      -0.118  11.955  20.789  0.00  0.00    +0.000 NA
ATOM      5  C   UNL     1       0.736  10.823  21.190  0.00  0.00    +0.000 C 
ATOM      6  C   UNL     1       0.403   9.483  20.493  0.00  0.00    +0.000 C 
ATOM      7  N   UNL     1       0.366   9.536  19.013  0.00  0.00    +0.000 NA
ATOM      8  C   UNL     1      -0.439  10.706  18.583  0.00  0.00    +0.000 C 
ATOM      9  C   UNL     1      -0.085  12.039  19.303  0.00  0.00    +0.000 C 
BRANCH   4  10
ATOM     10  C   UNL     1      -1.525  11.805  21.215  0.00  0.00    +0.000 C 
BRANCH  10  11
ATOM     11  C   UNL     1      -1.807  11.915  22.714  0.00  0.00    +0.000 C 
BRANCH  11  13
ATOM     12  O   UNL     1      -2.401  14.198  23.302  0.00  0.00    +0.000 OA
ATOM     13  C   UNL     1      -1.547  13.341  23.142  0.00  0.00    +0.000 C 
BRANCH  13  14
ATOM     14  O   UNL     1      -0.237  13.593  23.360  0.00  0.00    +0.000 OA
ATOM     15  H   UNL     1      -0.074  14.378  23.915  0.00  0.00    +0.000 HD
ENDBRANCH  13  14
ENDBRANCH  11  13
ENDBRANCH  10  11
ENDBRANCH   4  10
ENDBRANCH   3   7
ENDBRANCH   2   3
ENDBRANCH   1   2
BRANCH   1  16
ATOM     16  C   UNL     1       2.649   5.995  17.978  0.00  0.00    +0.000 C 
BRANCH  16  17
ATOM     17  C   UNL     1       3.996   5.604  17.386  0.00  0.00    +0.000 A 
ATOM     18  C   UNL     1       4.219   4.313  16.880  0.00  0.00    +0.000 A 
ATOM     19  C   UNL     1       5.472   3.956  16.379  0.00  0.00    +0.000 A 
ATOM     20  C   UNL     1       6.508   4.883  16.393  0.00  0.00    +0.000 A 
ATOM     21  F   UNL     1       7.716   4.533  15.935  0.00  0.00    +0.000 F 
ATOM     22  C   UNL     1       6.311   6.168  16.882  0.00  0.00    +0.000 A 
ATOM     23  C   UNL     1       5.053   6.533  17.362  0.00  0.00    +0.000 A 
ENDBRANCH  16  17
BRANCH  16  24
ATOM     24  C   UNL     1       2.167   5.032  19.059  0.00  0.00    +0.000 A 
ATOM     25  C   UNL     1       1.295   3.969  18.759  0.00  0.00    +0.000 A 
ATOM     26  C   UNL     1       0.906   3.070  19.749  0.00  0.00    +0.000 A 
ATOM     27  C   UNL     1       1.392   3.227  21.040  0.00  0.00    +0.000 A 
ATOM     28  F   UNL     1       1.018   2.356  21.990  0.00  0.00    +0.000 F 
ATOM     29  C   UNL     1       2.251   4.265  21.367  0.00  0.00    +0.000 A 
ATOM     30  C   UNL     1       2.646   5.164  20.376  0.00  0.00    +0.000 A 
ENDBRANCH  16  24
ENDBRANCH   1  16
TORSDOF 10
ENDMDL
MODEL 5
REMARK VINA RESULT:      -7.5      4.528      8.931
REMARK  Name = 
REMARK  10 active torsions:
REMARK  status: ('A' for Active; 'I' for Inactive)
REMARK    1  A    between atoms: C_2  and  O_3
REMARK    2  A    between atoms: C_2  and  C_4
REMARK    3  A    between atoms: C_4  and  C_5
REMARK    4  A    between atoms: C_5  and  N_6
REMARK    5  A    between atoms: N_9  and  C_10
REMARK    6  A    between atoms: C_10  and  C_11
REMARK    7  A    between atoms: C_11  and  O_12
REMARK    8  A    between atoms: O_12  and  C_13
REMARK    9  A    between atoms: C_13  and  C_14
REMARK   10  A    between atoms: C_13  and  C_21
REMARK                            x       y       z     vdW  Elec       q    Type
REMARK                         _______ _______ _______ _____ _____    ______ ____
ROOT
ATOM      1  O   UNL     1       2.577   7.308  18.493  0.00  0.00    +0.000 OA
ENDROOT
BRANCH   1   2
ATOM      2  C   UNL     1       1.832   8.271  17.745  0.00  0.00    +0.000 C 
BRANCH   2   3
ATOM      3  C   UNL     1       1.571   9.573  18.520  0.00  0.00    +0.000 C 
BRANCH   3   7
ATOM      4  N   UNL     1      -0.210  12.289  20.500  0.00  0.00    +0.000 NA
ATOM      5  C   UNL     1       0.999  11.568  20.936  0.00  0.00    +0.000 C 
ATOM      6  C   UNL     1       0.900  10.028  20.847  0.00  0.00    +0.000 C 
ATOM      7  N   UNL     1       0.497   9.498  19.522  0.00  0.00    +0.000 NA
ATOM      8  C   UNL     1      -0.684  10.252  19.032  0.00  0.00    +0.000 C 
ATOM      9  C   UNL     1      -0.558  11.799  19.138  0.00  0.00    +0.000 C 
BRANCH   4  10
ATOM     10  C   UNL     1      -1.373  12.070  21.385  0.00  0.00    +0.000 C 
BRANCH  10  11
ATOM     11  C   UNL     1      -1.215  12.489  22.847  0.00  0.00    +0.000 C 
BRANCH  11  13
ATOM     12  O   UNL     1      -2.837  14.083  23.707  0.00  0.00    +0.000 OA
ATOM     13  C   UNL     1      -2.562  12.946  23.358  0.00  0.00    +0.000 C 
BRANCH  13  14
ATOM     14  O   UNL     1      -3.479  11.952  23.382  0.00  0.00    +0.000 OA
ATOM     15  H   UNL     1      -3.923  11.848  24.243  0.00  0.00    +0.000 HD
ENDBRANCH  13  14
ENDBRANCH  11  13
ENDBRANCH  10  11
ENDBRANCH   4  10
ENDBRANCH   3   7
ENDBRANCH   2   3
ENDBRANCH   1   2
BRANCH   1  16
ATOM     16  C   UNL     1       2.606   5.972  17.963  0.00  0.00    +0.000 C 
BRANCH  16  17
ATOM     17  C   UNL     1       3.952   5.636  17.333  0.00  0.00    +0.000 A 
ATOM     18  C   UNL     1       4.906   6.636  17.086  0.00  0.00    +0.000 A 
ATOM     19  C   UNL     1       6.118   6.321  16.470  0.00  0.00    +0.000 A 
ATOM     20  C   UNL     1       6.376   5.009  16.089  0.00  0.00    +0.000 A 
ATOM     21  F   UNL     1       7.528   4.711  15.476  0.00  0.00    +0.000 F 
ATOM     22  C   UNL     1       5.450   4.001  16.329  0.00  0.00    +0.000 A 
ATOM     23  C   UNL     1       4.248   4.311  16.965  0.00  0.00    +0.000 A 
ENDBRANCH  16  17
BRANCH  16  24
ATOM     24  C   UNL     1       2.193   4.990  19.055  0.00  0.00    +0.000 A 
ATOM     25  C   UNL     1       2.616   5.153  20.387  0.00  0.00    +0.000 A 
ATOM     26  C   UNL     1       2.188   4.276  21.380  0.00  0.00    +0.000 A 
ATOM     27  C   UNL     1       1.330   3.237  21.045  0.00  0.00    +0.000 A 
ATOM     28  F   UNL     1       0.916   2.396  22.006  0.00  0.00    +0.000 F 
ATOM     29  C   UNL     1       0.897   3.049  19.742  0.00  0.00    +0.000 A 
ATOM     30  C   UNL     1       1.320   3.929  18.746  0.00  0.00    +0.000 A 
ENDBRANCH  16  24
ENDBRANCH   1  16
TORSDOF 10
ENDMDL
MODEL 6
REMARK VINA RESULT:      -7.5      4.595      8.988
REMARK  Name = 
REMARK  10 active torsions:
REMARK  status: ('A' for Active; 'I' for Inactive)
REMARK    1  A    between atoms: C_2  and  O_3
REMARK    2  A    between atoms: C_2  and  C_4
REMARK    3  A    between atoms: C_4  and  C_5
REMARK    4  A    between atoms: C_5  and  N_6
REMARK    5  A    between atoms: N_9  and  C_10
REMARK    6  A    between atoms: C_10  and  C_11
REMARK    7  A    between atoms: C_11  and  O_12
REMARK    8  A    between atoms: O_12  and  C_13
REMARK    9  A    between atoms: C_13  and  C_14
REMARK   10  A    between atoms: C_13  and  C_21
REMARK                            x       y       z     vdW  Elec       q    Type
REMARK                         _______ _______ _______ _____ _____    ______ ____
ROOT
ATOM      1  O   UNL     1       3.091   7.394  18.470  0.00  0.00    +0.000 OA
ENDROOT
BRANCH   1   2
ATOM      2  C   UNL     1       1.916   8.204  18.404  0.00  0.00    +0.000 C 
BRANCH   2   3
ATOM      3  C   UNL     1       1.607   8.938  19.719  0.00  0.00    +0.000 C 
BRANCH   3   7
ATOM      4  N   UNL     1       0.140  11.632  21.968  0.00  0.00    +0.000 NA
ATOM      5  C   UNL     1       0.192  10.192  22.281  0.00  0.00    +0.000 C 
ATOM      6  C   UNL     1      -0.357   9.269  21.169  0.00  0.00    +0.000 C 
ATOM      7  N   UNL     1       0.242   9.474  19.829  0.00  0.00    +0.000 NA
ATOM      8  C   UNL     1       0.258  10.924  19.516  0.00  0.00    +0.000 C 
ATOM      9  C   UNL     1       0.811  11.829  20.655  0.00  0.00    +0.000 C 
BRANCH   4  10
ATOM     10  C   UNL     1      -1.236  12.160  21.872  0.00  0.00    +0.000 C 
BRANCH  10  11
ATOM     11  C   UNL     1      -2.018  12.288  23.180  0.00  0.00    +0.000 C 
BRANCH  11  13
ATOM     12  O   UNL     1      -3.916  12.887  21.783  0.00  0.00    +0.000 OA
ATOM     13  C   UNL     1      -3.481  12.468  22.843  0.00  0.00    +0.000 C 
BRANCH  13  14
ATOM     14  O   UNL     1      -4.301  12.093  23.851  0.00  0.00    +0.000 OA
ATOM     15  H   UNL     1      -5.242  12.063  23.602  0.00  0.00    +0.000 HD
ENDBRANCH  13  14
ENDBRANCH  11  13
ENDBRANCH  10  11
ENDBRANCH   4  10
ENDBRANCH   3   7
ENDBRANCH   2   3
ENDBRANCH   1   2
BRANCH   1  16
ATOM     16  C   UNL     1       2.996   6.081  17.892  0.00  0.00    +0.000 C 
BRANCH  16  17
ATOM     17  C   UNL     1       4.312   5.634  17.270  0.00  0.00    +0.000 A 
ATOM     18  C   UNL     1       5.469   6.423  17.374  0.00  0.00    +0.000 A 
ATOM     19  C   UNL     1       6.657   6.020  16.763  0.00  0.00    +0.000 A 
ATOM     20  C   UNL     1       6.690   4.835  16.036  0.00  0.00    +0.000 A 
ATOM     21  F   UNL     1       7.824   4.462  15.430  0.00  0.00    +0.000 F 
ATOM     22  C   UNL     1       5.561   4.035  15.924  0.00  0.00    +0.000 A 
ATOM     23  C   UNL     1       4.379   4.425  16.554  0.00  0.00    +0.000 A 
ENDBRANCH  16  17
BRANCH  16  24
ATOM     24  C   UNL     1       2.467   5.108  18.941  0.00  0.00    +0.000 A 
ATOM     25  C   UNL     1       2.939   5.130  20.266  0.00  0.00    +0.000 A 
ATOM     26  C   UNL     1       2.409   4.269  21.223  0.00  0.00    +0.000 A 
ATOM     27  C   UNL     1       1.399   3.388  20.860  0.00  0.00    +0.000 A 
ATOM     28  F   UNL     1       0.887   2.562  21.786  0.00  0.00    +0.000 F 
ATOM     29  C   UNL     1       0.913   3.342  19.562  0.00  0.00    +0.000 A 
ATOM     30  C   UNL     1       1.440   4.206  18.603  0.00  0.00    +0.000 A 
ENDBRANCH  16  24
ENDBRANCH   1  16
TORSDOF 10
ENDMDL
MODEL 7
REMARK VINA RESULT:      -7.5      4.431      8.882
REMARK  Name = 
REMARK  10 active torsions:
REMARK  status: ('A' for Active; 'I' for Inactive)
REMARK    1  A    between atoms: C_2  and  O_3
REMARK    2  A    between atoms: C_2  and  C_4
REMARK    3  A    between atoms: C_4  and  C_5
REMARK    4  A    between atoms: C_5  and  N_6
REMARK    5  A    between atoms: N_9  and  C_10
REMARK    6  A    between atoms: C_10  and  C_11
REMARK    7  A    between atoms: C_11  and  O_12
REMARK    8  A    between atoms: O_12  and  C_13
REMARK    9  A    between atoms: C_13  and  C_14
REMARK   10  A    between atoms: C_13  and  C_21
REMARK                            x       y       z     vdW  Elec       q    Type
REMARK                         _______ _______ _______ _____ _____    ______ ____
ROOT
ATOM      1  O   UNL     1       2.901   7.409  18.423  0.00  0.00    +0.000 OA
ENDROOT
BRANCH   1   2
ATOM      2  C   UNL     1       1.895   8.355  18.055  0.00  0.00    +0.000 C 
BRANCH   2   3
ATOM      3  C   UNL     1       1.698   9.470  19.095  0.00  0.00    +0.000 C 
BRANCH   3   7
ATOM      4  N   UNL     1      -0.153  11.862  21.402  0.00  0.00    +0.000 NA
ATOM      5  C   UNL     1      -0.489  10.442  21.196  0.00  0.00    +0.000 C 
ATOM      6  C   UNL     1      -0.623  10.017  19.716  0.00  0.00    +0.000 C 
ATOM      7  N   UNL     1       0.541  10.347  18.859  0.00  0.00    +0.000 NA
ATOM      8  C   UNL     1       0.938  11.757  19.094  0.00  0.00    +0.000 C 
ATOM      9  C   UNL     1       1.061  12.158  20.592  0.00  0.00    +0.000 C 
BRANCH   4  10
ATOM     10  C   UNL     1      -1.228  12.784  20.982  0.00  0.00    +0.000 C 
BRANCH  10  11
ATOM     11  C   UNL     1      -2.631  12.495  21.516  0.00  0.00    +0.000 C 
BRANCH  11  13
ATOM     12  O   UNL     1      -3.309  11.897  23.773  0.00  0.00    +0.000 OA
ATOM     13  C   UNL     1      -2.582  12.531  23.026  0.00  0.00    +0.000 C 
BRANCH  13  14
ATOM     14  O   UNL     1      -1.612  13.347  23.500  0.00  0.00    +0.000 OA
ATOM     15  H   UNL     1      -1.035  13.715  22.806  0.00  0.00    +0.000 HD
ENDBRANCH  13  14
ENDBRANCH  11  13
ENDBRANCH  10  11
ENDBRANCH   4  10
ENDBRANCH   3   7
ENDBRANCH   2   3
ENDBRANCH   1   2
BRANCH   1  16
ATOM     16  C   UNL     1       2.778   6.093  17.858  0.00  0.00    +0.000 C 
BRANCH  16  17
ATOM     17  C   UNL     1       4.079   5.618  17.226  0.00  0.00    +0.000 A 
ATOM     18  C   UNL     1       5.121   6.518  16.947  0.00  0.00    +0.000 A 
ATOM     19  C   UNL     1       6.291   6.076  16.329  0.00  0.00    +0.000 A 
ATOM     20  C   UNL     1       6.420   4.737  15.977  0.00  0.00    +0.000 A 
ATOM     21  F   UNL     1       7.534   4.319  15.363  0.00  0.00    +0.000 F 
ATOM     22  C   UNL     1       5.407   3.827  16.249  0.00  0.00    +0.000 A 
ATOM     23  C   UNL     1       4.246   4.263  16.887  0.00  0.00    +0.000 A 
ENDBRANCH  16  17
BRANCH  16  24
ATOM     24  C   UNL     1       2.244   5.139  18.922  0.00  0.00    +0.000 A 
ATOM     25  C   UNL     1       1.371   4.086  18.593  0.00  0.00    +0.000 A 
ATOM     26  C   UNL     1       0.934   3.194  19.568  0.00  0.00    +0.000 A 
ATOM     27  C   UNL     1       1.375   3.348  20.876  0.00  0.00    +0.000 A 
ATOM     28  F   UNL     1       0.955   2.484  21.813  0.00  0.00    +0.000 F 
ATOM     29  C   UNL     1       2.234   4.376  21.233  0.00  0.00    +0.000 A 
ATOM     30  C   UNL     1       2.677   5.268  20.256  0.00  0.00    +0.000 A 
ENDBRANCH  16  24
ENDBRANCH   1  16
TORSDOF 10
ENDMDL
MODEL 8
REMARK VINA RESULT:      -7.5      4.342      8.716
REMARK  Name = 
REMARK  10 active torsions:
REMARK  status: ('A' for Active; 'I' for Inactive)
REMARK    1  A    between atoms: C_2  and  O_3
REMARK    2  A    between atoms: C_2  and  C_4
REMARK    3  A    between atoms: C_4  and  C_5
REMARK    4  A    between atoms: C_5  and  N_6
REMARK    5  A    between atoms: N_9  and  C_10
REMARK    6  A    between atoms: C_10  and  C_11
REMARK    7  A    between atoms: C_11  and  O_12
REMARK    8  A    between atoms: O_12  and  C_13
REMARK    9  A    between atoms: C_13  and  C_14
REMARK   10  A    between atoms: C_13  and  C_21
REMARK                            x       y       z     vdW  Elec       q    Type
REMARK                         _______ _______ _______ _____ _____    ______ ____
ROOT
ATOM      1  O   UNL     1       2.874   7.425  18.469  0.00  0.00    +0.000 OA
ENDROOT
BRANCH   1   2
ATOM      2  C   UNL     1       2.319   8.474  17.673  0.00  0.00    +0.000 C 
BRANCH   2   3
ATOM      3  C   UNL     1       1.141   9.193  18.350  0.00  0.00    +0.000 C 
BRANCH   3   7
ATOM      4  N   UNL     1      -1.009  10.830  21.028  0.00  0.00    +0.000 NA
ATOM      5  C   UNL     1      -0.602  11.457  19.757  0.00  0.00    +0.000 C 
ATOM      6  C   UNL     1       0.913  11.383  19.456  0.00  0.00    +0.000 C 
ATOM      7  N   UNL     1       1.499  10.023  19.511  0.00  0.00    +0.000 NA
ATOM      8  C   UNL     1       1.053   9.346  20.754  0.00  0.00    +0.000 C 
ATOM      9  C   UNL     1      -0.475   9.441  21.034  0.00  0.00    +0.000 C 
BRANCH   4  10
ATOM     10  C   UNL     1      -0.491  11.533  22.220  0.00  0.00    +0.000 C 
BRANCH  10  11
ATOM     11  C   UNL     1      -1.280  12.751  22.699  0.00  0.00    +0.000 C 
BRANCH  11  13
ATOM     12  O   UNL     1      -3.512  12.710  21.735  0.00  0.00    +0.000 OA
ATOM     13  C   UNL     1      -2.753  12.415  22.643  0.00  0.00    +0.000 C 
BRANCH  13  14
ATOM     14  O   UNL     1      -3.172  11.715  23.722  0.00  0.00    +0.000 OA
ATOM     15  H   UNL     1      -2.578  11.786  24.492  0.00  0.00    +0.000 HD
ENDBRANCH  13  14
ENDBRANCH  11  13
ENDBRANCH  10  11
ENDBRANCH   4  10
ENDBRANCH   3   7
ENDBRANCH   2   3
ENDBRANCH   1   2
BRANCH   1  16
ATOM     16  C   UNL     1       2.807   6.100  17.915  0.00  0.00    +0.000 C 
BRANCH  16  17
ATOM     17  C   UNL     1       4.143   5.654  17.337  0.00  0.00    +0.000 A 
ATOM     18  C   UNL     1       5.248   6.521  17.310  0.00  0.00    +0.000 A 
ATOM     19  C   UNL     1       6.453   6.113  16.738  0.00  0.00    +0.000 A 
ATOM     20  C   UNL     1       6.557   4.843  16.181  0.00  0.00    +0.000 A 
ATOM     21  F   UNL     1       7.706   4.462  15.612  0.00  0.00    +0.000 F 
ATOM     22  C   UNL     1       5.480   3.966  16.201  0.00  0.00    +0.000 A 
ATOM     23  C   UNL     1       4.282   4.364  16.793  0.00  0.00    +0.000 A 
ENDBRANCH  16  17
BRANCH  16  24
ATOM     24  C   UNL     1       2.261   5.143  18.971  0.00  0.00    +0.000 A 
ATOM     25  C   UNL     1       1.409   4.078  18.625  0.00  0.00    +0.000 A 
ATOM     26  C   UNL     1       0.960   3.184  19.594  0.00  0.00    +0.000 A 
ATOM     27  C   UNL     1       1.368   3.348  20.911  0.00  0.00    +0.000 A 
ATOM     28  F   UNL     1       0.938   2.482  21.841  0.00  0.00    +0.000 F 
ATOM     29  C   UNL     1       2.206   4.388  21.283  0.00  0.00    +0.000 A 
ATOM     30  C   UNL     1       2.660   5.282  20.314  0.00  0.00    +0.000 A 
ENDBRANCH  16  24
ENDBRANCH   1  16
TORSDOF 10
ENDMDL
MODEL 9
REMARK VINA RESULT:      -7.4      4.313      8.967
REMARK  Name = 
REMARK  10 active torsions:
REMARK  status: ('A' for Active; 'I' for Inactive)
REMARK    1  A    between atoms: C_2  and  O_3
REMARK    2  A    between atoms: C_2  and  C_4
REMARK    3  A    between atoms: C_4  and  C_5
REMARK    4  A    between atoms: C_5  and  N_6
REMARK    5  A    between atoms: N_9  and  C_10
REMARK    6  A    between atoms: C_10  and  C_11
REMARK    7  A    between atoms: C_11  and  O_12
REMARK    8  A    between atoms: O_12  and  C_13
REMARK    9  A    between atoms: C_13  and  C_14
REMARK   10  A    between atoms: C_13  and  C_21
REMARK                            x       y       z     vdW  Elec       q    Type
REMARK                         _______ _______ _______ _____ _____    ______ ____
ROOT
ATOM      1  O   UNL     1       3.374   7.556  17.960  0.00  0.00    +0.000 OA
ENDROOT
BRANCH   1   2
ATOM      2  C   UNL     1       2.196   7.982  18.647  0.00  0.00    +0.000 C 
BRANCH   2   3
ATOM      3  C   UNL     1       1.847   9.459  18.399  0.00  0.00    +0.000 C 
BRANCH   3   7
ATOM      4  N   UNL     1       0.827  11.571  21.394  0.00  0.00    +0.000 NA
ATOM      5  C   UNL     1       0.972  10.104  21.393  0.00  0.00    +0.000 C 
ATOM      6  C   UNL     1       0.222   9.381  20.250  0.00  0.00    +0.000 C 
ATOM      7  N   UNL     1       0.524   9.878  18.887  0.00  0.00    +0.000 NA
ATOM      8  C   UNL     1       0.446  11.360  18.876  0.00  0.00    +0.000 C 
ATOM      9  C   UNL     1       1.205  12.060  20.040  0.00  0.00    +0.000 C 
BRANCH   4  10
ATOM     10  C   UNL     1      -0.550  12.023  21.684  0.00  0.00    +0.000 C 
BRANCH  10  11
ATOM     11  C   UNL     1      -1.225  11.426  22.919  0.00  0.00    +0.000 C 
BRANCH  11  13
ATOM     12  O   UNL     1      -3.472  11.850  23.745  0.00  0.00    +0.000 OA
ATOM     13  C   UNL     1      -2.436  12.266  23.251  0.00  0.00    +0.000 C 
BRANCH  13  14
ATOM     14  O   UNL     1      -2.263  13.575  22.960  0.00  0.00    +0.000 OA
ATOM     15  H   UNL     1      -1.979  13.740  22.042  0.00  0.00    +0.000 HD
ENDBRANCH  13  14
ENDBRANCH  11  13
ENDBRANCH  10  11
ENDBRANCH   4  10
ENDBRANCH   3   7
ENDBRANCH   2   3
ENDBRANCH   1   2
BRANCH   1  16
ATOM     16  C   UNL     1       3.990   6.348  18.438  0.00  0.00    +0.000 C 
BRANCH  16  17
ATOM     17  C   UNL     1       2.960   5.300  18.838  0.00  0.00    +0.000 A 
ATOM     18  C   UNL     1       2.264   4.560  17.869  0.00  0.00    +0.000 A 
ATOM     19  C   UNL     1       1.292   3.634  18.249  0.00  0.00    +0.000 A 
ATOM     20  C   UNL     1       1.005   3.451  19.597  0.00  0.00    +0.000 A 
ATOM     21  F   UNL     1       0.057   2.579  19.960  0.00  0.00    +0.000 F 
ATOM     22  C   UNL     1       1.685   4.166  20.575  0.00  0.00    +0.000 A 
ATOM     23  C   UNL     1       2.672   5.076  20.197  0.00  0.00    +0.000 A 
ENDBRANCH  16  17
BRANCH  16  24
ATOM     24  C   UNL     1       4.983   5.845  17.394  0.00  0.00    +0.000 A 
ATOM     25  C   UNL     1       4.892   6.236  16.046  0.00  0.00    +0.000 A 
ATOM     26  C   UNL     1       5.836   5.807  15.117  0.00  0.00    +0.000 A 
ATOM     27  C   UNL     1       6.880   4.993  15.535  0.00  0.00    +0.000 A 
ATOM     28  F   UNL     1       7.791   4.585  14.638  0.00  0.00    +0.000 F 
ATOM     29  C   UNL     1       6.997   4.590  16.857  0.00  0.00    +0.000 A 
ATOM     30  C   UNL     1       6.055   5.021  17.790  0.00  0.00    +0.000 A 
ENDBRANCH  16  24
ENDBRANCH   1  16
TORSDOF 10
ENDMDL
