MODEL 1
REMARK VINA RESULT:      -6.8      0.000      0.000
REMARK  Name = 
REMARK  6 active torsions:
REMARK  status: ('A' for Active; 'I' for Inactive)
REMARK    1  A    between atoms: C_2  and  C_3
REMARK    2  A    between atoms: C_2  and  C_12
REMARK    3  A    between atoms: C_3  and  O_4
REMARK    4  A    between atoms: O_4  and  C_5
REMARK    5  A    between atoms: C_15  and  O_16
REMARK    6  A    between atoms: C_18  and  O_19
REMARK                            x       y       z     vdW  Elec       q    Type
REMARK                         _______ _______ _______ _____ _____    ______ ____
ROOT
ATOM      1  O   UNL     1       5.456   3.724  15.567  0.00  0.00    +0.000 OA
ATOM      2  C   UNL     1       5.312   4.074  16.749  0.00  0.00    +0.000 C 
ENDROOT
BRANCH   2   3
ATOM      3  C   UNL     1       6.209   5.124  17.289  0.00  0.00    +0.000 A 
ATOM      4  C   UNL     1       6.972   4.813  18.427  0.00  0.00    +0.000 A 
ATOM      5  C   UNL     1       7.826   5.766  18.991  0.00  0.00    +0.000 A 
ATOM      6  C   UNL     1       7.904   7.030  18.420  0.00  0.00    +0.000 A 
ATOM      7  C   UNL     1       7.146   7.358  17.301  0.00  0.00    +0.000 A 
ATOM      8  C   UNL     1       6.298   6.406  16.739  0.00  0.00    +0.000 A 
BRANCH   6   9
ATOM      9  O   UNL     1       8.713   8.000  18.934  0.00  0.00    +0.000 OA
ATOM     10  H   UNL     1       8.189   8.805  19.082  0.00  0.00    +0.000 HD
ENDBRANCH   6   9
BRANCH   8  11
ATOM     11  O   UNL     1       5.534   6.760  15.666  0.00  0.00    +0.000 OA
ATOM     12  H   UNL     1       5.990   7.444  15.151  0.00  0.00    +0.000 HD
ENDBRANCH   8  11
ENDBRANCH   2   3
BRANCH   2  13
ATOM     13  C   UNL     1       4.197   3.530  17.627  0.00  0.00    +0.000 C 
BRANCH  13  14
ATOM     14  O   UNL     1       2.946   4.156  17.351  0.00  0.00    +0.000 OA
BRANCH  14  15
ATOM     15  C   UNL     1       2.563   5.063  18.304  0.00  0.00    +0.000 A 
ATOM     16  C   UNL     1       2.070   4.698  19.558  0.00  0.00    +0.000 A 
ATOM     17  C   UNL     1       1.750   5.673  20.498  0.00  0.00    +0.000 A 
ATOM     18  C   UNL     1       1.927   7.017  20.183  0.00  0.00    +0.000 A 
ATOM     19 CL   UNL     1       1.536   8.219  21.353  0.00  0.00    +0.000 Cl
ATOM     20  C   UNL     1       2.424   7.393  18.938  0.00  0.00    +0.000 A 
ATOM     21  C   UNL     1       2.748   6.413  17.998  0.00  0.00    +0.000 A 
ENDBRANCH  14  15
ENDBRANCH  13  14
ENDBRANCH   2  13
TORSDOF 6
ENDMDL
MODEL 2
REMARK VINA RESULT:      -6.7      2.774      5.353
REMARK  Name = 
REMARK  6 active torsions:
REMARK  status: ('A' for Active; 'I' for Inactive)
REMARK    1  A    between atoms: C_2  and  C_3
REMARK    2  A    between atoms: C_2  and  C_12
REMARK    3  A    between atoms: C_3  and  O_4
REMARK    4  A    between atoms: O_4  and  C_5
REMARK    5  A    between atoms: C_15  and  O_16
REMARK    6  A    between atoms: C_18  and  O_19
REMARK                            x       y       z     vdW  Elec       q    Type
REMARK                         _______ _______ _______ _____ _____    ______ ____
ROOT
ATOM      1  O   UNL     1       0.843   2.510  18.252  0.00  0.00    +0.000 OA
ATOM      2  C   UNL     1       1.732   3.350  18.044  0.00  0.00    +0.000 C 
ENDROOT
BRANCH   2   3
ATOM      3  C   UNL     1       1.764   4.569  18.888  0.00  0.00    +0.000 A 
ATOM      4  C   UNL     1       2.255   5.753  18.312  0.00  0.00    +0.000 A 
ATOM      5  C   UNL     1       2.323   6.931  19.062  0.00  0.00    +0.000 A 
ATOM      6  C   UNL     1       1.909   6.917  20.388  0.00  0.00    +0.000 A 
ATOM      7  C   UNL     1       1.432   5.751  20.976  0.00  0.00    +0.000 A 
ATOM      8  C   UNL     1       1.362   4.578  20.227  0.00  0.00    +0.000 A 
BRANCH   6   9
ATOM      9  O   UNL     1       1.961   8.035  21.167  0.00  0.00    +0.000 OA
ATOM     10  H   UNL     1       1.475   8.752  20.727  0.00  0.00    +0.000 HD
ENDBRANCH   6   9
BRANCH   8  11
ATOM     11  O   UNL     1       0.929   3.436  20.834  0.00  0.00    +0.000 OA
ATOM     12  H   UNL     1       0.523   3.654  21.687  0.00  0.00    +0.000 HD
ENDBRANCH   8  11
ENDBRANCH   2   3
BRANCH   2  13
ATOM     13  C   UNL     1       2.835   3.129  17.020  0.00  0.00    +0.000 C 
BRANCH  13  14
ATOM     14  O   UNL     1       4.100   2.905  17.639  0.00  0.00    +0.000 OA
BRANCH  14  15
ATOM     15  C   UNL     1       4.956   3.970  17.539  0.00  0.00    +0.000 A 
ATOM     16  C   UNL     1       5.161   4.683  16.356  0.00  0.00    +0.000 A 
ATOM     17  C   UNL     1       6.006   5.789  16.340  0.00  0.00    +0.000 A 
ATOM     18  C   UNL     1       6.647   6.183  17.512  0.00  0.00    +0.000 A 
ATOM     19 CL   UNL     1       7.686   7.556  17.487  0.00  0.00    +0.000 Cl
ATOM     20  C   UNL     1       6.445   5.483  18.698  0.00  0.00    +0.000 A 
ATOM     21  C   UNL     1       5.594   4.376  18.713  0.00  0.00    +0.000 A 
ENDBRANCH  14  15
ENDBRANCH  13  14
ENDBRANCH   2  13
TORSDOF 6
ENDMDL
MODEL 3
REMARK VINA RESULT:      -6.7      1.879      2.269
REMARK  Name = 
REMARK  6 active torsions:
REMARK  status: ('A' for Active; 'I' for Inactive)
REMARK    1  A    between atoms: C_2  and  C_3
REMARK    2  A    between atoms: C_2  and  C_12
REMARK    3  A    between atoms: C_3  and  O_4
REMARK    4  A    between atoms: O_4  and  C_5
REMARK    5  A    between atoms: C_15  and  O_16
REMARK    6  A    between atoms: C_18  and  O_19
REMARK                            x       y       z     vdW  Elec       q    Type
REMARK                         _______ _______ _______ _____ _____    ______ ____
ROOT
ATOM      1  O   UNL     1       6.098   3.623  14.933  0.00  0.00    +0.000 OA
ATOM      2  C   UNL     1       5.645   4.010  16.021  0.00  0.00    +0.000 C 
ENDROOT
BRANCH   2   3
ATOM      3  C   UNL     1       6.417   5.017  16.790  0.00  0.00    +0.000 A 
ATOM      4  C   UNL     1       7.188   4.565  17.874  0.00  0.00    +0.000 A 
ATOM      5  C   UNL     1       7.927   5.468  18.644  0.00  0.00    +0.000 A 
ATOM      6  C   UNL     1       7.883   6.822  18.333  0.00  0.00    +0.000 A 
ATOM      7  C   UNL     1       7.115   7.286  17.271  0.00  0.00    +0.000 A 
ATOM      8  C   UNL     1       6.382   6.384  16.502  0.00  0.00    +0.000 A 
BRANCH   6   9
ATOM      9  O   UNL     1       8.576   7.746  19.056  0.00  0.00    +0.000 OA
ATOM     10  H   UNL     1       9.522   7.523  19.033  0.00  0.00    +0.000 HD
ENDBRANCH   6   9
BRANCH   8  11
ATOM     11  O   UNL     1       5.604   6.866  15.490  0.00  0.00    +0.000 OA
ATOM     12  H   UNL     1       6.042   6.711  14.639  0.00  0.00    +0.000 HD
ENDBRANCH   8  11
ENDBRANCH   2   3
BRANCH   2  13
ATOM     13  C   UNL     1       4.292   3.557  16.546  0.00  0.00    +0.000 C 
BRANCH  13  14
ATOM     14  O   UNL     1       3.636   4.583  17.287  0.00  0.00    +0.000 OA
BRANCH  14  15
ATOM     15  C   UNL     1       3.045   4.136  18.440  0.00  0.00    +0.000 A 
ATOM     16  C   UNL     1       1.750   4.486  18.824  0.00  0.00    +0.000 A 
ATOM     17  C   UNL     1       1.192   3.951  19.982  0.00  0.00    +0.000 A 
ATOM     18  C   UNL     1       1.933   3.062  20.756  0.00  0.00    +0.000 A 
ATOM     19 CL   UNL     1       1.236   2.399  22.184  0.00  0.00    +0.000 Cl
ATOM     20  C   UNL     1       3.224   2.701  20.379  0.00  0.00    +0.000 A 
ATOM     21  C   UNL     1       3.779   3.235  19.215  0.00  0.00    +0.000 A 
ENDBRANCH  14  15
ENDBRANCH  13  14
ENDBRANCH   2  13
TORSDOF 6
ENDMDL
MODEL 4
REMARK VINA RESULT:      -6.6      2.899      4.569
REMARK  Name = 
REMARK  6 active torsions:
REMARK  status: ('A' for Active; 'I' for Inactive)
REMARK    1  A    between atoms: C_2  and  C_3
REMARK    2  A    between atoms: C_2  and  C_12
REMARK    3  A    between atoms: C_3  and  O_4
REMARK    4  A    between atoms: O_4  and  C_5
REMARK    5  A    between atoms: C_15  and  O_16
REMARK    6  A    between atoms: C_18  and  O_19
REMARK                            x       y       z     vdW  Elec       q    Type
REMARK                         _______ _______ _______ _____ _____    ______ ____
ROOT
ATOM      1  O   UNL     1       7.587   6.669  16.305  0.00  0.00    +0.000 OA
ATOM      2  C   UNL     1       7.086   5.535  16.373  0.00  0.00    +0.000 C 
ENDROOT
BRANCH   2   3
ATOM      3  C   UNL     1       6.664   4.874  15.115  0.00  0.00    +0.000 A 
ATOM      4  C   UNL     1       5.542   4.030  15.162  0.00  0.00    +0.000 A 
ATOM      5  C   UNL     1       5.103   3.367  14.011  0.00  0.00    +0.000 A 
ATOM      6  C   UNL     1       5.796   3.543  12.820  0.00  0.00    +0.000 A 
ATOM      7  C   UNL     1       6.916   4.365  12.760  0.00  0.00    +0.000 A 
ATOM      8  C   UNL     1       7.350   5.028  13.906  0.00  0.00    +0.000 A 
BRANCH   6   9
ATOM      9  O   UNL     1       5.418   2.915  11.671  0.00  0.00    +0.000 OA
ATOM     10  H   UNL     1       5.171   3.583  11.010  0.00  0.00    +0.000 HD
ENDBRANCH   6   9
BRANCH   8  11
ATOM     11  O   UNL     1       8.473   5.797  13.834  0.00  0.00    +0.000 OA
ATOM     12  H   UNL     1       8.226   6.734  13.803  0.00  0.00    +0.000 HD
ENDBRANCH   8  11
ENDBRANCH   2   3
BRANCH   2  13
ATOM     13  C   UNL     1       6.975   4.773  17.683  0.00  0.00    +0.000 C 
BRANCH  13  14
ATOM     14  O   UNL     1       6.064   5.394  18.587  0.00  0.00    +0.000 OA
BRANCH  14  15
ATOM     15  C   UNL     1       4.825   4.808  18.606  0.00  0.00    +0.000 A 
ATOM     16  C   UNL     1       3.691   5.391  18.039  0.00  0.00    +0.000 A 
ATOM     17  C   UNL     1       2.474   4.715  18.048  0.00  0.00    +0.000 A 
ATOM     18  C   UNL     1       2.393   3.452  18.626  0.00  0.00    +0.000 A 
ATOM     19 CL   UNL     1       0.886   2.617  18.629  0.00  0.00    +0.000 Cl
ATOM     20  C   UNL     1       3.519   2.858  19.191  0.00  0.00    +0.000 A 
ATOM     21  C   UNL     1       4.740   3.536  19.176  0.00  0.00    +0.000 A 
ENDBRANCH  14  15
ENDBRANCH  13  14
ENDBRANCH   2  13
TORSDOF 6
ENDMDL
MODEL 5
REMARK VINA RESULT:      -6.6      3.393      6.269
REMARK  Name = 
REMARK  6 active torsions:
REMARK  status: ('A' for Active; 'I' for Inactive)
REMARK    1  A    between atoms: C_2  and  C_3
REMARK    2  A    between atoms: C_2  and  C_12
REMARK    3  A    between atoms: C_3  and  O_4
REMARK    4  A    between atoms: O_4  and  C_5
REMARK    5  A    between atoms: C_15  and  O_16
REMARK    6  A    between atoms: C_18  and  O_19
REMARK                            x       y       z     vdW  Elec       q    Type
REMARK                         _______ _______ _______ _____ _____    ______ ____
ROOT
ATOM      1  O   UNL     1       5.885   4.412  19.898  0.00  0.00    +0.000 OA
ATOM      2  C   UNL     1       4.978   4.854  19.174  0.00  0.00    +0.000 C 
ENDROOT
BRANCH   2   3
ATOM      3  C   UNL     1       3.781   4.008  18.947  0.00  0.00    +0.000 A 
ATOM      4  C   UNL     1       2.618   4.633  18.467  0.00  0.00    +0.000 A 
ATOM      5  C   UNL     1       1.453   3.892  18.246  0.00  0.00    +0.000 A 
ATOM      6  C   UNL     1       1.454   2.529  18.517  0.00  0.00    +0.000 A 
ATOM      7  C   UNL     1       2.593   1.898  19.004  0.00  0.00    +0.000 A 
ATOM      8  C   UNL     1       3.754   2.637  19.221  0.00  0.00    +0.000 A 
BRANCH   6   9
ATOM      9  O   UNL     1       0.345   1.760  18.328  0.00  0.00    +0.000 OA
ATOM     10  H   UNL     1      -0.415   2.187  18.759  0.00  0.00    +0.000 HD
ENDBRANCH   6   9
BRANCH   8  11
ATOM     11  O   UNL     1       4.848   2.007  19.736  0.00  0.00    +0.000 OA
ATOM     12  H   UNL     1       5.467   2.663  20.092  0.00  0.00    +0.000 HD
ENDBRANCH   8  11
ENDBRANCH   2   3
BRANCH   2  13
ATOM     13  C   UNL     1       5.014   6.257  18.592  0.00  0.00    +0.000 C 
BRANCH  13  14
ATOM     14  O   UNL     1       6.196   6.488  17.828  0.00  0.00    +0.000 OA
BRANCH  14  15
ATOM     15  C   UNL     1       6.232   5.792  16.648  0.00  0.00    +0.000 A 
ATOM     16  C   UNL     1       7.136   4.760  16.392  0.00  0.00    +0.000 A 
ATOM     17  C   UNL     1       7.081   4.060  15.191  0.00  0.00    +0.000 A 
ATOM     18  C   UNL     1       6.117   4.392  14.244  0.00  0.00    +0.000 A 
ATOM     19 CL   UNL     1       6.049   3.518  12.762  0.00  0.00    +0.000 Cl
ATOM     20  C   UNL     1       5.206   5.416  14.490  0.00  0.00    +0.000 A 
ATOM     21  C   UNL     1       5.260   6.115  15.698  0.00  0.00    +0.000 A 
ENDBRANCH  14  15
ENDBRANCH  13  14
ENDBRANCH   2  13
TORSDOF 6
ENDMDL
MODEL 6
REMARK VINA RESULT:      -6.6      2.444      5.179
REMARK  Name = 
REMARK  6 active torsions:
REMARK  status: ('A' for Active; 'I' for Inactive)
REMARK    1  A    between atoms: C_2  and  C_3
REMARK    2  A    between atoms: C_2  and  C_12
REMARK    3  A    between atoms: C_3  and  O_4
REMARK    4  A    between atoms: O_4  and  C_5
REMARK    5  A    between atoms: C_15  and  O_16
REMARK    6  A    between atoms: C_18  and  O_19
REMARK                            x       y       z     vdW  Elec       q    Type
REMARK                         _______ _______ _______ _____ _____    ______ ____
ROOT
ATOM      1  O   UNL     1       1.786   3.431  17.010  0.00  0.00    +0.000 OA
ATOM      2  C   UNL     1       2.697   3.832  17.751  0.00  0.00    +0.000 C 
ENDROOT
BRANCH   2   3
ATOM      3  C   UNL     1       2.405   4.940  18.693  0.00  0.00    +0.000 A 
ATOM      4  C   UNL     1       2.644   6.253  18.255  0.00  0.00    +0.000 A 
ATOM      5  C   UNL     1       2.401   7.339  19.102  0.00  0.00    +0.000 A 
ATOM      6  C   UNL     1       1.931   7.106  20.388  0.00  0.00    +0.000 A 
ATOM      7  C   UNL     1       1.701   5.811  20.841  0.00  0.00    +0.000 A 
ATOM      8  C   UNL     1       1.940   4.730  19.995  0.00  0.00    +0.000 A 
BRANCH   6   9
ATOM      9  O   UNL     1       1.685   8.126  21.258  0.00  0.00    +0.000 OA
ATOM     10  H   UNL     1       0.886   8.601  20.974  0.00  0.00    +0.000 HD
ENDBRANCH   6   9
BRANCH   8  11
ATOM     11  O   UNL     1       1.747   3.468  20.472  0.00  0.00    +0.000 OA
ATOM     12  H   UNL     1       1.037   3.034  19.973  0.00  0.00    +0.000 HD
ENDBRANCH   8  11
ENDBRANCH   2   3
BRANCH   2  13
ATOM     13  C   UNL     1       4.065   3.170  17.790  0.00  0.00    +0.000 C 
BRANCH  13  14
ATOM     14  O   UNL     1       4.916   3.641  16.747  0.00  0.00    +0.000 OA
BRANCH  14  15
ATOM     15  C   UNL     1       5.685   4.715  17.111  0.00  0.00    +0.000 A 
ATOM     16  C   UNL     1       6.650   4.664  18.119  0.00  0.00    +0.000 A 
ATOM     17  C   UNL     1       7.433   5.779  18.400  0.00  0.00    +0.000 A 
ATOM     18  C   UNL     1       7.251   6.950  17.669  0.00  0.00    +0.000 A 
ATOM     19 CL   UNL     1       8.227   8.325  18.017  0.00  0.00    +0.000 Cl
ATOM     20  C   UNL     1       6.296   7.011  16.657  0.00  0.00    +0.000 A 
ATOM     21  C   UNL     1       5.514   5.890  16.374  0.00  0.00    +0.000 A 
ENDBRANCH  14  15
ENDBRANCH  13  14
ENDBRANCH   2  13
TORSDOF 6
ENDMDL
MODEL 7
REMARK VINA RESULT:      -6.5      2.103      3.159
REMARK  Name = 
REMARK  6 active torsions:
REMARK  status: ('A' for Active; 'I' for Inactive)
REMARK    1  A    between atoms: C_2  and  C_3
REMARK    2  A    between atoms: C_2  and  C_12
REMARK    3  A    between atoms: C_3  and  O_4
REMARK    4  A    between atoms: O_4  and  C_5
REMARK    5  A    between atoms: C_15  and  O_16
REMARK    6  A    between atoms: C_18  and  O_19
REMARK                            x       y       z     vdW  Elec       q    Type
REMARK                         _______ _______ _______ _____ _____    ______ ____
ROOT
ATOM      1  O   UNL     1       5.439   3.642  19.631  0.00  0.00    +0.000 OA
ATOM      2  C   UNL     1       4.776   3.996  18.644  0.00  0.00    +0.000 C 
ENDROOT
BRANCH   2   3
ATOM      3  C   UNL     1       5.498   4.341  17.395  0.00  0.00    +0.000 A 
ATOM      4  C   UNL     1       4.758   4.392  16.203  0.00  0.00    +0.000 A 
ATOM      5  C   UNL     1       5.385   4.698  14.991  0.00  0.00    +0.000 A 
ATOM      6  C   UNL     1       6.752   4.942  14.976  0.00  0.00    +0.000 A 
ATOM      7  C   UNL     1       7.501   4.884  16.146  0.00  0.00    +0.000 A 
ATOM      8  C   UNL     1       6.874   4.581  17.354  0.00  0.00    +0.000 A 
BRANCH   6   9
ATOM      9  O   UNL     1       7.416   5.236  13.822  0.00  0.00    +0.000 OA
ATOM     10  H   UNL     1       8.372   5.162  13.978  0.00  0.00    +0.000 HD
ENDBRANCH   6   9
BRANCH   8  11
ATOM     11  O   UNL     1       7.634   4.490  18.483  0.00  0.00    +0.000 OA
ATOM     12  H   UNL     1       8.166   3.680  18.454  0.00  0.00    +0.000 HD
ENDBRANCH   8  11
ENDBRANCH   2   3
BRANCH   2  13
ATOM     13  C   UNL     1       3.256   4.001  18.646  0.00  0.00    +0.000 C 
BRANCH  13  14
ATOM     14  O   UNL     1       2.725   4.697  19.771  0.00  0.00    +0.000 OA
BRANCH  14  15
ATOM     15  C   UNL     1       2.439   6.013  19.519  0.00  0.00    +0.000 A 
ATOM     16  C   UNL     1       2.577   6.601  18.260  0.00  0.00    +0.000 A 
ATOM     17  C   UNL     1       2.217   7.931  18.064  0.00  0.00    +0.000 A 
ATOM     18  C   UNL     1       1.715   8.674  19.129  0.00  0.00    +0.000 A 
ATOM     19 CL   UNL     1       1.265  10.317  18.878  0.00  0.00    +0.000 Cl
ATOM     20  C   UNL     1       1.567   8.095  20.387  0.00  0.00    +0.000 A 
ATOM     21  C   UNL     1       1.925   6.760  20.581  0.00  0.00    +0.000 A 
ENDBRANCH  14  15
ENDBRANCH  13  14
ENDBRANCH   2  13
TORSDOF 6
ENDMDL
MODEL 8
REMARK VINA RESULT:      -6.5      2.406      5.240
REMARK  Name = 
REMARK  6 active torsions:
REMARK  status: ('A' for Active; 'I' for Inactive)
REMARK    1  A    between atoms: C_2  and  C_3
REMARK    2  A    between atoms: C_2  and  C_12
REMARK    3  A    between atoms: C_3  and  O_4
REMARK    4  A    between atoms: O_4  and  C_5
REMARK    5  A    between atoms: C_15  and  O_16
REMARK    6  A    between atoms: C_18  and  O_19
REMARK                            x       y       z     vdW  Elec       q    Type
REMARK                         _______ _______ _______ _____ _____    ______ ____
ROOT
ATOM      1  O   UNL     1       3.509   2.159  17.646  0.00  0.00    +0.000 OA
ATOM      2  C   UNL     1       3.814   3.350  17.474  0.00  0.00    +0.000 C 
ENDROOT
BRANCH   2   3
ATOM      3  C   UNL     1       3.255   4.363  18.402  0.00  0.00    +0.000 A 
ATOM      4  C   UNL     1       3.089   5.672  17.920  0.00  0.00    +0.000 A 
ATOM      5  C   UNL     1       2.579   6.674  18.751  0.00  0.00    +0.000 A 
ATOM      6  C   UNL     1       2.246   6.365  20.064  0.00  0.00    +0.000 A 
ATOM      7  C   UNL     1       2.416   5.076  20.559  0.00  0.00    +0.000 A 
ATOM      8  C   UNL     1       2.922   4.078  19.729  0.00  0.00    +0.000 A 
BRANCH   6   9
ATOM      9  O   UNL     1       1.754   7.304  20.919  0.00  0.00    +0.000 OA
ATOM     10  H   UNL     1       2.316   7.340  21.711  0.00  0.00    +0.000 HD
ENDBRANCH   6   9
BRANCH   8  11
ATOM     11  O   UNL     1       3.117   2.831  20.246  0.00  0.00    +0.000 OA
ATOM     12  H   UNL     1       3.245   2.195  19.526  0.00  0.00    +0.000 HD
ENDBRANCH   8  11
ENDBRANCH   2   3
BRANCH   2  13
ATOM     13  C   UNL     1       4.807   3.789  16.410  0.00  0.00    +0.000 C 
BRANCH  13  14
ATOM     14  O   UNL     1       6.155   3.704  16.869  0.00  0.00    +0.000 OA
BRANCH  14  15
ATOM     15  C   UNL     1       6.704   4.918  17.188  0.00  0.00    +0.000 A 
ATOM     16  C   UNL     1       6.539   6.064  16.408  0.00  0.00    +0.000 A 
ATOM     17  C   UNL     1       7.082   7.278  16.820  0.00  0.00    +0.000 A 
ATOM     18  C   UNL     1       7.788   7.346  18.017  0.00  0.00    +0.000 A 
ATOM     19 CL   UNL     1       8.451   8.851  18.525  0.00  0.00    +0.000 Cl
ATOM     20  C   UNL     1       7.953   6.210  18.806  0.00  0.00    +0.000 A 
ATOM     21  C   UNL     1       7.405   4.994  18.393  0.00  0.00    +0.000 A 
ENDBRANCH  14  15
ENDBRANCH  13  14
ENDBRANCH   2  13
TORSDOF 6
ENDMDL
MODEL 9
REMARK VINA RESULT:      -6.4      1.896      3.129
REMARK  Name = 
REMARK  6 active torsions:
REMARK  status: ('A' for Active; 'I' for Inactive)
REMARK    1  A    between atoms: C_2  and  C_3
REMARK    2  A    between atoms: C_2  and  C_12
REMARK    3  A    between atoms: C_3  and  O_4
REMARK    4  A    between atoms: O_4  and  C_5
REMARK    5  A    between atoms: C_15  and  O_16
REMARK    6  A    between atoms: C_18  and  O_19
REMARK                            x       y       z     vdW  Elec       q    Type
REMARK                         _______ _______ _______ _____ _____    ______ ____
ROOT
ATOM      1  O   UNL     1       4.301   2.792  19.245  0.00  0.00    +0.000 OA
ATOM      2  C   UNL     1       4.129   3.858  18.633  0.00  0.00    +0.000 C 
ENDROOT
BRANCH   2   3
ATOM      3  C   UNL     1       5.114   4.243  17.593  0.00  0.00    +0.000 A 
ATOM      4  C   UNL     1       4.743   4.087  16.248  0.00  0.00    +0.000 A 
ATOM      5  C   UNL     1       5.634   4.420  15.222  0.00  0.00    +0.000 A 
ATOM      6  C   UNL     1       6.897   4.897  15.549  0.00  0.00    +0.000 A 
ATOM      7  C   UNL     1       7.284   5.046  16.876  0.00  0.00    +0.000 A 
ATOM      8  C   UNL     1       6.394   4.717  17.896  0.00  0.00    +0.000 A 
BRANCH   6   9
ATOM      9  O   UNL     1       7.807   5.229  14.590  0.00  0.00    +0.000 OA
ATOM     10  H   UNL     1       7.364   5.254  13.726  0.00  0.00    +0.000 HD
ENDBRANCH   6   9
BRANCH   8  11
ATOM     11  O   UNL     1       6.807   4.832  19.191  0.00  0.00    +0.000 OA
ATOM     12  H   UNL     1       7.753   4.625  19.252  0.00  0.00    +0.000 HD
ENDBRANCH   8  11
ENDBRANCH   2   3
BRANCH   2  13
ATOM     13  C   UNL     1       2.902   4.729  18.848  0.00  0.00    +0.000 C 
BRANCH  13  14
ATOM     14  O   UNL     1       2.917   5.888  18.017  0.00  0.00    +0.000 OA
BRANCH  14  15
ATOM     15  C   UNL     1       2.394   7.002  18.619  0.00  0.00    +0.000 A 
ATOM     16  C   UNL     1       2.084   8.175  17.928  0.00  0.00    +0.000 A 
ATOM     17  C   UNL     1       1.505   9.251  18.595  0.00  0.00    +0.000 A 
ATOM     18  C   UNL     1       1.234   9.152  19.957  0.00  0.00    +0.000 A 
ATOM     19 CL   UNL     1       0.512  10.484  20.775  0.00  0.00    +0.000 Cl
ATOM     20  C   UNL     1       1.535   7.985  20.655  0.00  0.00    +0.000 A 
ATOM     21  C   UNL     1       2.112   6.906  19.984  0.00  0.00    +0.000 A 
ENDBRANCH  14  15
ENDBRANCH  13  14
ENDBRANCH   2  13
TORSDOF 6
ENDMDL
