MODEL 1
REMARK VINA RESULT:      -6.7      0.000      0.000
REMARK  Name = 
REMARK  9 active torsions:
REMARK  status: ('A' for Active; 'I' for Inactive)
REMARK    1  A    between atoms: N_1  and  C_2
REMARK    2  A    between atoms: N_6  and  C_7
REMARK    3  A    between atoms: C_7  and  C_8
REMARK    4  A    between atoms: C_8  and  O_9
REMARK    5  A    between atoms: O_9  and  C_10
REMARK    6  A    between atoms: C_10  and  P_11
REMARK    7  A    between atoms: P_11  and  O_13
REMARK    8  A    between atoms: P_11  and  O_14
REMARK    9  A    between atoms: C_17  and  C_18
REMARK                            x       y       z     vdW  Elec       q    Type
REMARK                         _______ _______ _______ _____ _____    ______ ____
ROOT
ATOM      1  C   UNL     1       4.621   3.161  19.592  0.00  0.00    +0.000 A 
ATOM      2  N   UNL     1       5.737   3.920  19.363  0.00  0.00    +0.000 NA
ATOM      3  C   UNL     1       5.617   5.124  18.907  0.00  0.00    +0.000 A 
ATOM      4  N   UNL     1       6.775   5.796  18.655  0.00  0.00    +0.000 N 
ATOM      5  N   UNL     1       4.401   5.719  18.692  0.00  0.00    +0.000 N 
ATOM      6  C   UNL     1       3.258   5.076  19.113  0.00  0.00    +0.000 A 
ATOM      7  O   UNL     1       2.178   5.648  19.273  0.00  0.00    +0.000 OA
ATOM      8  C   UNL     1       3.359   3.621  19.435  0.00  0.00    +0.000 A 
ATOM      9  H   UNL     1       7.577   5.174  18.687  0.00  0.00    +0.000 HD
ATOM     10  H   UNL     1       6.803   6.423  17.866  0.00  0.00    +0.000 HD
ENDROOT
BRANCH   1  11
ATOM     11  N   UNL     1       4.861   1.870  20.030  0.00  0.00    +0.000 N 
ATOM     12  H   UNL     1       4.940   1.894  21.044  0.00  0.00    +0.000 HD
ATOM     13  H   UNL     1       4.145   1.224  19.716  0.00  0.00    +0.000 HD
ENDBRANCH   1  11
BRANCH   8  14
ATOM     14  C   UNL     1       2.104   2.858  19.657  0.00  0.00    +0.000 C 
ATOM     15  C   UNL     1       1.620   2.671  21.081  0.00  0.00    +0.000 C 
ATOM     16  C   UNL     1       0.834   3.521  20.131  0.00  0.00    +0.000 C 
ENDBRANCH   8  14
BRANCH   5  17
ATOM     17  C   UNL     1       4.264   7.073  18.155  0.00  0.00    +0.000 C 
BRANCH  17  18
ATOM     18  C   UNL     1       4.286   7.071  16.615  0.00  0.00    +0.000 C 
BRANCH  18  19
ATOM     19  O   UNL     1       5.541   6.684  16.027  0.00  0.00    +0.000 OA
BRANCH  19  20
ATOM     20  C   UNL     1       5.364   5.692  14.991  0.00  0.00    +0.000 C 
BRANCH  20  21
ATOM     21  P   UNL     1       6.448   4.293  15.286  0.00  0.00    +0.000 P 
ATOM     22  O   UNL     1       7.790   4.625  15.852  0.00  0.00    +0.000 OA
BRANCH  21  23
ATOM     23  O   UNL     1       5.580   3.303  16.208  0.00  0.00    +0.000 OA
ATOM     24  H   UNL     1       5.297   2.518  15.689  0.00  0.00    +0.000 HD
ENDBRANCH  21  23
BRANCH  21  25
ATOM     25  O   UNL     1       6.531   3.416  13.952  0.00  0.00    +0.000 OA
ATOM     26  H   UNL     1       7.204   3.796  13.345  0.00  0.00    +0.000 HD
ENDBRANCH  21  25
ENDBRANCH  20  21
ENDBRANCH  19  20
ENDBRANCH  18  19
ENDBRANCH  17  18
ENDBRANCH   5  17
TORSDOF 9
ENDMDL
MODEL 2
REMARK VINA RESULT:      -6.6      1.806      2.620
REMARK  Name = 
REMARK  9 active torsions:
REMARK  status: ('A' for Active; 'I' for Inactive)
REMARK    1  A    between atoms: N_1  and  C_2
REMARK    2  A    between atoms: N_6  and  C_7
REMARK    3  A    between atoms: C_7  and  C_8
REMARK    4  A    between atoms: C_8  and  O_9
REMARK    5  A    between atoms: O_9  and  C_10
REMARK    6  A    between atoms: C_10  and  P_11
REMARK    7  A    between atoms: P_11  and  O_13
REMARK    8  A    between atoms: P_11  and  O_14
REMARK    9  A    between atoms: C_17  and  C_18
REMARK                            x       y       z     vdW  Elec       q    Type
REMARK                         _______ _______ _______ _____ _____    ______ ____
ROOT
ATOM      1  C   UNL     1       2.597   4.565  18.209  0.00  0.00    +0.000 A 
ATOM      2  N   UNL     1       3.250   5.584  17.570  0.00  0.00    +0.000 NA
ATOM      3  C   UNL     1       4.465   5.880  17.900  0.00  0.00    +0.000 A 
ATOM      4  N   UNL     1       5.027   6.942  17.257  0.00  0.00    +0.000 N 
ATOM      5  N   UNL     1       5.174   5.172  18.835  0.00  0.00    +0.000 N 
ATOM      6  C   UNL     1       4.637   4.009  19.342  0.00  0.00    +0.000 A 
ATOM      7  O   UNL     1       5.307   3.146  19.912  0.00  0.00    +0.000 OA
ATOM      8  C   UNL     1       3.175   3.775  19.142  0.00  0.00    +0.000 A 
ATOM      9  H   UNL     1       4.332   7.469  16.737  0.00  0.00    +0.000 HD
ATOM     10  H   UNL     1       5.657   7.536  17.774  0.00  0.00    +0.000 HD
ENDROOT
BRANCH   1  11
ATOM     11  N   UNL     1       1.285   4.363  17.817  0.00  0.00    +0.000 N 
ATOM     12  H   UNL     1       0.897   5.265  17.550  0.00  0.00    +0.000 HD
ATOM     13  H   UNL     1       1.212   3.679  17.072  0.00  0.00    +0.000 HD
ENDBRANCH   1  11
BRANCH   8  14
ATOM     14  C   UNL     1       2.532   2.657  19.879  0.00  0.00    +0.000 C 
ATOM     15  C   UNL     1       2.359   2.792  21.378  0.00  0.00    +0.000 C 
ATOM     16  C   UNL     1       1.156   2.780  20.486  0.00  0.00    +0.000 C 
ENDBRANCH   8  14
BRANCH   5  17
ATOM     17  C   UNL     1       6.540   5.520  19.225  0.00  0.00    +0.000 C 
BRANCH  17  18
ATOM     18  C   UNL     1       7.577   4.769  18.368  0.00  0.00    +0.000 C 
BRANCH  18  19
ATOM     19  O   UNL     1       7.614   5.156  16.983  0.00  0.00    +0.000 OA
BRANCH  19  20
ATOM     20  C   UNL     1       7.175   4.087  16.116  0.00  0.00    +0.000 C 
BRANCH  20  21
ATOM     21  P   UNL     1       6.753   4.738  14.498  0.00  0.00    +0.000 P 
ATOM     22  O   UNL     1       7.805   5.576  13.846  0.00  0.00    +0.000 OA
BRANCH  21  23
ATOM     23  O   UNL     1       6.332   3.444  13.644  0.00  0.00    +0.000 OA
ATOM     24  H   UNL     1       5.353   3.362  13.614  0.00  0.00    +0.000 HD
ENDBRANCH  21  23
BRANCH  21  25
ATOM     25  O   UNL     1       5.337   5.473  14.591  0.00  0.00    +0.000 OA
ATOM     26  H   UNL     1       5.244   6.112  13.849  0.00  0.00    +0.000 HD
ENDBRANCH  21  25
ENDBRANCH  20  21
ENDBRANCH  19  20
ENDBRANCH  18  19
ENDBRANCH  17  18
ENDBRANCH   5  17
TORSDOF 9
ENDMDL
MODEL 3
REMARK VINA RESULT:      -6.6      2.823      5.306
REMARK  Name = 
REMARK  9 active torsions:
REMARK  status: ('A' for Active; 'I' for Inactive)
REMARK    1  A    between atoms: N_1  and  C_2
REMARK    2  A    between atoms: N_6  and  C_7
REMARK    3  A    between atoms: C_7  and  C_8
REMARK    4  A    between atoms: C_8  and  O_9
REMARK    5  A    between atoms: O_9  and  C_10
REMARK    6  A    between atoms: C_10  and  P_11
REMARK    7  A    between atoms: P_11  and  O_13
REMARK    8  A    between atoms: P_11  and  O_14
REMARK    9  A    between atoms: C_17  and  C_18
REMARK                            x       y       z     vdW  Elec       q    Type
REMARK                         _______ _______ _______ _____ _____    ______ ____
ROOT
ATOM      1  C   UNL     1       5.559   6.329  16.818  0.00  0.00    +0.000 A 
ATOM      2  N   UNL     1       4.669   7.024  17.593  0.00  0.00    +0.000 NA
ATOM      3  C   UNL     1       3.524   6.501  17.889  0.00  0.00    +0.000 A 
ATOM      4  N   UNL     1       2.673   7.276  18.618  0.00  0.00    +0.000 N 
ATOM      5  N   UNL     1       3.167   5.233  17.512  0.00  0.00    +0.000 N 
ATOM      6  C   UNL     1       4.110   4.420  16.922  0.00  0.00    +0.000 A 
ATOM      7  O   UNL     1       4.001   3.194  16.854  0.00  0.00    +0.000 OA
ATOM      8  C   UNL     1       5.345   5.066  16.385  0.00  0.00    +0.000 A 
ATOM      9  H   UNL     1       2.997   8.238  18.663  0.00  0.00    +0.000 HD
ATOM     10  H   UNL     1       1.685   7.209  18.430  0.00  0.00    +0.000 HD
ENDROOT
BRANCH   1  11
ATOM     11  N   UNL     1       6.732   6.998  16.517  0.00  0.00    +0.000 N 
ATOM     12  H   UNL     1       6.964   7.593  17.309  0.00  0.00    +0.000 HD
ATOM     13  H   UNL     1       7.484   6.359  16.285  0.00  0.00    +0.000 HD
ENDBRANCH   1  11
BRANCH   8  14
ATOM     14  C   UNL     1       6.257   4.253  15.541  0.00  0.00    +0.000 C 
ATOM     15  C   UNL     1       5.858   3.987  14.103  0.00  0.00    +0.000 C 
ATOM     16  C   UNL     1       7.045   4.851  14.401  0.00  0.00    +0.000 C 
ENDBRANCH   8  14
BRANCH   5  17
ATOM     17  C   UNL     1       1.863   4.649  17.827  0.00  0.00    +0.000 C 
BRANCH  17  18
ATOM     18  C   UNL     1       1.774   4.243  19.310  0.00  0.00    +0.000 C 
BRANCH  18  19
ATOM     19  O   UNL     1       2.077   2.863  19.580  0.00  0.00    +0.000 OA
BRANCH  19  20
ATOM     20  C   UNL     1       2.940   2.718  20.730  0.00  0.00    +0.000 C 
BRANCH  20  21
ATOM     21  P   UNL     1       4.549   2.110  20.221  0.00  0.00    +0.000 P 
ATOM     22  O   UNL     1       5.336   1.404  21.277  0.00  0.00    +0.000 OA
BRANCH  21  23
ATOM     23  O   UNL     1       4.244   1.208  18.926  0.00  0.00    +0.000 OA
ATOM     24  H   UNL     1       3.338   0.832  18.981  0.00  0.00    +0.000 HD
ENDBRANCH  21  23
BRANCH  21  25
ATOM     25  O   UNL     1       5.358   3.304  19.532  0.00  0.00    +0.000 OA
ATOM     26  H   UNL     1       6.226   2.975  19.208  0.00  0.00    +0.000 HD
ENDBRANCH  21  25
ENDBRANCH  20  21
ENDBRANCH  19  20
ENDBRANCH  18  19
ENDBRANCH  17  18
ENDBRANCH   5  17
TORSDOF 9
ENDMDL
MODEL 4
REMARK VINA RESULT:      -6.3      3.031      6.099
REMARK  Name = 
REMARK  9 active torsions:
REMARK  status: ('A' for Active; 'I' for Inactive)
REMARK    1  A    between atoms: N_1  and  C_2
REMARK    2  A    between atoms: N_6  and  C_7
REMARK    3  A    between atoms: C_7  and  C_8
REMARK    4  A    between atoms: C_8  and  O_9
REMARK    5  A    between atoms: O_9  and  C_10
REMARK    6  A    between atoms: C_10  and  P_11
REMARK    7  A    between atoms: P_11  and  O_13
REMARK    8  A    between atoms: P_11  and  O_14
REMARK    9  A    between atoms: C_17  and  C_18
REMARK                            x       y       z     vdW  Elec       q    Type
REMARK                         _______ _______ _______ _____ _____    ______ ____
ROOT
ATOM      1  C   UNL     1       7.266   5.229  14.793  0.00  0.00    +0.000 A 
ATOM      2  N   UNL     1       7.461   6.071  15.855  0.00  0.00    +0.000 NA
ATOM      3  C   UNL     1       6.647   6.045  16.858  0.00  0.00    +0.000 A 
ATOM      4  N   UNL     1       6.876   6.951  17.850  0.00  0.00    +0.000 N 
ATOM      5  N   UNL     1       5.608   5.157  16.949  0.00  0.00    +0.000 N 
ATOM      6  C   UNL     1       5.505   4.150  16.013  0.00  0.00    +0.000 A 
ATOM      7  O   UNL     1       4.833   3.131  16.185  0.00  0.00    +0.000 OA
ATOM      8  C   UNL     1       6.290   4.294  14.751  0.00  0.00    +0.000 A 
ATOM      9  H   UNL     1       7.555   7.649  17.562  0.00  0.00    +0.000 HD
ATOM     10  H   UNL     1       6.083   7.354  18.324  0.00  0.00    +0.000 HD
ENDROOT
BRANCH   1  11
ATOM     11  N   UNL     1       8.163   5.372  13.749  0.00  0.00    +0.000 N 
ATOM     12  H   UNL     1       8.708   6.214  13.919  0.00  0.00    +0.000 HD
ATOM     13  H   UNL     1       8.748   4.552  13.636  0.00  0.00    +0.000 HD
ENDBRANCH   1  11
BRANCH   8  14
ATOM     14  C   UNL     1       6.013   3.351  13.637  0.00  0.00    +0.000 C 
ATOM     15  C   UNL     1       5.012   3.765  12.578  0.00  0.00    +0.000 C 
ATOM     16  C   UNL     1       6.460   3.625  12.222  0.00  0.00    +0.000 C 
ENDBRANCH   8  14
BRANCH   5  17
ATOM     17  C   UNL     1       4.672   5.141  18.073  0.00  0.00    +0.000 C 
BRANCH  17  18
ATOM     18  C   UNL     1       5.221   4.311  19.249  0.00  0.00    +0.000 C 
BRANCH  18  19
ATOM     19  O   UNL     1       4.465   3.127  19.560  0.00  0.00    +0.000 OA
BRANCH  19  20
ATOM     20  C   UNL     1       3.048   3.327  19.354  0.00  0.00    +0.000 C 
BRANCH  20  21
ATOM     21  P   UNL     1       2.211   3.492  20.932  0.00  0.00    +0.000 P 
ATOM     22  O   UNL     1       2.706   2.597  22.021  0.00  0.00    +0.000 OA
BRANCH  21  23
ATOM     23  O   UNL     1       2.318   5.058  21.279  0.00  0.00    +0.000 OA
ATOM     24  H   UNL     1       1.571   5.330  21.855  0.00  0.00    +0.000 HD
ENDBRANCH  21  23
BRANCH  21  25
ATOM     25  O   UNL     1       0.635   3.376  20.695  0.00  0.00    +0.000 OA
ATOM     26  H   UNL     1       0.279   2.607  21.193  0.00  0.00    +0.000 HD
ENDBRANCH  21  25
ENDBRANCH  20  21
ENDBRANCH  19  20
ENDBRANCH  18  19
ENDBRANCH  17  18
ENDBRANCH   5  17
TORSDOF 9
ENDMDL
MODEL 5
REMARK VINA RESULT:      -6.3      2.908      5.673
REMARK  Name = 
REMARK  9 active torsions:
REMARK  status: ('A' for Active; 'I' for Inactive)
REMARK    1  A    between atoms: N_1  and  C_2
REMARK    2  A    between atoms: N_6  and  C_7
REMARK    3  A    between atoms: C_7  and  C_8
REMARK    4  A    between atoms: C_8  and  O_9
REMARK    5  A    between atoms: O_9  and  C_10
REMARK    6  A    between atoms: C_10  and  P_11
REMARK    7  A    between atoms: P_11  and  O_13
REMARK    8  A    between atoms: P_11  and  O_14
REMARK    9  A    between atoms: C_17  and  C_18
REMARK                            x       y       z     vdW  Elec       q    Type
REMARK                         _______ _______ _______ _____ _____    ______ ____
ROOT
ATOM      1  C   UNL     1       7.223   5.224  14.793  0.00  0.00    +0.000 A 
ATOM      2  N   UNL     1       7.481   6.065  15.842  0.00  0.00    +0.000 NA
ATOM      3  C   UNL     1       6.730   6.035  16.894  0.00  0.00    +0.000 A 
ATOM      4  N   UNL     1       7.018   6.939  17.872  0.00  0.00    +0.000 N 
ATOM      5  N   UNL     1       5.702   5.142  17.047  0.00  0.00    +0.000 N 
ATOM      6  C   UNL     1       5.544   4.137  16.117  0.00  0.00    +0.000 A 
ATOM      7  O   UNL     1       4.889   3.115  16.329  0.00  0.00    +0.000 OA
ATOM      8  C   UNL     1       6.250   4.286  14.809  0.00  0.00    +0.000 A 
ATOM      9  H   UNL     1       7.675   7.641  17.544  0.00  0.00    +0.000 HD
ATOM     10  H   UNL     1       6.253   7.338  18.394  0.00  0.00    +0.000 HD
ENDROOT
BRANCH   1  11
ATOM     11  N   UNL     1       8.053   5.373  13.695  0.00  0.00    +0.000 N 
ATOM     12  H   UNL     1       8.987   5.074  13.967  0.00  0.00    +0.000 HD
ATOM     13  H   UNL     1       7.708   4.866  12.888  0.00  0.00    +0.000 HD
ENDBRANCH   1  11
BRANCH   8  14
ATOM     14  C   UNL     1       5.908   3.344  13.712  0.00  0.00    +0.000 C 
ATOM     15  C   UNL     1       4.958   3.816  12.631  0.00  0.00    +0.000 C 
ATOM     16  C   UNL     1       6.393   3.547  12.298  0.00  0.00    +0.000 C 
ENDBRANCH   8  14
BRANCH   5  17
ATOM     17  C   UNL     1       4.838   5.121  18.227  0.00  0.00    +0.000 C 
BRANCH  17  18
ATOM     18  C   UNL     1       3.531   5.898  17.980  0.00  0.00    +0.000 C 
BRANCH  18  19
ATOM     19  O   UNL     1       2.354   5.304  18.556  0.00  0.00    +0.000 OA
BRANCH  19  20
ATOM     20  C   UNL     1       1.781   4.300  17.689  0.00  0.00    +0.000 C 
BRANCH  20  21
ATOM     21  P   UNL     1       1.669   2.730  18.551  0.00  0.00    +0.000 P 
ATOM     22  O   UNL     1       0.284   2.223  18.791  0.00  0.00    +0.000 OA
BRANCH  21  23
ATOM     23  O   UNL     1       2.586   1.733  17.686  0.00  0.00    +0.000 OA
ATOM     24  H   UNL     1       2.902   2.184  16.873  0.00  0.00    +0.000 HD
ENDBRANCH  21  23
BRANCH  21  25
ATOM     25  O   UNL     1       2.545   2.812  19.886  0.00  0.00    +0.000 OA
ATOM     26  H   UNL     1       3.289   2.170  19.836  0.00  0.00    +0.000 HD
ENDBRANCH  21  25
ENDBRANCH  20  21
ENDBRANCH  19  20
ENDBRANCH  18  19
ENDBRANCH  17  18
ENDBRANCH   5  17
TORSDOF 9
ENDMDL
MODEL 6
REMARK VINA RESULT:      -6.2      2.910      5.740
REMARK  Name = 
REMARK  9 active torsions:
REMARK  status: ('A' for Active; 'I' for Inactive)
REMARK    1  A    between atoms: N_1  and  C_2
REMARK    2  A    between atoms: N_6  and  C_7
REMARK    3  A    between atoms: C_7  and  C_8
REMARK    4  A    between atoms: C_8  and  O_9
REMARK    5  A    between atoms: O_9  and  C_10
REMARK    6  A    between atoms: C_10  and  P_11
REMARK    7  A    between atoms: P_11  and  O_13
REMARK    8  A    between atoms: P_11  and  O_14
REMARK    9  A    between atoms: C_17  and  C_18
REMARK                            x       y       z     vdW  Elec       q    Type
REMARK                         _______ _______ _______ _____ _____    ______ ____
ROOT
ATOM      1  C   UNL     1       7.262   5.210  14.776  0.00  0.00    +0.000 A 
ATOM      2  N   UNL     1       7.483   6.057  15.829  0.00  0.00    +0.000 NA
ATOM      3  C   UNL     1       6.663   6.074  16.828  0.00  0.00    +0.000 A 
ATOM      4  N   UNL     1       6.921   6.982  17.811  0.00  0.00    +0.000 N 
ATOM      5  N   UNL     1       5.591   5.225  16.923  0.00  0.00    +0.000 N 
ATOM      6  C   UNL     1       5.456   4.212  16.000  0.00  0.00    +0.000 A 
ATOM      7  O   UNL     1       4.747   3.220  16.180  0.00  0.00    +0.000 OA
ATOM      8  C   UNL     1       6.253   4.311  14.740  0.00  0.00    +0.000 A 
ATOM      9  H   UNL     1       7.626   7.652  17.518  0.00  0.00    +0.000 HD
ATOM     10  H   UNL     1       6.140   7.419  18.275  0.00  0.00    +0.000 HD
ENDROOT
BRANCH   1  11
ATOM     11  N   UNL     1       8.169   5.308  13.736  0.00  0.00    +0.000 N 
ATOM     12  H   UNL     1       9.101   5.364  14.138  0.00  0.00    +0.000 HD
ATOM     13  H   UNL     1       8.079   4.539  13.081  0.00  0.00    +0.000 HD
ENDBRANCH   1  11
BRANCH   8  14
ATOM     14  C   UNL     1       5.948   3.366  13.635  0.00  0.00    +0.000 C 
ATOM     15  C   UNL     1       4.993   3.816  12.549  0.00  0.00    +0.000 C 
ATOM     16  C   UNL     1       6.437   3.591  12.226  0.00  0.00    +0.000 C 
ENDBRANCH   8  14
BRANCH   5  17
ATOM     17  C   UNL     1       4.650   5.257  18.043  0.00  0.00    +0.000 C 
BRANCH  17  18
ATOM     18  C   UNL     1       5.084   4.299  19.169  0.00  0.00    +0.000 C 
BRANCH  18  19
ATOM     19  O   UNL     1       4.199   3.187  19.393  0.00  0.00    +0.000 OA
BRANCH  19  20
ATOM     20  C   UNL     1       2.843   3.622  19.640  0.00  0.00    +0.000 C 
BRANCH  20  21
ATOM     21  P   UNL     1       1.756   3.024  18.344  0.00  0.00    +0.000 P 
ATOM     22  O   UNL     1       1.336   4.042  17.334  0.00  0.00    +0.000 OA
BRANCH  21  23
ATOM     23  O   UNL     1       2.538   1.769  17.715  0.00  0.00    +0.000 OA
ATOM     24  H   UNL     1       1.981   1.327  17.038  0.00  0.00    +0.000 HD
ENDBRANCH  21  23
BRANCH  21  25
ATOM     25  O   UNL     1       0.521   2.264  19.016  0.00  0.00    +0.000 OA
ATOM     26  H   UNL     1       0.843   1.683  19.741  0.00  0.00    +0.000 HD
ENDBRANCH  21  25
ENDBRANCH  20  21
ENDBRANCH  19  20
ENDBRANCH  18  19
ENDBRANCH  17  18
ENDBRANCH   5  17
TORSDOF 9
ENDMDL
MODEL 7
REMARK VINA RESULT:      -6.2      0.453      1.065
REMARK  Name = 
REMARK  9 active torsions:
REMARK  status: ('A' for Active; 'I' for Inactive)
REMARK    1  A    between atoms: N_1  and  C_2
REMARK    2  A    between atoms: N_6  and  C_7
REMARK    3  A    between atoms: C_7  and  C_8
REMARK    4  A    between atoms: C_8  and  O_9
REMARK    5  A    between atoms: O_9  and  C_10
REMARK    6  A    between atoms: C_10  and  P_11
REMARK    7  A    between atoms: P_11  and  O_13
REMARK    8  A    between atoms: P_11  and  O_14
REMARK    9  A    between atoms: C_17  and  C_18
REMARK                            x       y       z     vdW  Elec       q    Type
REMARK                         _______ _______ _______ _____ _____    ______ ____
ROOT
ATOM      1  C   UNL     1       4.601   3.061  19.776  0.00  0.00    +0.000 A 
ATOM      2  N   UNL     1       5.683   3.849  19.489  0.00  0.00    +0.000 NA
ATOM      3  C   UNL     1       5.509   5.060  19.070  0.00  0.00    +0.000 A 
ATOM      4  N   UNL     1       6.633   5.761  18.755  0.00  0.00    +0.000 N 
ATOM      5  N   UNL     1       4.270   5.633  18.953  0.00  0.00    +0.000 N 
ATOM      6  C   UNL     1       3.171   4.957  19.437  0.00  0.00    +0.000 A 
ATOM      7  O   UNL     1       2.094   5.503  19.683  0.00  0.00    +0.000 OA
ATOM      8  C   UNL     1       3.322   3.498  19.717  0.00  0.00    +0.000 A 
ATOM      9  H   UNL     1       7.448   5.155  18.717  0.00  0.00    +0.000 HD
ATOM     10  H   UNL     1       6.594   6.405  17.980  0.00  0.00    +0.000 HD
ENDROOT
BRANCH   1  11
ATOM     11  N   UNL     1       4.896   1.767  20.167  0.00  0.00    +0.000 N 
ATOM     12  H   UNL     1       4.255   1.514  20.916  0.00  0.00    +0.000 HD
ATOM     13  H   UNL     1       4.853   1.117  19.390  0.00  0.00    +0.000 HD
ENDBRANCH   1  11
BRANCH   8  14
ATOM     14  C   UNL     1       2.100   2.705  20.008  0.00  0.00    +0.000 C 
ATOM     15  C   UNL     1       1.675   2.545  21.453  0.00  0.00    +0.000 C 
ATOM     16  C   UNL     1       0.828   3.342  20.509  0.00  0.00    +0.000 C 
ENDBRANCH   8  14
BRANCH   5  17
ATOM     17  C   UNL     1       4.070   6.995  18.458  0.00  0.00    +0.000 C 
BRANCH  17  18
ATOM     18  C   UNL     1       4.069   7.039  16.918  0.00  0.00    +0.000 C 
BRANCH  18  19
ATOM     19  O   UNL     1       4.416   5.798  16.277  0.00  0.00    +0.000 OA
BRANCH  19  20
ATOM     20  C   UNL     1       5.583   5.937  15.436  0.00  0.00    +0.000 C 
BRANCH  20  21
ATOM     21  P   UNL     1       6.425   4.361  15.282  0.00  0.00    +0.000 P 
ATOM     22  O   UNL     1       6.553   3.830  13.891  0.00  0.00    +0.000 OA
BRANCH  21  23
ATOM     23  O   UNL     1       7.832   4.585  16.025  0.00  0.00    +0.000 OA
ATOM     24  H   UNL     1       7.807   4.192  16.924  0.00  0.00    +0.000 HD
ENDBRANCH  21  23
BRANCH  21  25
ATOM     25  O   UNL     1       5.752   3.317  16.289  0.00  0.00    +0.000 OA
ATOM     26  H   UNL     1       4.785   3.486  16.347  0.00  0.00    +0.000 HD
ENDBRANCH  21  25
ENDBRANCH  20  21
ENDBRANCH  19  20
ENDBRANCH  18  19
ENDBRANCH  17  18
ENDBRANCH   5  17
TORSDOF 9
ENDMDL
MODEL 8
REMARK VINA RESULT:      -6.1      0.960      1.195
REMARK  Name = 
REMARK  9 active torsions:
REMARK  status: ('A' for Active; 'I' for Inactive)
REMARK    1  A    between atoms: N_1  and  C_2
REMARK    2  A    between atoms: N_6  and  C_7
REMARK    3  A    between atoms: C_7  and  C_8
REMARK    4  A    between atoms: C_8  and  O_9
REMARK    5  A    between atoms: O_9  and  C_10
REMARK    6  A    between atoms: C_10  and  P_11
REMARK    7  A    between atoms: P_11  and  O_13
REMARK    8  A    between atoms: P_11  and  O_14
REMARK    9  A    between atoms: C_17  and  C_18
REMARK                            x       y       z     vdW  Elec       q    Type
REMARK                         _______ _______ _______ _____ _____    ______ ____
ROOT
ATOM      1  C   UNL     1       4.058   3.429  19.886  0.00  0.00    +0.000 A 
ATOM      2  N   UNL     1       5.371   3.595  19.535  0.00  0.00    +0.000 NA
ATOM      3  C   UNL     1       5.745   4.669  18.919  0.00  0.00    +0.000 A 
ATOM      4  N   UNL     1       7.056   4.735  18.555  0.00  0.00    +0.000 N 
ATOM      5  N   UNL     1       4.889   5.704  18.647  0.00  0.00    +0.000 N 
ATOM      6  C   UNL     1       3.616   5.677  19.174  0.00  0.00    +0.000 A 
ATOM      7  O   UNL     1       2.902   6.677  19.273  0.00  0.00    +0.000 OA
ATOM      8  C   UNL     1       3.108   4.371  19.691  0.00  0.00    +0.000 A 
ATOM      9  H   UNL     1       7.513   3.834  18.658  0.00  0.00    +0.000 HD
ATOM     10  H   UNL     1       7.289   5.191  17.687  0.00  0.00    +0.000 HD
ENDROOT
BRANCH   1  11
ATOM     11  N   UNL     1       3.754   2.224  20.494  0.00  0.00    +0.000 N 
ATOM     12  H   UNL     1       4.497   2.011  21.155  0.00  0.00    +0.000 HD
ATOM     13  H   UNL     1       2.841   2.241  20.935  0.00  0.00    +0.000 HD
ENDBRANCH   1  11
BRANCH   8  14
ATOM     14  C   UNL     1       1.668   4.263  20.040  0.00  0.00    +0.000 C 
ATOM     15  C   UNL     1       0.777   3.417  19.154  0.00  0.00    +0.000 C 
ATOM     16  C   UNL     1       1.060   2.984  20.559  0.00  0.00    +0.000 C 
ENDBRANCH   8  14
BRANCH   5  17
ATOM     17  C   UNL     1       5.306   6.910  17.931  0.00  0.00    +0.000 C 
BRANCH  17  18
ATOM     18  C   UNL     1       4.557   7.056  16.593  0.00  0.00    +0.000 C 
BRANCH  18  19
ATOM     19  O   UNL     1       5.336   6.741  15.425  0.00  0.00    +0.000 OA
BRANCH  19  20
ATOM     20  C   UNL     1       5.225   5.345  15.067  0.00  0.00    +0.000 C 
BRANCH  20  21
ATOM     21  P   UNL     1       6.846   4.672  14.694  0.00  0.00    +0.000 P 
ATOM     22  O   UNL     1       7.770   4.532  15.860  0.00  0.00    +0.000 OA
BRANCH  21  23
ATOM     23  O   UNL     1       6.539   3.289  13.937  0.00  0.00    +0.000 OA
ATOM     24  H   UNL     1       7.183   3.151  13.208  0.00  0.00    +0.000 HD
ENDBRANCH  21  23
BRANCH  21  25
ATOM     25  O   UNL     1       7.484   5.505  13.488  0.00  0.00    +0.000 OA
ATOM     26  H   UNL     1       6.839   6.174  13.168  0.00  0.00    +0.000 HD
ENDBRANCH  21  25
ENDBRANCH  20  21
ENDBRANCH  19  20
ENDBRANCH  18  19
ENDBRANCH  17  18
ENDBRANCH   5  17
TORSDOF 9
ENDMDL
MODEL 9
REMARK VINA RESULT:      -6.1      2.806      5.167
REMARK  Name = 
REMARK  9 active torsions:
REMARK  status: ('A' for Active; 'I' for Inactive)
REMARK    1  A    between atoms: N_1  and  C_2
REMARK    2  A    between atoms: N_6  and  C_7
REMARK    3  A    between atoms: C_7  and  C_8
REMARK    4  A    between atoms: C_8  and  O_9
REMARK    5  A    between atoms: O_9  and  C_10
REMARK    6  A    between atoms: C_10  and  P_11
REMARK    7  A    between atoms: P_11  and  O_13
REMARK    8  A    between atoms: P_11  and  O_14
REMARK    9  A    between atoms: C_17  and  C_18
REMARK                            x       y       z     vdW  Elec       q    Type
REMARK                         _______ _______ _______ _____ _____    ______ ____
ROOT
ATOM      1  C   UNL     1       5.259   6.084  16.981  0.00  0.00    +0.000 A 
ATOM      2  N   UNL     1       4.383   6.745  17.800  0.00  0.00    +0.000 NA
ATOM      3  C   UNL     1       3.223   6.234  18.051  0.00  0.00    +0.000 A 
ATOM      4  N   UNL     1       2.388   6.977  18.830  0.00  0.00    +0.000 N 
ATOM      5  N   UNL     1       2.834   5.007  17.581  0.00  0.00    +0.000 N 
ATOM      6  C   UNL     1       3.759   4.213  16.939  0.00  0.00    +0.000 A 
ATOM      7  O   UNL     1       3.618   2.998  16.783  0.00  0.00    +0.000 OA
ATOM      8  C   UNL     1       5.015   4.862  16.457  0.00  0.00    +0.000 A 
ATOM      9  H   UNL     1       2.737   7.924  18.947  0.00  0.00    +0.000 HD
ATOM     10  H   UNL     1       1.399   6.951  18.633  0.00  0.00    +0.000 HD
ENDROOT
BRANCH   1  11
ATOM     11  N   UNL     1       6.452   6.741  16.735  0.00  0.00    +0.000 N 
ATOM     12  H   UNL     1       6.793   7.111  17.619  0.00  0.00    +0.000 HD
ATOM     13  H   UNL     1       7.132   6.137  16.285  0.00  0.00    +0.000 HD
ENDBRANCH   1  11
BRANCH   8  14
ATOM     14  C   UNL     1       5.910   4.087  15.560  0.00  0.00    +0.000 C 
ATOM     15  C   UNL     1       5.619   4.095  14.073  0.00  0.00    +0.000 C 
ATOM     16  C   UNL     1       6.857   4.757  14.595  0.00  0.00    +0.000 C 
ENDBRANCH   8  14
BRANCH   5  17
ATOM     17  C   UNL     1       1.513   4.437  17.847  0.00  0.00    +0.000 C 
BRANCH  17  18
ATOM     18  C   UNL     1       1.382   3.982  19.313  0.00  0.00    +0.000 C 
BRANCH  18  19
ATOM     19  O   UNL     1       2.586   4.097  20.093  0.00  0.00    +0.000 OA
BRANCH  19  20
ATOM     20  C   UNL     1       2.968   2.832  20.679  0.00  0.00    +0.000 C 
BRANCH  20  21
ATOM     21  P   UNL     1       4.593   2.346  20.094  0.00  0.00    +0.000 P 
ATOM     22  O   UNL     1       5.471   3.462  19.628  0.00  0.00    +0.000 OA
BRANCH  21  23
ATOM     23  O   UNL     1       5.214   1.493  21.306  0.00  0.00    +0.000 OA
ATOM     24  H   UNL     1       6.006   1.946  21.668  0.00  0.00    +0.000 HD
ENDBRANCH  21  23
BRANCH  21  25
ATOM     25  O   UNL     1       4.424   1.187  19.007  0.00  0.00    +0.000 OA
ATOM     26  H   UNL     1       4.803   0.348  19.353  0.00  0.00    +0.000 HD
ENDBRANCH  21  25
ENDBRANCH  20  21
ENDBRANCH  19  20
ENDBRANCH  18  19
ENDBRANCH  17  18
ENDBRANCH   5  17
TORSDOF 9
ENDMDL
