MODEL 1
REMARK VINA RESULT:      -9.1      0.000      0.000
REMARK  Name = 
REMARK  4 active torsions:
REMARK  status: ('A' for Active; 'I' for Inactive)
REMARK    1  A    between atoms: C_2  and  C_3
REMARK    2  A    between atoms: C_3  and  N_4
REMARK    3  A    between atoms: N_16  and  C_17
REMARK    4  A    between atoms: C_21  and  C_22
REMARK                            x       y       z     vdW  Elec       q    Type
REMARK                         _______ _______ _______ _____ _____    ______ ____
ROOT
ATOM      1  O   UNL     1       1.879   9.755  17.313  0.00  0.00    +0.000 OA
ATOM      2  C   UNL     1       1.586   9.453  18.475  0.00  0.00    +0.000 C 
ATOM      3  N   UNL     1       2.068   8.301  19.066  0.00  0.00    +0.000 N 
ATOM      4  C   UNL     1       1.856   7.867  20.459  0.00  0.00    +0.000 C 
ATOM      5  C   UNL     1       1.384   6.399  20.546  0.00  0.00    +0.000 C 
ATOM      6  N   UNL     1       2.307   5.551  19.783  0.00  0.00    +0.000 N 
ATOM      7  C   UNL     1       2.449   5.954  18.370  0.00  0.00    +0.000 C 
ATOM      8  C   UNL     1       2.947   7.409  18.293  0.00  0.00    +0.000 C 
ENDROOT
BRANCH   6   9
ATOM      9  C   UNL     1       2.737   4.322  20.212  0.00  0.00    +0.000 A 
ATOM     10  S   UNL     1       2.047   3.531  21.595  0.00  0.00    +0.000 S 
ATOM     11  C   UNL     1       3.004   2.153  21.303  0.00  0.00    +0.000 A 
ATOM     12  N   UNL     1       3.837   2.217  20.287  0.00  0.00    +0.000 NA
ATOM     13  C   UNL     1       3.727   3.473  19.698  0.00  0.00    +0.000 A 
BRANCH  13  14
ATOM     14  C   UNL     1       4.660   3.818  18.575  0.00  0.00    +0.000 A 
ATOM     15  N   UNL     1       5.663   4.669  18.623  0.00  0.00    +0.000 NA
ATOM     16  C   UNL     1       6.131   4.773  17.342  0.00  0.00    +0.000 A 
ATOM     17  C   UNL     1       7.140   5.600  16.832  0.00  0.00    +0.000 A 
ATOM     18  C   UNL     1       7.396   5.563  15.456  0.00  0.00    +0.000 A 
ATOM     19  C   UNL     1       6.668   4.717  14.619  0.00  0.00    +0.000 A 
ATOM     20  C   UNL     1       5.671   3.867  15.117  0.00  0.00    +0.000 A 
ATOM     21  C   UNL     1       5.432   3.927  16.493  0.00  0.00    +0.000 A 
ATOM     22  N   UNL     1       4.550   3.276  17.319  0.00  0.00    +0.000 N 
ATOM     23  H   UNL     1       3.864   2.583  17.060  0.00  0.00    +0.000 HD
ENDBRANCH  13  14
ENDBRANCH   6   9
BRANCH   2  24
ATOM     24  C   UNL     1       0.649  10.349  19.258  0.00  0.00    +0.000 C 
BRANCH  24  25
ATOM     25  N   UNL     1      -0.672  10.383  18.660  0.00  0.00    +0.000 N 
ATOM     26  C   UNL     1      -1.039   9.677  17.536  0.00  0.00    +0.000 A 
ATOM     27  C   UNL     1      -2.347   9.991  17.242  0.00  0.00    +0.000 A 
ATOM     28  C   UNL     1      -2.791  10.926  18.214  0.00  0.00    +0.000 A 
ATOM     29  C   UNL     1      -3.988  11.619  18.452  0.00  0.00    +0.000 A 
ATOM     30  C   UNL     1      -4.030  12.483  19.544  0.00  0.00    +0.000 A 
ATOM     31  C   UNL     1      -2.901  12.613  20.340  0.00  0.00    +0.000 A 
ATOM     32  N   UNL     1      -1.725  11.967  20.161  0.00  0.00    +0.000 NA
ATOM     33  C   UNL     1      -1.728  11.149  19.088  0.00  0.00    +0.000 A 
ENDBRANCH  24  25
ENDBRANCH   2  24
TORSDOF 4
ENDMDL
MODEL 2
REMARK VINA RESULT:      -8.9      2.614      9.913
REMARK  Name = 
REMARK  4 active torsions:
REMARK  status: ('A' for Active; 'I' for Inactive)
REMARK    1  A    between atoms: C_2  and  C_3
REMARK    2  A    between atoms: C_3  and  N_4
REMARK    3  A    between atoms: N_16  and  C_17
REMARK    4  A    between atoms: C_21  and  C_22
REMARK                            x       y       z     vdW  Elec       q    Type
REMARK                         _______ _______ _______ _____ _____    ______ ____
ROOT
ATOM      1  O   UNL     1       1.624   6.109  20.690  0.00  0.00    +0.000 OA
ATOM      2  C   UNL     1       1.927   6.639  19.616  0.00  0.00    +0.000 C 
ATOM      3  N   UNL     1       1.960   8.012  19.470  0.00  0.00    +0.000 N 
ATOM      4  C   UNL     1       2.373   8.763  18.271  0.00  0.00    +0.000 C 
ATOM      5  C   UNL     1       1.347   9.851  17.883  0.00  0.00    +0.000 C 
ATOM      6  N   UNL     1       1.067  10.689  19.055  0.00  0.00    +0.000 N 
ATOM      7  C   UNL     1       0.582   9.928  20.223  0.00  0.00    +0.000 C 
ATOM      8  C   UNL     1       1.623   8.866  20.620  0.00  0.00    +0.000 C 
ENDROOT
BRANCH   6   9
ATOM      9  C   UNL     1       0.937  12.052  18.998  0.00  0.00    +0.000 A 
ATOM     10  S   UNL     1       2.301  13.118  19.125  0.00  0.00    +0.000 S 
ATOM     11  C   UNL     1       1.298  14.463  18.831  0.00  0.00    +0.000 A 
ATOM     12  N   UNL     1       0.015  14.219  18.679  0.00  0.00    +0.000 NA
ATOM     13  C   UNL     1      -0.202  12.852  18.830  0.00  0.00    +0.000 A 
BRANCH  13  14
ATOM     14  C   UNL     1      -1.613  12.346  18.801  0.00  0.00    +0.000 A 
ATOM     15  N   UNL     1      -2.143  11.551  17.895  0.00  0.00    +0.000 NA
ATOM     16  C   UNL     1      -3.476  11.480  18.188  0.00  0.00    +0.000 A 
ATOM     17  C   UNL     1      -4.502  10.827  17.493  0.00  0.00    +0.000 A 
ATOM     18  C   UNL     1      -5.812  10.954  17.970  0.00  0.00    +0.000 A 
ATOM     19  C   UNL     1      -6.084  11.705  19.114  0.00  0.00    +0.000 A 
ATOM     20  C   UNL     1      -5.065  12.346  19.833  0.00  0.00    +0.000 A 
ATOM     21  C   UNL     1      -3.768  12.207  19.333  0.00  0.00    +0.000 A 
ATOM     22  N   UNL     1      -2.550  12.688  19.745  0.00  0.00    +0.000 N 
ATOM     23  H   UNL     1      -2.359  13.272  20.545  0.00  0.00    +0.000 HD
ENDBRANCH  13  14
ENDBRANCH   6   9
BRANCH   2  24
ATOM     24  C   UNL     1       2.233   5.761  18.420  0.00  0.00    +0.000 C 
BRANCH  24  25
ATOM     25  N   UNL     1       3.513   5.094  18.568  0.00  0.00    +0.000 N 
ATOM     26  C   UNL     1       3.700   3.902  19.232  0.00  0.00    +0.000 A 
ATOM     27  C   UNL     1       5.044   3.604  19.204  0.00  0.00    +0.000 A 
ATOM     28  C   UNL     1       5.700   4.651  18.506  0.00  0.00    +0.000 A 
ATOM     29  C   UNL     1       7.030   4.933  18.160  0.00  0.00    +0.000 A 
ATOM     30  C   UNL     1       7.280   6.108  17.452  0.00  0.00    +0.000 A 
ATOM     31  C   UNL     1       6.214   6.932  17.123  0.00  0.00    +0.000 A 
ATOM     32  N   UNL     1       4.914   6.708  17.427  0.00  0.00    +0.000 NA
ATOM     33  C   UNL     1       4.721   5.565  18.117  0.00  0.00    +0.000 A 
ENDBRANCH  24  25
ENDBRANCH   2  24
TORSDOF 4
ENDMDL
MODEL 3
REMARK VINA RESULT:      -8.6      0.399      1.095
REMARK  Name = 
REMARK  4 active torsions:
REMARK  status: ('A' for Active; 'I' for Inactive)
REMARK    1  A    between atoms: C_2  and  C_3
REMARK    2  A    between atoms: C_3  and  N_4
REMARK    3  A    between atoms: N_16  and  C_17
REMARK    4  A    between atoms: C_21  and  C_22
REMARK                            x       y       z     vdW  Elec       q    Type
REMARK                         _______ _______ _______ _____ _____    ______ ____
ROOT
ATOM      1  O   UNL     1       1.685  10.111  17.433  0.00  0.00    +0.000 OA
ATOM      2  C   UNL     1       1.403   9.746  18.580  0.00  0.00    +0.000 C 
ATOM      3  N   UNL     1       1.909   8.576  19.112  0.00  0.00    +0.000 N 
ATOM      4  C   UNL     1       1.710   8.070  20.482  0.00  0.00    +0.000 C 
ATOM      5  C   UNL     1       1.267   6.590  20.498  0.00  0.00    +0.000 C 
ATOM      6  N   UNL     1       2.204   5.799  19.691  0.00  0.00    +0.000 N 
ATOM      7  C   UNL     1       2.333   6.274  18.300  0.00  0.00    +0.000 C 
ATOM      8  C   UNL     1       2.802   7.741  18.294  0.00  0.00    +0.000 C 
ENDROOT
BRANCH   6   9
ATOM      9  C   UNL     1       2.660   4.559  20.057  0.00  0.00    +0.000 A 
ATOM     10  S   UNL     1       2.134   3.773  21.514  0.00  0.00    +0.000 S 
ATOM     11  C   UNL     1       3.018   2.378  21.098  0.00  0.00    +0.000 A 
ATOM     12  N   UNL     1       3.717   2.432  19.986  0.00  0.00    +0.000 NA
ATOM     13  C   UNL     1       3.560   3.694  19.420  0.00  0.00    +0.000 A 
BRANCH  13  14
ATOM     14  C   UNL     1       4.350   4.027  18.189  0.00  0.00    +0.000 A 
ATOM     15  N   UNL     1       4.096   3.624  16.962  0.00  0.00    +0.000 NA
ATOM     16  C   UNL     1       5.152   4.044  16.201  0.00  0.00    +0.000 A 
ATOM     17  C   UNL     1       5.414   3.813  14.844  0.00  0.00    +0.000 A 
ATOM     18  C   UNL     1       6.608   4.306  14.305  0.00  0.00    +0.000 A 
ATOM     19  C   UNL     1       7.507   5.018  15.100  0.00  0.00    +0.000 A 
ATOM     20  C   UNL     1       7.249   5.277  16.453  0.00  0.00    +0.000 A 
ATOM     21  C   UNL     1       6.053   4.769  16.967  0.00  0.00    +0.000 A 
ATOM     22  N   UNL     1       5.480   4.806  18.214  0.00  0.00    +0.000 N 
ATOM     23  H   UNL     1       5.849   5.241  19.047  0.00  0.00    +0.000 HD
ENDBRANCH  13  14
ENDBRANCH   6   9
BRANCH   2  24
ATOM     24  C   UNL     1       0.451  10.583  19.408  0.00  0.00    +0.000 C 
BRANCH  24  25
ATOM     25  N   UNL     1      -0.874  10.618  18.818  0.00  0.00    +0.000 N 
ATOM     26  C   UNL     1      -1.235   9.948  17.670  0.00  0.00    +0.000 A 
ATOM     27  C   UNL     1      -2.549  10.251  17.394  0.00  0.00    +0.000 A 
ATOM     28  C   UNL     1      -3.004  11.141  18.402  0.00  0.00    +0.000 A 
ATOM     29  C   UNL     1      -4.211  11.804  18.671  0.00  0.00    +0.000 A 
ATOM     30  C   UNL     1      -4.262  12.626  19.795  0.00  0.00    +0.000 A 
ATOM     31  C   UNL     1      -3.131  12.745  20.590  0.00  0.00    +0.000 A 
ATOM     32  N   UNL     1      -1.945  12.127  20.382  0.00  0.00    +0.000 NA
ATOM     33  C   UNL     1      -1.941  11.349  19.279  0.00  0.00    +0.000 A 
ENDBRANCH  24  25
ENDBRANCH   2  24
TORSDOF 4
ENDMDL
MODEL 4
REMARK VINA RESULT:      -8.4      1.571      2.128
REMARK  Name = 
REMARK  4 active torsions:
REMARK  status: ('A' for Active; 'I' for Inactive)
REMARK    1  A    between atoms: C_2  and  C_3
REMARK    2  A    between atoms: C_3  and  N_4
REMARK    3  A    between atoms: N_16  and  C_17
REMARK    4  A    between atoms: C_21  and  C_22
REMARK                            x       y       z     vdW  Elec       q    Type
REMARK                         _______ _______ _______ _____ _____    ______ ____
ROOT
ATOM      1  O   UNL     1       1.611   9.489  17.163  0.00  0.00    +0.000 OA
ATOM      2  C   UNL     1       1.480   9.263  18.370  0.00  0.00    +0.000 C 
ATOM      3  N   UNL     1       2.016   8.134  18.958  0.00  0.00    +0.000 N 
ATOM      4  C   UNL     1       1.994   7.787  20.390  0.00  0.00    +0.000 C 
ATOM      5  C   UNL     1       1.509   6.341  20.633  0.00  0.00    +0.000 C 
ATOM      6  N   UNL     1       2.298   5.423  19.802  0.00  0.00    +0.000 N 
ATOM      7  C   UNL     1       2.248   5.740  18.361  0.00  0.00    +0.000 C 
ATOM      8  C   UNL     1       2.759   7.174  18.126  0.00  0.00    +0.000 C 
ENDROOT
BRANCH   6   9
ATOM      9  C   UNL     1       2.760   4.210  20.240  0.00  0.00    +0.000 A 
ATOM     10  S   UNL     1       2.079   3.406  21.621  0.00  0.00    +0.000 S 
ATOM     11  C   UNL     1       3.078   2.054  21.345  0.00  0.00    +0.000 A 
ATOM     12  N   UNL     1       3.919   2.138  20.337  0.00  0.00    +0.000 NA
ATOM     13  C   UNL     1       3.779   3.387  19.741  0.00  0.00    +0.000 A 
BRANCH  13  14
ATOM     14  C   UNL     1       4.712   3.754  18.625  0.00  0.00    +0.000 A 
ATOM     15  N   UNL     1       5.678   4.647  18.672  0.00  0.00    +0.000 NA
ATOM     16  C   UNL     1       6.159   4.751  17.397  0.00  0.00    +0.000 A 
ATOM     17  C   UNL     1       7.139   5.612  16.887  0.00  0.00    +0.000 A 
ATOM     18  C   UNL     1       7.416   5.564  15.516  0.00  0.00    +0.000 A 
ATOM     19  C   UNL     1       6.737   4.674  14.682  0.00  0.00    +0.000 A 
ATOM     20  C   UNL     1       5.769   3.791  15.181  0.00  0.00    +0.000 A 
ATOM     21  C   UNL     1       5.508   3.863  16.552  0.00  0.00    +0.000 A 
ATOM     22  N   UNL     1       4.643   3.188  17.377  0.00  0.00    +0.000 N 
ATOM     23  H   UNL     1       3.990   2.463  17.119  0.00  0.00    +0.000 HD
ENDBRANCH  13  14
ENDBRANCH   6   9
BRANCH   2  24
ATOM     24  C   UNL     1       0.681  10.229  19.220  0.00  0.00    +0.000 C 
BRANCH  24  25
ATOM     25  N   UNL     1       1.074  11.603  18.969  0.00  0.00    +0.000 N 
ATOM     26  C   UNL     1       2.265  11.981  18.391  0.00  0.00    +0.000 A 
ATOM     27  C   UNL     1       2.304  13.357  18.356  0.00  0.00    +0.000 A 
ATOM     28  C   UNL     1       1.101  13.835  18.938  0.00  0.00    +0.000 A 
ATOM     29  C   UNL     1       0.558  15.102  19.199  0.00  0.00    +0.000 A 
ATOM     30  C   UNL     1      -0.692  15.158  19.812  0.00  0.00    +0.000 A 
ATOM     31  C   UNL     1      -1.338  13.971  20.127  0.00  0.00    +0.000 A 
ATOM     32  N   UNL     1      -0.865  12.724  19.894  0.00  0.00    +0.000 NA
ATOM     33  C   UNL     1       0.350  12.720  19.307  0.00  0.00    +0.000 A 
ENDBRANCH  24  25
ENDBRANCH   2  24
TORSDOF 4
ENDMDL
MODEL 5
REMARK VINA RESULT:      -8.4      1.936      2.708
REMARK  Name = 
REMARK  4 active torsions:
REMARK  status: ('A' for Active; 'I' for Inactive)
REMARK    1  A    between atoms: C_2  and  C_3
REMARK    2  A    between atoms: C_3  and  N_4
REMARK    3  A    between atoms: N_16  and  C_17
REMARK    4  A    between atoms: C_21  and  C_22
REMARK                            x       y       z     vdW  Elec       q    Type
REMARK                         _______ _______ _______ _____ _____    ______ ____
ROOT
ATOM      1  O   UNL     1       1.431   9.951  17.775  0.00  0.00    +0.000 OA
ATOM      2  C   UNL     1       1.234   9.550  18.927  0.00  0.00    +0.000 C 
ATOM      3  N   UNL     1       1.804   8.382  19.393  0.00  0.00    +0.000 N 
ATOM      4  C   UNL     1       1.708   7.836  20.759  0.00  0.00    +0.000 C 
ATOM      5  C   UNL     1       1.305   6.345  20.765  0.00  0.00    +0.000 C 
ATOM      6  N   UNL     1       2.207   5.600  19.878  0.00  0.00    +0.000 N 
ATOM      7  C   UNL     1       2.232   6.113  18.495  0.00  0.00    +0.000 C 
ATOM      8  C   UNL     1       2.662   7.592  18.497  0.00  0.00    +0.000 C 
ENDROOT
BRANCH   6   9
ATOM      9  C   UNL     1       2.717   4.364  20.181  0.00  0.00    +0.000 A 
ATOM     10  S   UNL     1       2.260   3.502  21.617  0.00  0.00    +0.000 S 
ATOM     11  C   UNL     1       3.183   2.158  21.122  0.00  0.00    +0.000 A 
ATOM     12  N   UNL     1       3.848   2.283  19.994  0.00  0.00    +0.000 NA
ATOM     13  C   UNL     1       3.630   3.559  19.485  0.00  0.00    +0.000 A 
BRANCH  13  14
ATOM     14  C   UNL     1       4.373   3.971  18.249  0.00  0.00    +0.000 A 
ATOM     15  N   UNL     1       4.055   3.671  17.007  0.00  0.00    +0.000 NA
ATOM     16  C   UNL     1       5.087   4.127  16.234  0.00  0.00    +0.000 A 
ATOM     17  C   UNL     1       5.283   3.997  14.852  0.00  0.00    +0.000 A 
ATOM     18  C   UNL     1       6.464   4.505  14.299  0.00  0.00    +0.000 A 
ATOM     19  C   UNL     1       7.415   5.132  15.105  0.00  0.00    +0.000 A 
ATOM     20  C   UNL     1       7.224   5.290  16.484  0.00  0.00    +0.000 A 
ATOM     21  C   UNL     1       6.039   4.769  17.012  0.00  0.00    +0.000 A 
ATOM     22  N   UNL     1       5.522   4.721  18.283  0.00  0.00    +0.000 N 
ATOM     23  H   UNL     1       5.939   5.080  19.129  0.00  0.00    +0.000 HD
ENDBRANCH  13  14
ENDBRANCH   6   9
BRANCH   2  24
ATOM     24  C   UNL     1       0.318  10.341  19.837  0.00  0.00    +0.000 C 
BRANCH  24  25
ATOM     25  N   UNL     1       0.223  11.727  19.418  0.00  0.00    +0.000 N 
ATOM     26  C   UNL     1      -0.675  12.200  18.487  0.00  0.00    +0.000 A 
ATOM     27  C   UNL     1      -0.441  13.546  18.316  0.00  0.00    +0.000 A 
ATOM     28  C   UNL     1       0.639  13.905  19.165  0.00  0.00    +0.000 A 
ATOM     29  C   UNL     1       1.339  15.090  19.435  0.00  0.00    +0.000 A 
ATOM     30  C   UNL     1       2.378  15.032  20.361  0.00  0.00    +0.000 A 
ATOM     31  C   UNL     1       2.666  13.819  20.971  0.00  0.00    +0.000 A 
ATOM     32  N   UNL     1       2.022  12.649  20.753  0.00  0.00    +0.000 NA
ATOM     33  C   UNL     1       1.030  12.752  19.844  0.00  0.00    +0.000 A 
ENDBRANCH  24  25
ENDBRANCH   2  24
TORSDOF 4
ENDMDL
MODEL 6
REMARK VINA RESULT:      -8.4      6.324     10.252
REMARK  Name = 
REMARK  4 active torsions:
REMARK  status: ('A' for Active; 'I' for Inactive)
REMARK    1  A    between atoms: C_2  and  C_3
REMARK    2  A    between atoms: C_3  and  N_4
REMARK    3  A    between atoms: N_16  and  C_17
REMARK    4  A    between atoms: C_21  and  C_22
REMARK                            x       y       z     vdW  Elec       q    Type
REMARK                         _______ _______ _______ _____ _____    ______ ____
ROOT
ATOM      1  O   UNL     1       7.322  14.837  20.142  0.00  0.00    +0.000 OA
ATOM      2  C   UNL     1       6.602  14.866  19.138  0.00  0.00    +0.000 C 
ATOM      3  N   UNL     1       5.229  14.970  19.236  0.00  0.00    +0.000 N 
ATOM      4  C   UNL     1       4.269  15.088  18.123  0.00  0.00    +0.000 C 
ATOM      5  C   UNL     1       3.099  14.089  18.254  0.00  0.00    +0.000 C 
ATOM      6  N   UNL     1       2.498  14.223  19.586  0.00  0.00    +0.000 N 
ATOM      7  C   UNL     1       3.458  14.027  20.690  0.00  0.00    +0.000 C 
ATOM      8  C   UNL     1       4.606  15.046  20.568  0.00  0.00    +0.000 C 
ENDROOT
BRANCH   6   9
ATOM      9  C   UNL     1       1.147  14.196  19.815  0.00  0.00    +0.000 A 
ATOM     10  S   UNL     1       0.248  15.627  20.215  0.00  0.00    +0.000 S 
ATOM     11  C   UNL     1      -1.208  14.742  20.174  0.00  0.00    +0.000 A 
ATOM     12  N   UNL     1      -1.108  13.454  19.928  0.00  0.00    +0.000 NA
ATOM     13  C   UNL     1       0.237  13.130  19.778  0.00  0.00    +0.000 A 
BRANCH  13  14
ATOM     14  C   UNL     1       0.608  11.689  19.591  0.00  0.00    +0.000 A 
ATOM     15  N   UNL     1       0.638  10.760  20.523  0.00  0.00    +0.000 NA
ATOM     16  C   UNL     1       1.170   9.648  19.931  0.00  0.00    +0.000 A 
ATOM     17  C   UNL     1       1.488   8.407  20.498  0.00  0.00    +0.000 A 
ATOM     18  C   UNL     1       2.085   7.439  19.684  0.00  0.00    +0.000 A 
ATOM     19  C   UNL     1       2.348   7.702  18.339  0.00  0.00    +0.000 A 
ATOM     20  C   UNL     1       2.017   8.930  17.751  0.00  0.00    +0.000 A 
ATOM     21  C   UNL     1       1.426   9.882  18.587  0.00  0.00    +0.000 A 
ATOM     22  N   UNL     1       0.989  11.166  18.380  0.00  0.00    +0.000 N 
ATOM     23  H   UNL     1       1.018  11.694  17.520  0.00  0.00    +0.000 HD
ENDBRANCH  13  14
ENDBRANCH   6   9
BRANCH   2  24
ATOM     24  C   UNL     1       7.238  14.747  17.769  0.00  0.00    +0.000 C 
BRANCH  24  25
ATOM     25  N   UNL     1       8.686  14.729  17.858  0.00  0.00    +0.000 N 
ATOM     26  C   UNL     1       9.483  15.852  17.851  0.00  0.00    +0.000 A 
ATOM     27  C   UNL     1      10.797  15.444  17.908  0.00  0.00    +0.000 A 
ATOM     28  C   UNL     1      10.803  14.025  17.943  0.00  0.00    +0.000 A 
ATOM     29  C   UNL     1      11.798  13.037  17.992  0.00  0.00    +0.000 A 
ATOM     30  C   UNL     1      11.388  11.705  18.009  0.00  0.00    +0.000 A 
ATOM     31  C   UNL     1      10.030  11.421  17.981  0.00  0.00    +0.000 A 
ATOM     32  N   UNL     1       9.029  12.332  17.938  0.00  0.00    +0.000 NA
ATOM     33  C   UNL     1       9.474  13.606  17.916  0.00  0.00    +0.000 A 
ENDBRANCH  24  25
ENDBRANCH   2  24
TORSDOF 4
ENDMDL
MODEL 7
REMARK VINA RESULT:      -8.4      1.812      2.387
REMARK  Name = 
REMARK  4 active torsions:
REMARK  status: ('A' for Active; 'I' for Inactive)
REMARK    1  A    between atoms: C_2  and  C_3
REMARK    2  A    between atoms: C_3  and  N_4
REMARK    3  A    between atoms: N_16  and  C_17
REMARK    4  A    between atoms: C_21  and  C_22
REMARK                            x       y       z     vdW  Elec       q    Type
REMARK                         _______ _______ _______ _____ _____    ______ ____
ROOT
ATOM      1  O   UNL     1       1.515   9.646  17.725  0.00  0.00    +0.000 OA
ATOM      2  C   UNL     1       1.319   9.290  18.892  0.00  0.00    +0.000 C 
ATOM      3  N   UNL     1       1.883   8.136  19.401  0.00  0.00    +0.000 N 
ATOM      4  C   UNL     1       1.788   7.642  20.786  0.00  0.00    +0.000 C 
ATOM      5  C   UNL     1       1.376   6.155  20.849  0.00  0.00    +0.000 C 
ATOM      6  N   UNL     1       2.270   5.371  19.988  0.00  0.00    +0.000 N 
ATOM      7  C   UNL     1       2.294   5.832  18.586  0.00  0.00    +0.000 C 
ATOM      8  C   UNL     1       2.733   7.307  18.531  0.00  0.00    +0.000 C 
ENDROOT
BRANCH   6   9
ATOM      9  C   UNL     1       2.774   4.145  20.335  0.00  0.00    +0.000 A 
ATOM     10  S   UNL     1       2.149   3.234  21.674  0.00  0.00    +0.000 S 
ATOM     11  C   UNL     1       3.176   1.931  21.287  0.00  0.00    +0.000 A 
ATOM     12  N   UNL     1       3.989   2.103  20.268  0.00  0.00    +0.000 NA
ATOM     13  C   UNL     1       3.801   3.385  19.758  0.00  0.00    +0.000 A 
BRANCH  13  14
ATOM     14  C   UNL     1       4.696   3.849  18.648  0.00  0.00    +0.000 A 
ATOM     15  N   UNL     1       5.587   4.817  18.711  0.00  0.00    +0.000 NA
ATOM     16  C   UNL     1       6.052   4.986  17.437  0.00  0.00    +0.000 A 
ATOM     17  C   UNL     1       6.957   5.934  16.942  0.00  0.00    +0.000 A 
ATOM     18  C   UNL     1       7.230   5.937  15.570  0.00  0.00    +0.000 A 
ATOM     19  C   UNL     1       6.623   5.012  14.720  0.00  0.00    +0.000 A 
ATOM     20  C   UNL     1       5.733   4.043  15.203  0.00  0.00    +0.000 A 
ATOM     21  C   UNL     1       5.473   4.065  16.576  0.00  0.00    +0.000 A 
ATOM     22  N   UNL     1       4.669   3.305  17.388  0.00  0.00    +0.000 N 
ATOM     23  H   UNL     1       4.076   2.534  17.118  0.00  0.00    +0.000 HD
ENDBRANCH  13  14
ENDBRANCH   6   9
BRANCH   2  24
ATOM     24  C   UNL     1       0.411  10.119  19.776  0.00  0.00    +0.000 C 
BRANCH  24  25
ATOM     25  N   UNL     1       0.216  11.450  19.232  0.00  0.00    +0.000 N 
ATOM     26  C   UNL     1      -0.785  11.794  18.351  0.00  0.00    +0.000 A 
ATOM     27  C   UNL     1      -0.628  13.123  18.025  0.00  0.00    +0.000 A 
ATOM     28  C   UNL     1       0.511  13.603  18.722  0.00  0.00    +0.000 A 
ATOM     29  C   UNL     1       1.181  14.833  18.803  0.00  0.00    +0.000 A 
ATOM     30  C   UNL     1       2.305  14.906  19.623  0.00  0.00    +0.000 A 
ATOM     31  C   UNL     1       2.702  13.773  20.319  0.00  0.00    +0.000 A 
ATOM     32  N   UNL     1       2.092  12.566  20.284  0.00  0.00    +0.000 NA
ATOM     33  C   UNL     1       1.015  12.541  19.471  0.00  0.00    +0.000 A 
ENDBRANCH  24  25
ENDBRANCH   2  24
TORSDOF 4
ENDMDL
MODEL 8
REMARK VINA RESULT:      -8.3      2.915      9.422
REMARK  Name = 
REMARK  4 active torsions:
REMARK  status: ('A' for Active; 'I' for Inactive)
REMARK    1  A    between atoms: C_2  and  C_3
REMARK    2  A    between atoms: C_3  and  N_4
REMARK    3  A    between atoms: N_16  and  C_17
REMARK    4  A    between atoms: C_21  and  C_22
REMARK                            x       y       z     vdW  Elec       q    Type
REMARK                         _______ _______ _______ _____ _____    ______ ____
ROOT
ATOM      1  O   UNL     1       2.708   7.426  17.818  0.00  0.00    +0.000 OA
ATOM      2  C   UNL     1       2.241   7.629  18.944  0.00  0.00    +0.000 C 
ATOM      3  N   UNL     1       1.579   8.801  19.252  0.00  0.00    +0.000 N 
ATOM      4  C   UNL     1       0.917   9.133  20.527  0.00  0.00    +0.000 C 
ATOM      5  C   UNL     1       1.335  10.522  21.056  0.00  0.00    +0.000 C 
ATOM      6  N   UNL     1       1.141  11.520  19.996  0.00  0.00    +0.000 N 
ATOM      7  C   UNL     1       1.873  11.210  18.752  0.00  0.00    +0.000 C 
ATOM      8  C   UNL     1       1.429   9.836  18.217  0.00  0.00    +0.000 C 
ENDROOT
BRANCH   6   9
ATOM      9  C   UNL     1       0.624  12.770  20.217  0.00  0.00    +0.000 A 
ATOM     10  S   UNL     1       1.394  13.916  21.270  0.00  0.00    +0.000 S 
ATOM     11  C   UNL     1       0.242  15.099  20.850  0.00  0.00    +0.000 A 
ATOM     12  N   UNL     1      -0.707  14.728  20.019  0.00  0.00    +0.000 NA
ATOM     13  C   UNL     1      -0.525  13.386  19.701  0.00  0.00    +0.000 A 
BRANCH  13  14
ATOM     14  C   UNL     1      -1.552  12.709  18.842  0.00  0.00    +0.000 A 
ATOM     15  N   UNL     1      -2.743  12.296  19.223  0.00  0.00    +0.000 NA
ATOM     16  C   UNL     1      -3.264  11.614  18.159  0.00  0.00    +0.000 A 
ATOM     17  C   UNL     1      -4.472  10.912  18.062  0.00  0.00    +0.000 A 
ATOM     18  C   UNL     1      -4.755  10.239  16.868  0.00  0.00    +0.000 A 
ATOM     19  C   UNL     1      -3.858  10.277  15.800  0.00  0.00    +0.000 A 
ATOM     20  C   UNL     1      -2.655  10.994  15.873  0.00  0.00    +0.000 A 
ATOM     21  C   UNL     1      -2.395  11.652  17.078  0.00  0.00    +0.000 A 
ATOM     22  N   UNL     1      -1.345  12.419  17.517  0.00  0.00    +0.000 N 
ATOM     23  H   UNL     1      -0.509  12.664  17.008  0.00  0.00    +0.000 HD
ENDBRANCH  13  14
ENDBRANCH   6   9
BRANCH   2  24
ATOM     24  C   UNL     1       2.431   6.582  20.022  0.00  0.00    +0.000 C 
BRANCH  24  25
ATOM     25  N   UNL     1       3.223   5.465  19.542  0.00  0.00    +0.000 N 
ATOM     26  C   UNL     1       4.596   5.469  19.439  0.00  0.00    +0.000 A 
ATOM     27  C   UNL     1       4.988   4.261  18.907  0.00  0.00    +0.000 A 
ATOM     28  C   UNL     1       3.816   3.498  18.670  0.00  0.00    +0.000 A 
ATOM     29  C   UNL     1       3.549   2.224  18.146  0.00  0.00    +0.000 A 
ATOM     30  C   UNL     1       2.217   1.821  18.068  0.00  0.00    +0.000 A 
ATOM     31  C   UNL     1       1.228   2.687  18.514  0.00  0.00    +0.000 A 
ATOM     32  N   UNL     1       1.427   3.921  19.032  0.00  0.00    +0.000 NA
ATOM     33  C   UNL     1       2.730   4.271  19.079  0.00  0.00    +0.000 A 
ENDBRANCH  24  25
ENDBRANCH   2  24
TORSDOF 4
ENDMDL
MODEL 9
REMARK VINA RESULT:      -8.3      2.622      9.615
REMARK  Name = 
REMARK  4 active torsions:
REMARK  status: ('A' for Active; 'I' for Inactive)
REMARK    1  A    between atoms: C_2  and  C_3
REMARK    2  A    between atoms: C_3  and  N_4
REMARK    3  A    between atoms: N_16  and  C_17
REMARK    4  A    between atoms: C_21  and  C_22
REMARK                            x       y       z     vdW  Elec       q    Type
REMARK                         _______ _______ _______ _____ _____    ______ ____
ROOT
ATOM      1  O   UNL     1       1.491   5.976  20.654  0.00  0.00    +0.000 OA
ATOM      2  C   UNL     1       1.860   6.629  19.672  0.00  0.00    +0.000 C 
ATOM      3  N   UNL     1       1.934   8.008  19.706  0.00  0.00    +0.000 N 
ATOM      4  C   UNL     1       2.426   8.893  18.635  0.00  0.00    +0.000 C 
ATOM      5  C   UNL     1       1.448  10.052  18.342  0.00  0.00    +0.000 C 
ATOM      6  N   UNL     1       1.129  10.742  19.598  0.00  0.00    +0.000 N 
ATOM      7  C   UNL     1       0.567   9.854  20.634  0.00  0.00    +0.000 C 
ATOM      8  C   UNL     1       1.560   8.718  20.939  0.00  0.00    +0.000 C 
ENDROOT
BRANCH   6   9
ATOM      9  C   UNL     1       1.035  12.105  19.711  0.00  0.00    +0.000 A 
ATOM     10  S   UNL     1       2.299  13.064  20.415  0.00  0.00    +0.000 S 
ATOM     11  C   UNL     1       1.451  14.491  20.032  0.00  0.00    +0.000 A 
ATOM     12  N   UNL     1       0.278  14.343  19.456  0.00  0.00    +0.000 NA
ATOM     13  C   UNL     1       0.014  12.983  19.323  0.00  0.00    +0.000 A 
BRANCH  13  14
ATOM     14  C   UNL     1      -1.321  12.566  18.781  0.00  0.00    +0.000 A 
ATOM     15  N   UNL     1      -2.456  12.515  19.447  0.00  0.00    +0.000 NA
ATOM     16  C   UNL     1      -3.365  11.943  18.601  0.00  0.00    +0.000 A 
ATOM     17  C   UNL     1      -4.700  11.592  18.839  0.00  0.00    +0.000 A 
ATOM     18  C   UNL     1      -5.412  10.956  17.816  0.00  0.00    +0.000 A 
ATOM     19  C   UNL     1      -4.808  10.688  16.588  0.00  0.00    +0.000 A 
ATOM     20  C   UNL     1      -3.479  11.051  16.326  0.00  0.00    +0.000 A 
ATOM     21  C   UNL     1      -2.790  11.680  17.365  0.00  0.00    +0.000 A 
ATOM     22  N   UNL     1      -1.507  12.156  17.485  0.00  0.00    +0.000 N 
ATOM     23  H   UNL     1      -0.777  12.134  16.788  0.00  0.00    +0.000 HD
ENDBRANCH  13  14
ENDBRANCH   6   9
BRANCH   2  24
ATOM     24  C   UNL     1       2.206   5.902  18.389  0.00  0.00    +0.000 C 
BRANCH  24  25
ATOM     25  N   UNL     1       3.462   5.184  18.510  0.00  0.00    +0.000 N 
ATOM     26  C   UNL     1       3.606   3.965  19.132  0.00  0.00    +0.000 A 
ATOM     27  C   UNL     1       4.938   3.619  19.088  0.00  0.00    +0.000 A 
ATOM     28  C   UNL     1       5.631   4.665  18.425  0.00  0.00    +0.000 A 
ATOM     29  C   UNL     1       6.969   4.911  18.083  0.00  0.00    +0.000 A 
ATOM     30  C   UNL     1       7.260   6.099  17.415  0.00  0.00    +0.000 A 
ATOM     31  C   UNL     1       6.223   6.972  17.118  0.00  0.00    +0.000 A 
ATOM     32  N   UNL     1       4.917   6.785  17.419  0.00  0.00    +0.000 NA
ATOM     33  C   UNL     1       4.685   5.626  18.071  0.00  0.00    +0.000 A 
ENDBRANCH  24  25
ENDBRANCH   2  24
TORSDOF 4
ENDMDL
