MODEL 1
REMARK VINA RESULT:      -6.7      0.000      0.000
REMARK  Name = 
REMARK  10 active torsions:
REMARK  status: ('A' for Active; 'I' for Inactive)
REMARK    1  A    between atoms: C_1  and  O_2
REMARK    2  A    between atoms: O_2  and  C_3
REMARK    3  A    between atoms: C_5  and  C_6
REMARK    4  A    between atoms: C_6  and  C_15
REMARK    5  A    between atoms: C_7  and  C_8
REMARK    6  A    between atoms: C_15  and  C_16
REMARK    7  A    between atoms: C_19  and  O_20
REMARK    8  A    between atoms: O_20  and  C_21
REMARK    9  A    between atoms: C_22  and  O_23
REMARK   10  A    between atoms: O_23  and  C_24
REMARK                            x       y       z     vdW  Elec       q    Type
REMARK                         _______ _______ _______ _____ _____    ______ ____
ROOT
ATOM      1  C   UNL     1       5.881   5.578  16.473  0.00  0.00    +0.000 A 
ATOM      2  C   UNL     1       4.685   4.901  16.755  0.00  0.00    +0.000 A 
ATOM      3  C   UNL     1       4.364   4.495  18.055  0.00  0.00    +0.000 A 
ATOM      4  C   UNL     1       5.240   4.822  19.091  0.00  0.00    +0.000 A 
ATOM      5  C   UNL     1       6.390   5.590  18.841  0.00  0.00    +0.000 A 
ATOM      6  C   UNL     1       6.731   5.975  17.525  0.00  0.00    +0.000 A 
ENDROOT
BRANCH   1   8
ATOM      7  C   UNL     1       6.731   4.814  14.372  0.00  0.00    +0.000 C 
ATOM      8  O   UNL     1       6.231   5.876  15.181  0.00  0.00    +0.000 OA
ENDBRANCH   1   8
BRANCH   3   9
ATOM      9  C   UNL     1       3.111   3.754  18.295  0.00  0.00    +0.000 C 
ATOM     10  C   UNL     1       2.043   4.296  18.917  0.00  0.00    +0.000 C 
BRANCH  10  11
ATOM     11  C   UNL     1       1.915   5.667  19.413  0.00  0.00    +0.000 A 
ATOM     12  C   UNL     1       1.621   5.906  20.760  0.00  0.00    +0.000 A 
ATOM     13  C   UNL     1       1.466   7.215  21.224  0.00  0.00    +0.000 A 
ATOM     14  C   UNL     1       1.603   8.287  20.342  0.00  0.00    +0.000 A 
ATOM     15  C   UNL     1       1.880   8.046  18.998  0.00  0.00    +0.000 A 
ATOM     16 BR   UNL     1       2.039   9.498  17.797  0.00  0.00    +0.000 Br
ATOM     17  C   UNL     1       2.033   6.742  18.527  0.00  0.00    +0.000 A 
ENDBRANCH  10  11
BRANCH   9  18
ATOM     18  C   UNL     1       2.963   2.299  17.914  0.00  0.00    +0.000 C 
ATOM     19  C   UNL     1       3.865   1.271  18.555  0.00  0.00    +0.000 C 
ATOM     20  O   UNL     1       2.133   1.941  17.076  0.00  0.00    +0.000 OA
ENDBRANCH   9  18
ENDBRANCH   3   9
BRANCH   5  21
ATOM     21  O   UNL     1       7.127   5.848  19.975  0.00  0.00    +0.000 OA
ATOM     22  C   UNL     1       8.397   5.203  20.054  0.00  0.00    +0.000 C 
ENDBRANCH   5  21
BRANCH   6  23
ATOM     23  O   UNL     1       7.918   6.649  17.389  0.00  0.00    +0.000 OA
ATOM     24  C   UNL     1       7.947   8.056  17.591  0.00  0.00    +0.000 C 
ENDBRANCH   6  23
TORSDOF 6
ENDMDL
MODEL 2
REMARK VINA RESULT:      -6.6      0.068      2.436
REMARK  Name = 
REMARK  10 active torsions:
REMARK  status: ('A' for Active; 'I' for Inactive)
REMARK    1  A    between atoms: C_1  and  O_2
REMARK    2  A    between atoms: O_2  and  C_3
REMARK    3  A    between atoms: C_5  and  C_6
REMARK    4  A    between atoms: C_6  and  C_15
REMARK    5  A    between atoms: C_7  and  C_8
REMARK    6  A    between atoms: C_15  and  C_16
REMARK    7  A    between atoms: C_19  and  O_20
REMARK    8  A    between atoms: O_20  and  C_21
REMARK    9  A    between atoms: C_22  and  O_23
REMARK   10  A    between atoms: O_23  and  C_24
REMARK                            x       y       z     vdW  Elec       q    Type
REMARK                         _______ _______ _______ _____ _____    ______ ____
ROOT
ATOM      1  C   UNL     1       6.377   5.556  18.881  0.00  0.00    +0.000 A 
ATOM      2  C   UNL     1       5.204   4.813  19.085  0.00  0.00    +0.000 A 
ATOM      3  C   UNL     1       4.331   4.523  18.031  0.00  0.00    +0.000 A 
ATOM      4  C   UNL     1       4.673   4.946  16.746  0.00  0.00    +0.000 A 
ATOM      5  C   UNL     1       5.895   5.599  16.508  0.00  0.00    +0.000 A 
ATOM      6  C   UNL     1       6.763   5.919  17.576  0.00  0.00    +0.000 A 
ENDROOT
BRANCH   1   8
ATOM      7  C   UNL     1       8.391   5.215  20.126  0.00  0.00    +0.000 C 
ATOM      8  O   UNL     1       7.168   5.922  19.941  0.00  0.00    +0.000 OA
ENDBRANCH   1   8
BRANCH   3   9
ATOM      9  C   UNL     1       3.092   3.770  18.302  0.00  0.00    +0.000 C 
ATOM     10  C   UNL     1       2.031   4.303  18.943  0.00  0.00    +0.000 C 
BRANCH  10  11
ATOM     11  C   UNL     1       1.899   5.676  19.434  0.00  0.00    +0.000 A 
ATOM     12  C   UNL     1       1.589   5.919  20.777  0.00  0.00    +0.000 A 
ATOM     13  C   UNL     1       1.431   7.229  21.237  0.00  0.00    +0.000 A 
ATOM     14  C   UNL     1       1.579   8.299  20.354  0.00  0.00    +0.000 A 
ATOM     15  C   UNL     1       1.871   8.054  19.013  0.00  0.00    +0.000 A 
ATOM     16 BR   UNL     1       2.046   9.503  17.811  0.00  0.00    +0.000 Br
ATOM     17  C   UNL     1       2.029   6.749  18.547  0.00  0.00    +0.000 A 
ENDBRANCH  10  11
BRANCH   9  18
ATOM     18  C   UNL     1       2.951   2.311  17.932  0.00  0.00    +0.000 C 
ATOM     19  C   UNL     1       3.876   1.296  18.560  0.00  0.00    +0.000 C 
ATOM     20  O   UNL     1       2.109   1.939  17.113  0.00  0.00    +0.000 OA
ENDBRANCH   9  18
ENDBRANCH   3   9
BRANCH   5  21
ATOM     21  O   UNL     1       6.089   5.921  15.184  0.00  0.00    +0.000 OA
ATOM     22  C   UNL     1       6.651   4.895  14.368  0.00  0.00    +0.000 C 
ENDBRANCH   5  21
BRANCH   6  23
ATOM     23  O   UNL     1       7.886   6.631  17.238  0.00  0.00    +0.000 OA
ATOM     24  C   UNL     1       7.928   8.029  17.494  0.00  0.00    +0.000 C 
ENDBRANCH   6  23
TORSDOF 6
ENDMDL
MODEL 3
REMARK VINA RESULT:      -6.6      2.446      5.593
REMARK  Name = 
REMARK  10 active torsions:
REMARK  status: ('A' for Active; 'I' for Inactive)
REMARK    1  A    between atoms: C_1  and  O_2
REMARK    2  A    between atoms: O_2  and  C_3
REMARK    3  A    between atoms: C_5  and  C_6
REMARK    4  A    between atoms: C_6  and  C_15
REMARK    5  A    between atoms: C_7  and  C_8
REMARK    6  A    between atoms: C_15  and  C_16
REMARK    7  A    between atoms: C_19  and  O_20
REMARK    8  A    between atoms: O_20  and  C_21
REMARK    9  A    between atoms: C_22  and  O_23
REMARK   10  A    between atoms: O_23  and  C_24
REMARK                            x       y       z     vdW  Elec       q    Type
REMARK                         _______ _______ _______ _____ _____    ______ ____
ROOT
ATOM      1  C   UNL     1       3.264   5.940  17.938  0.00  0.00    +0.000 A 
ATOM      2  C   UNL     1       4.271   5.909  16.961  0.00  0.00    +0.000 A 
ATOM      3  C   UNL     1       4.700   4.704  16.393  0.00  0.00    +0.000 A 
ATOM      4  C   UNL     1       4.070   3.522  16.782  0.00  0.00    +0.000 A 
ATOM      5  C   UNL     1       2.990   3.547  17.681  0.00  0.00    +0.000 A 
ATOM      6  C   UNL     1       2.574   4.759  18.277  0.00  0.00    +0.000 A 
ENDROOT
BRANCH   1   8
ATOM      7  C   UNL     1       2.236   8.095  17.791  0.00  0.00    +0.000 C 
ATOM      8  O   UNL     1       2.927   7.115  18.561  0.00  0.00    +0.000 OA
ENDBRANCH   1   8
BRANCH   3   9
ATOM      9  C   UNL     1       5.787   4.719  15.396  0.00  0.00    +0.000 C 
ATOM     10  C   UNL     1       7.003   5.250  15.640  0.00  0.00    +0.000 C 
BRANCH  10  11
ATOM     11  C   UNL     1       7.467   5.848  16.893  0.00  0.00    +0.000 A 
ATOM     12  C   UNL     1       7.618   5.059  18.038  0.00  0.00    +0.000 A 
ATOM     13  C   UNL     1       8.029   5.637  19.242  0.00  0.00    +0.000 A 
ATOM     14  C   UNL     1       8.286   7.007  19.304  0.00  0.00    +0.000 A 
ATOM     15  C   UNL     1       8.119   7.794  18.166  0.00  0.00    +0.000 A 
ATOM     16 BR   UNL     1       8.441   9.655  18.257  0.00  0.00    +0.000 Br
ATOM     17  C   UNL     1       7.707   7.224  16.962  0.00  0.00    +0.000 A 
ENDBRANCH  10  11
BRANCH   9  18
ATOM     18  C   UNL     1       5.586   4.193  13.993  0.00  0.00    +0.000 C 
ATOM     19  C   UNL     1       6.789   3.965  13.109  0.00  0.00    +0.000 C 
ATOM     20  O   UNL     1       4.457   3.965  13.553  0.00  0.00    +0.000 OA
ENDBRANCH   9  18
ENDBRANCH   3   9
BRANCH   5  21
ATOM     21  O   UNL     1       2.464   2.300  17.934  0.00  0.00    +0.000 OA
ATOM     22  C   UNL     1       3.301   1.407  18.665  0.00  0.00    +0.000 C 
ENDBRANCH   5  21
BRANCH   6  23
ATOM     23  O   UNL     1       1.567   4.654  19.203  0.00  0.00    +0.000 OA
ATOM     24  C   UNL     1       1.896   4.545  20.581  0.00  0.00    +0.000 C 
ENDBRANCH   6  23
TORSDOF 6
ENDMDL
MODEL 4
REMARK VINA RESULT:      -6.6      3.112      5.700
REMARK  Name = 
REMARK  10 active torsions:
REMARK  status: ('A' for Active; 'I' for Inactive)
REMARK    1  A    between atoms: C_1  and  O_2
REMARK    2  A    between atoms: O_2  and  C_3
REMARK    3  A    between atoms: C_5  and  C_6
REMARK    4  A    between atoms: C_6  and  C_15
REMARK    5  A    between atoms: C_7  and  C_8
REMARK    6  A    between atoms: C_15  and  C_16
REMARK    7  A    between atoms: C_19  and  O_20
REMARK    8  A    between atoms: O_20  and  C_21
REMARK    9  A    between atoms: C_22  and  O_23
REMARK   10  A    between atoms: O_23  and  C_24
REMARK                            x       y       z     vdW  Elec       q    Type
REMARK                         _______ _______ _______ _____ _____    ______ ____
ROOT
ATOM      1  C   UNL     1       1.536   7.686  20.418  0.00  0.00    +0.000 A 
ATOM      2  C   UNL     1       1.946   6.367  20.669  0.00  0.00    +0.000 A 
ATOM      3  C   UNL     1       2.622   5.617  19.701  0.00  0.00    +0.000 A 
ATOM      4  C   UNL     1       2.932   6.223  18.483  0.00  0.00    +0.000 A 
ATOM      5  C   UNL     1       2.621   7.575  18.256  0.00  0.00    +0.000 A 
ATOM      6  C   UNL     1       1.912   8.325  19.220  0.00  0.00    +0.000 A 
ENDROOT
BRANCH   1   8
ATOM      7  C   UNL     1       1.476   9.153  22.307  0.00  0.00    +0.000 C 
ATOM      8  O   UNL     1       0.783   8.373  21.336  0.00  0.00    +0.000 OA
ENDBRANCH   1   8
BRANCH   3   9
ATOM      9  C   UNL     1       3.001   4.222  19.999  0.00  0.00    +0.000 C 
ATOM     10  C   UNL     1       4.145   3.659  19.558  0.00  0.00    +0.000 C 
BRANCH  10  11
ATOM     11  C   UNL     1       5.196   4.304  18.769  0.00  0.00    +0.000 A 
ATOM     12  C   UNL     1       6.062   5.226  19.369  0.00  0.00    +0.000 A 
ATOM     13  C   UNL     1       7.044   5.866  18.607  0.00  0.00    +0.000 A 
ATOM     14  C   UNL     1       7.160   5.588  17.245  0.00  0.00    +0.000 A 
ATOM     15  C   UNL     1       6.286   4.682  16.647  0.00  0.00    +0.000 A 
ATOM     16 BR   UNL     1       6.426   4.325  14.796  0.00  0.00    +0.000 Br
ATOM     17  C   UNL     1       5.302   4.041  17.401  0.00  0.00    +0.000 A 
ENDBRANCH  10  11
BRANCH   9  18
ATOM     18  C   UNL     1       2.088   3.300  20.775  0.00  0.00    +0.000 C 
ATOM     19  C   UNL     1       0.865   2.730  20.098  0.00  0.00    +0.000 C 
ATOM     20  O   UNL     1       2.316   3.021  21.954  0.00  0.00    +0.000 OA
ENDBRANCH   9  18
ENDBRANCH   3   9
BRANCH   5  21
ATOM     21  O   UNL     1       3.021   8.022  17.018  0.00  0.00    +0.000 OA
ATOM     22  C   UNL     1       4.231   7.462  16.511  0.00  0.00    +0.000 C 
ENDBRANCH   5  21
BRANCH   6  23
ATOM     23  O   UNL     1       1.589   9.608  18.858  0.00  0.00    +0.000 OA
ATOM     24  C   UNL     1       0.334   9.864  18.243  0.00  0.00    +0.000 C 
ENDBRANCH   6  23
TORSDOF 6
ENDMDL
MODEL 5
REMARK VINA RESULT:      -6.4      3.012      5.256
REMARK  Name = 
REMARK  10 active torsions:
REMARK  status: ('A' for Active; 'I' for Inactive)
REMARK    1  A    between atoms: C_1  and  O_2
REMARK    2  A    between atoms: O_2  and  C_3
REMARK    3  A    between atoms: C_5  and  C_6
REMARK    4  A    between atoms: C_6  and  C_15
REMARK    5  A    between atoms: C_7  and  C_8
REMARK    6  A    between atoms: C_15  and  C_16
REMARK    7  A    between atoms: C_19  and  O_20
REMARK    8  A    between atoms: O_20  and  C_21
REMARK    9  A    between atoms: C_22  and  O_23
REMARK   10  A    between atoms: O_23  and  C_24
REMARK                            x       y       z     vdW  Elec       q    Type
REMARK                         _______ _______ _______ _____ _____    ______ ____
ROOT
ATOM      1  C   UNL     1       2.524   7.488  18.211  0.00  0.00    +0.000 A 
ATOM      2  C   UNL     1       2.648   6.101  18.387  0.00  0.00    +0.000 A 
ATOM      3  C   UNL     1       2.320   5.487  19.601  0.00  0.00    +0.000 A 
ATOM      4  C   UNL     1       1.813   6.278  20.632  0.00  0.00    +0.000 A 
ATOM      5  C   UNL     1       1.584   7.651  20.437  0.00  0.00    +0.000 A 
ATOM      6  C   UNL     1       1.942   8.278  19.223  0.00  0.00    +0.000 A 
ENDROOT
BRANCH   1   8
ATOM      7  C   UNL     1       4.121   7.569  16.432  0.00  0.00    +0.000 C 
ATOM      8  O   UNL     1       2.948   8.089  17.053  0.00  0.00    +0.000 OA
ENDBRANCH   1   8
BRANCH   3   9
ATOM      9  C   UNL     1       2.502   4.031  19.749  0.00  0.00    +0.000 C 
ATOM     10  C   UNL     1       3.580   3.371  19.274  0.00  0.00    +0.000 C 
BRANCH  10  11
ATOM     11  C   UNL     1       4.736   3.953  18.590  0.00  0.00    +0.000 A 
ATOM     12  C   UNL     1       5.667   4.718  19.302  0.00  0.00    +0.000 A 
ATOM     13  C   UNL     1       6.752   5.299  18.641  0.00  0.00    +0.000 A 
ATOM     14  C   UNL     1       6.907   5.120  17.266  0.00  0.00    +0.000 A 
ATOM     15  C   UNL     1       5.970   4.371  16.556  0.00  0.00    +0.000 A 
ATOM     16 BR   UNL     1       6.166   4.149  14.689  0.00  0.00    +0.000 Br
ATOM     17  C   UNL     1       4.884   3.789  17.210  0.00  0.00    +0.000 A 
ENDBRANCH  10  11
BRANCH   9  18
ATOM     18  C   UNL     1       1.448   3.159  20.393  0.00  0.00    +0.000 C 
ATOM     19  C   UNL     1       1.658   2.668  21.805  0.00  0.00    +0.000 C 
ATOM     20  O   UNL     1       0.432   2.828  19.779  0.00  0.00    +0.000 OA
ENDBRANCH   9  18
ENDBRANCH   3   9
BRANCH   5  21
ATOM     21  O   UNL     1       1.054   8.275  21.543  0.00  0.00    +0.000 OA
ATOM     22  C   UNL     1      -0.369   8.358  21.592  0.00  0.00    +0.000 C 
ENDBRANCH   5  21
BRANCH   6  23
ATOM     23  O   UNL     1       1.752   9.635  19.174  0.00  0.00    +0.000 OA
ATOM     24  C   UNL     1       0.623  10.156  18.486  0.00  0.00    +0.000 C 
ENDBRANCH   6  23
TORSDOF 6
ENDMDL
MODEL 6
REMARK VINA RESULT:      -6.4      2.471      5.592
REMARK  Name = 
REMARK  10 active torsions:
REMARK  status: ('A' for Active; 'I' for Inactive)
REMARK    1  A    between atoms: C_1  and  O_2
REMARK    2  A    between atoms: O_2  and  C_3
REMARK    3  A    between atoms: C_5  and  C_6
REMARK    4  A    between atoms: C_6  and  C_15
REMARK    5  A    between atoms: C_7  and  C_8
REMARK    6  A    between atoms: C_15  and  C_16
REMARK    7  A    between atoms: C_19  and  O_20
REMARK    8  A    between atoms: O_20  and  C_21
REMARK    9  A    between atoms: C_22  and  O_23
REMARK   10  A    between atoms: O_23  and  C_24
REMARK                            x       y       z     vdW  Elec       q    Type
REMARK                         _______ _______ _______ _____ _____    ______ ____
ROOT
ATOM      1  C   UNL     1       3.060   3.450  17.696  0.00  0.00    +0.000 A 
ATOM      2  C   UNL     1       4.117   3.508  16.774  0.00  0.00    +0.000 A 
ATOM      3  C   UNL     1       4.699   4.727  16.407  0.00  0.00    +0.000 A 
ATOM      4  C   UNL     1       4.242   5.895  17.017  0.00  0.00    +0.000 A 
ATOM      5  C   UNL     1       3.257   5.843  18.018  0.00  0.00    +0.000 A 
ATOM      6  C   UNL     1       2.647   4.618  18.369  0.00  0.00    +0.000 A 
ENDROOT
BRANCH   1   8
ATOM      7  C   UNL     1       3.030   1.402  18.930  0.00  0.00    +0.000 C 
ATOM      8  O   UNL     1       2.430   2.262  17.967  0.00  0.00    +0.000 OA
ENDBRANCH   1   8
BRANCH   3   9
ATOM      9  C   UNL     1       5.783   4.739  15.406  0.00  0.00    +0.000 C 
ATOM     10  C   UNL     1       7.001   5.268  15.646  0.00  0.00    +0.000 C 
BRANCH  10  11
ATOM     11  C   UNL     1       7.470   5.867  16.898  0.00  0.00    +0.000 A 
ATOM     12  C   UNL     1       7.618   5.079  18.044  0.00  0.00    +0.000 A 
ATOM     13  C   UNL     1       8.034   5.658  19.246  0.00  0.00    +0.000 A 
ATOM     14  C   UNL     1       8.298   7.027  19.305  0.00  0.00    +0.000 A 
ATOM     15  C   UNL     1       8.133   7.812  18.166  0.00  0.00    +0.000 A 
ATOM     16 BR   UNL     1       8.466   9.671  18.251  0.00  0.00    +0.000 Br
ATOM     17  C   UNL     1       7.717   7.241  16.963  0.00  0.00    +0.000 A 
ENDBRANCH  10  11
BRANCH   9  18
ATOM     18  C   UNL     1       5.577   4.212  14.005  0.00  0.00    +0.000 C 
ATOM     19  C   UNL     1       6.776   3.992  13.114  0.00  0.00    +0.000 C 
ATOM     20  O   UNL     1       4.447   3.977  13.572  0.00  0.00    +0.000 OA
ENDBRANCH   9  18
ENDBRANCH   3   9
BRANCH   5  21
ATOM     21  O   UNL     1       2.943   7.079  18.535  0.00  0.00    +0.000 OA
ATOM     22  C   UNL     1       2.647   8.098  17.583  0.00  0.00    +0.000 C 
ENDBRANCH   5  21
BRANCH   6  23
ATOM     23  O   UNL     1       1.640   4.697  19.297  0.00  0.00    +0.000 OA
ATOM     24  C   UNL     1       1.948   4.530  20.675  0.00  0.00    +0.000 C 
ENDBRANCH   6  23
TORSDOF 6
ENDMDL
MODEL 7
REMARK VINA RESULT:      -6.3      2.952      5.288
REMARK  Name = 
REMARK  10 active torsions:
REMARK  status: ('A' for Active; 'I' for Inactive)
REMARK    1  A    between atoms: C_1  and  O_2
REMARK    2  A    between atoms: O_2  and  C_3
REMARK    3  A    between atoms: C_5  and  C_6
REMARK    4  A    between atoms: C_6  and  C_15
REMARK    5  A    between atoms: C_7  and  C_8
REMARK    6  A    between atoms: C_15  and  C_16
REMARK    7  A    between atoms: C_19  and  O_20
REMARK    8  A    between atoms: O_20  and  C_21
REMARK    9  A    between atoms: C_22  and  O_23
REMARK   10  A    between atoms: O_23  and  C_24
REMARK                            x       y       z     vdW  Elec       q    Type
REMARK                         _______ _______ _______ _____ _____    ______ ____
ROOT
ATOM      1  C   UNL     1       2.519   7.414  18.182  0.00  0.00    +0.000 A 
ATOM      2  C   UNL     1       2.560   6.016  18.291  0.00  0.00    +0.000 A 
ATOM      3  C   UNL     1       2.193   5.365  19.475  0.00  0.00    +0.000 A 
ATOM      4  C   UNL     1       1.733   6.134  20.543  0.00  0.00    +0.000 A 
ATOM      5  C   UNL     1       1.586   7.526  20.414  0.00  0.00    +0.000 A 
ATOM      6  C   UNL     1       1.983   8.188  19.231  0.00  0.00    +0.000 A 
ENDROOT
BRANCH   1   8
ATOM      7  C   UNL     1       4.181   7.549  16.467  0.00  0.00    +0.000 C 
ATOM      8  O   UNL     1       2.981   8.044  17.054  0.00  0.00    +0.000 OA
ENDBRANCH   1   8
BRANCH   3   9
ATOM      9  C   UNL     1       2.289   3.895  19.553  0.00  0.00    +0.000 C 
ATOM     10  C   UNL     1       3.289   3.190  18.984  0.00  0.00    +0.000 C 
BRANCH  10  11
ATOM     11  C   UNL     1       4.436   3.727  18.249  0.00  0.00    +0.000 A 
ATOM     12  C   UNL     1       4.547   3.526  16.869  0.00  0.00    +0.000 A 
ATOM     13  C   UNL     1       5.660   4.010  16.175  0.00  0.00    +0.000 A 
ATOM     14  C   UNL     1       6.664   4.694  16.861  0.00  0.00    +0.000 A 
ATOM     15  C   UNL     1       6.559   4.879  18.238  0.00  0.00    +0.000 A 
ATOM     16 BR   UNL     1       7.933   5.782  19.171  0.00  0.00    +0.000 Br
ATOM     17  C   UNL     1       5.453   4.396  18.937  0.00  0.00    +0.000 A 
ENDBRANCH  10  11
BRANCH   9  18
ATOM     18  C   UNL     1       1.222   3.064  20.229  0.00  0.00    +0.000 C 
ATOM     19  C   UNL     1       1.411   2.647  21.667  0.00  0.00    +0.000 C 
ATOM     20  O   UNL     1       0.211   2.707  19.620  0.00  0.00    +0.000 OA
ENDBRANCH   9  18
ENDBRANCH   3   9
BRANCH   5  21
ATOM     21  O   UNL     1       1.091   8.127  21.549  0.00  0.00    +0.000 OA
ATOM     22  C   UNL     1      -0.317   8.347  21.577  0.00  0.00    +0.000 C 
ENDBRANCH   5  21
BRANCH   6  23
ATOM     23  O   UNL     1       1.874   9.555  19.247  0.00  0.00    +0.000 OA
ATOM     24  C   UNL     1       0.787  10.176  18.574  0.00  0.00    +0.000 C 
ENDBRANCH   6  23
TORSDOF 6
ENDMDL
MODEL 8
REMARK VINA RESULT:      -6.3      1.210      2.939
REMARK  Name = 
REMARK  10 active torsions:
REMARK  status: ('A' for Active; 'I' for Inactive)
REMARK    1  A    between atoms: C_1  and  O_2
REMARK    2  A    between atoms: O_2  and  C_3
REMARK    3  A    between atoms: C_5  and  C_6
REMARK    4  A    between atoms: C_6  and  C_15
REMARK    5  A    between atoms: C_7  and  C_8
REMARK    6  A    between atoms: C_15  and  C_16
REMARK    7  A    between atoms: C_19  and  O_20
REMARK    8  A    between atoms: O_20  and  C_21
REMARK    9  A    between atoms: C_22  and  O_23
REMARK   10  A    between atoms: O_23  and  C_24
REMARK                            x       y       z     vdW  Elec       q    Type
REMARK                         _______ _______ _______ _____ _____    ______ ____
ROOT
ATOM      1  C   UNL     1       6.411   5.596  19.028  0.00  0.00    +0.000 A 
ATOM      2  C   UNL     1       5.190   4.968  19.316  0.00  0.00    +0.000 A 
ATOM      3  C   UNL     1       4.247   4.713  18.314  0.00  0.00    +0.000 A 
ATOM      4  C   UNL     1       4.563   5.052  16.998  0.00  0.00    +0.000 A 
ATOM      5  C   UNL     1       5.824   5.585  16.678  0.00  0.00    +0.000 A 
ATOM      6  C   UNL     1       6.766   5.871  17.692  0.00  0.00    +0.000 A 
ENDROOT
BRANCH   1   8
ATOM      7  C   UNL     1       8.493   5.195  20.135  0.00  0.00    +0.000 C 
ATOM      8  O   UNL     1       7.280   5.935  20.035  0.00  0.00    +0.000 OA
ENDBRANCH   1   8
BRANCH   3   9
ATOM      9  C   UNL     1       2.962   4.083  18.671  0.00  0.00    +0.000 C 
ATOM     10  C   UNL     1       1.880   4.788  19.066  0.00  0.00    +0.000 C 
BRANCH  10  11
ATOM     11  C   UNL     1       1.770   6.244  19.172  0.00  0.00    +0.000 A 
ATOM     12  C   UNL     1       1.945   7.050  18.041  0.00  0.00    +0.000 A 
ATOM     13  C   UNL     1       1.873   8.441  18.151  0.00  0.00    +0.000 A 
ATOM     14  C   UNL     1       1.628   9.030  19.392  0.00  0.00    +0.000 A 
ATOM     15  C   UNL     1       1.470   8.226  20.519  0.00  0.00    +0.000 A 
ATOM     16 BR   UNL     1       1.163   9.025  22.205  0.00  0.00    +0.000 Br
ATOM     17  C   UNL     1       1.543   6.837  20.418  0.00  0.00    +0.000 A 
ENDBRANCH  10  11
BRANCH   9  18
ATOM     18  C   UNL     1       2.788   2.582  18.682  0.00  0.00    +0.000 C 
ATOM     19  C   UNL     1       1.426   1.997  18.971  0.00  0.00    +0.000 C 
ATOM     20  O   UNL     1       3.742   1.828  18.478  0.00  0.00    +0.000 OA
ENDBRANCH   9  18
ENDBRANCH   3   9
BRANCH   5  21
ATOM     21  O   UNL     1       5.983   5.834  15.334  0.00  0.00    +0.000 OA
ATOM     22  C   UNL     1       5.759   4.727  14.463  0.00  0.00    +0.000 C 
ENDBRANCH   5  21
BRANCH   6  23
ATOM     23  O   UNL     1       7.929   6.467  17.276  0.00  0.00    +0.000 OA
ATOM     24  C   UNL     1       8.078   7.874  17.410  0.00  0.00    +0.000 C 
ENDBRANCH   6  23
TORSDOF 6
ENDMDL
MODEL 9
REMARK VINA RESULT:      -6.2      1.177      1.548
REMARK  Name = 
REMARK  10 active torsions:
REMARK  status: ('A' for Active; 'I' for Inactive)
REMARK    1  A    between atoms: C_1  and  O_2
REMARK    2  A    between atoms: O_2  and  C_3
REMARK    3  A    between atoms: C_5  and  C_6
REMARK    4  A    between atoms: C_6  and  C_15
REMARK    5  A    between atoms: C_7  and  C_8
REMARK    6  A    between atoms: C_15  and  C_16
REMARK    7  A    between atoms: C_19  and  O_20
REMARK    8  A    between atoms: O_20  and  C_21
REMARK    9  A    between atoms: C_22  and  O_23
REMARK   10  A    between atoms: O_23  and  C_24
REMARK                            x       y       z     vdW  Elec       q    Type
REMARK                         _______ _______ _______ _____ _____    ______ ____
ROOT
ATOM      1  C   UNL     1       5.637   5.597  16.676  0.00  0.00    +0.000 A 
ATOM      2  C   UNL     1       4.415   5.042  17.085  0.00  0.00    +0.000 A 
ATOM      3  C   UNL     1       4.191   4.674  18.417  0.00  0.00    +0.000 A 
ATOM      4  C   UNL     1       5.195   4.917  19.354  0.00  0.00    +0.000 A 
ATOM      5  C   UNL     1       6.383   5.568  18.980  0.00  0.00    +0.000 A 
ATOM      6  C   UNL     1       6.624   5.913  17.631  0.00  0.00    +0.000 A 
ENDROOT
BRANCH   1   8
ATOM      7  C   UNL     1       6.364   4.780  14.548  0.00  0.00    +0.000 C 
ATOM      8  O   UNL     1       5.882   5.855  15.350  0.00  0.00    +0.000 OA
ENDBRANCH   1   8
BRANCH   3   9
ATOM      9  C   UNL     1       2.903   4.060  18.792  0.00  0.00    +0.000 C 
ATOM     10  C   UNL     1       1.829   4.780  19.180  0.00  0.00    +0.000 C 
BRANCH  10  11
ATOM     11  C   UNL     1       1.730   6.238  19.263  0.00  0.00    +0.000 A 
ATOM     12  C   UNL     1       1.915   7.024  18.120  0.00  0.00    +0.000 A 
ATOM     13  C   UNL     1       1.853   8.418  18.208  0.00  0.00    +0.000 A 
ATOM     14  C   UNL     1       1.610   9.028  19.438  0.00  0.00    +0.000 A 
ATOM     15  C   UNL     1       1.443   8.244  20.578  0.00  0.00    +0.000 A 
ATOM     16 BR   UNL     1       1.140   9.071  22.251  0.00  0.00    +0.000 Br
ATOM     17  C   UNL     1       1.505   6.852  20.499  0.00  0.00    +0.000 A 
ENDBRANCH  10  11
BRANCH   9  18
ATOM     18  C   UNL     1       2.718   2.560  18.828  0.00  0.00    +0.000 C 
ATOM     19  C   UNL     1       3.673   1.679  18.060  0.00  0.00    +0.000 C 
ATOM     20  O   UNL     1       1.790   2.047  19.457  0.00  0.00    +0.000 OA
ENDBRANCH   9  18
ENDBRANCH   3   9
BRANCH   5  21
ATOM     21  O   UNL     1       7.252   5.756  20.030  0.00  0.00    +0.000 OA
ATOM     22  C   UNL     1       8.517   5.107  19.918  0.00  0.00    +0.000 C 
ENDBRANCH   5  21
BRANCH   6  23
ATOM     23  O   UNL     1       7.850   6.467  17.367  0.00  0.00    +0.000 OA
ATOM     24  C   UNL     1       8.012   7.876  17.456  0.00  0.00    +0.000 C 
ENDBRANCH   6  23
TORSDOF 6
ENDMDL
