MODEL 1
REMARK VINA RESULT:      -7.2      0.000      0.000
REMARK  Name = 
REMARK  11 active torsions:
REMARK  status: ('A' for Active; 'I' for Inactive)
REMARK    1  A    between atoms: C_1  and  C_2
REMARK    2  A    between atoms: C_2  and  C_3
REMARK    3  A    between atoms: C_3  and  N_4
REMARK    4  A    between atoms: N_4  and  C_5
REMARK    5  A    between atoms: N_4  and  C_8
REMARK    6  A    between atoms: C_5  and  C_6
REMARK    7  A    between atoms: C_6  and  C_7
REMARK    8  A    between atoms: C_9  and  C_10
REMARK    9  A    between atoms: C_13  and  O_14
REMARK   10  A    between atoms: O_14  and  C_15
REMARK   11  A    between atoms: C_15  and  C_16
REMARK                            x       y       z     vdW  Elec       q    Type
REMARK                         _______ _______ _______ _____ _____    ______ ____
ROOT
ATOM      1  C   UNL     1       4.547   4.986  18.360  0.00  0.00    +0.000 A 
ATOM      2  C   UNL     1       4.043   4.300  19.467  0.00  0.00    +0.000 A 
ATOM      3  C   UNL     1       4.380   2.993  20.077  0.00  0.00    +0.000 C 
ATOM      4  N   UNL     1       3.020   4.995  20.056  0.00  0.00    +0.000 NA
ATOM      5  C   UNL     1       2.906   6.121  19.398  0.00  0.00    +0.000 A 
ATOM      6  C   UNL     1       2.066   7.269  19.630  0.00  0.00    +0.000 A 
ATOM      7  C   UNL     1       2.100   8.296  18.763  0.00  0.00    +0.000 A 
ATOM      8  C   UNL     1       3.007   8.310  17.631  0.00  0.00    +0.000 A 
ATOM      9  C   UNL     1       3.845   7.274  17.456  0.00  0.00    +0.000 A 
ATOM     10  N   UNL     1       3.794   6.172  18.323  0.00  0.00    +0.000 N 
ENDROOT
BRANCH   1  11
ATOM     11  N   UNL     1       5.574   4.698  17.473  0.00  0.00    +0.000 N 
BRANCH  11  12
ATOM     12  C   UNL     1       6.946   4.641  18.009  0.00  0.00    +0.000 C 
BRANCH  12  14
ATOM     13  C   UNL     1       7.456   7.089  17.463  0.00  0.00    +0.000 C 
ATOM     14  C   UNL     1       7.558   5.960  18.473  0.00  0.00    +0.000 C 
ENDBRANCH  12  14
ENDBRANCH  11  12
BRANCH  11  15
ATOM     15  C   UNL     1       5.223   4.045  16.196  0.00  0.00    +0.000 C 
BRANCH  15  16
ATOM     16  C   UNL     1       5.545   4.783  14.898  0.00  0.00    +0.000 C 
ATOM     17  C   UNL     1       6.162   3.929  13.804  0.00  0.00    +0.000 C 
ENDBRANCH  15  16
ENDBRANCH  11  15
ENDBRANCH   1  11
BRANCH   6  18
ATOM     18  O   UNL     1       1.244   7.339  20.746  0.00  0.00    +0.000 OA
BRANCH  18  19
ATOM     19  C   UNL     1       1.587   8.336  21.716  0.00  0.00    +0.000 C 
BRANCH  19  20
ATOM     20  C   UNL     1       0.553   9.433  21.821  0.00  0.00    +0.000 A 
ATOM     21  C   UNL     1       0.263  10.307  20.769  0.00  0.00    +0.000 A 
ATOM     22  C   UNL     1      -0.678  11.328  20.940  0.00  0.00    +0.000 A 
ATOM     23  C   UNL     1      -1.336  11.480  22.159  0.00  0.00    +0.000 A 
ATOM     24  C   UNL     1      -1.066  10.607  23.210  0.00  0.00    +0.000 A 
ATOM     25  C   UNL     1      -0.129   9.588  23.041  0.00  0.00    +0.000 A 
ENDBRANCH  19  20
ENDBRANCH  18  19
ENDBRANCH   6  18
TORSDOF 8
ENDMDL
MODEL 2
REMARK VINA RESULT:      -7.1      0.334      2.028
REMARK  Name = 
REMARK  11 active torsions:
REMARK  status: ('A' for Active; 'I' for Inactive)
REMARK    1  A    between atoms: C_1  and  C_2
REMARK    2  A    between atoms: C_2  and  C_3
REMARK    3  A    between atoms: C_3  and  N_4
REMARK    4  A    between atoms: N_4  and  C_5
REMARK    5  A    between atoms: N_4  and  C_8
REMARK    6  A    between atoms: C_5  and  C_6
REMARK    7  A    between atoms: C_6  and  C_7
REMARK    8  A    between atoms: C_9  and  C_10
REMARK    9  A    between atoms: C_13  and  O_14
REMARK   10  A    between atoms: O_14  and  C_15
REMARK   11  A    between atoms: C_15  and  C_16
REMARK                            x       y       z     vdW  Elec       q    Type
REMARK                         _______ _______ _______ _____ _____    ______ ____
ROOT
ATOM      1  C   UNL     1       4.557   4.808  18.298  0.00  0.00    +0.000 A 
ATOM      2  C   UNL     1       4.039   4.163  19.423  0.00  0.00    +0.000 A 
ATOM      3  C   UNL     1       4.333   2.855  20.054  0.00  0.00    +0.000 C 
ATOM      4  N   UNL     1       3.050   4.907  20.010  0.00  0.00    +0.000 NA
ATOM      5  C   UNL     1       2.971   6.024  19.331  0.00  0.00    +0.000 A 
ATOM      6  C   UNL     1       2.178   7.208  19.550  0.00  0.00    +0.000 A 
ATOM      7  C   UNL     1       2.242   8.216  18.664  0.00  0.00    +0.000 A 
ATOM      8  C   UNL     1       3.136   8.175  17.523  0.00  0.00    +0.000 A 
ATOM      9  C   UNL     1       3.932   7.105  17.359  0.00  0.00    +0.000 A 
ATOM     10  N   UNL     1       3.849   6.022  18.246  0.00  0.00    +0.000 N 
ENDROOT
BRANCH   1  11
ATOM     11  N   UNL     1       5.562   4.465  17.406  0.00  0.00    +0.000 N 
BRANCH  11  12
ATOM     12  C   UNL     1       5.205   4.353  15.981  0.00  0.00    +0.000 C 
BRANCH  12  14
ATOM     13  C   UNL     1       5.981   3.851  13.594  0.00  0.00    +0.000 C 
ATOM     14  C   UNL     1       6.359   4.336  14.982  0.00  0.00    +0.000 C 
ENDBRANCH  12  14
ENDBRANCH  11  12
BRANCH  11  15
ATOM     15  C   UNL     1       6.962   4.666  17.832  0.00  0.00    +0.000 C 
BRANCH  15  16
ATOM     16  C   UNL     1       7.328   5.989  18.502  0.00  0.00    +0.000 C 
ATOM     17  C   UNL     1       7.535   7.158  17.555  0.00  0.00    +0.000 C 
ENDBRANCH  15  16
ENDBRANCH  11  15
ENDBRANCH   1  11
BRANCH   6  18
ATOM     18  O   UNL     1       1.372   7.329  20.674  0.00  0.00    +0.000 OA
BRANCH  18  19
ATOM     19  C   UNL     1       1.801   8.284  21.652  0.00  0.00    +0.000 C 
BRANCH  19  20
ATOM     20  C   UNL     1       0.814   9.413  21.844  0.00  0.00    +0.000 A 
ATOM     21  C   UNL     1       0.770  10.533  21.009  0.00  0.00    +0.000 A 
ATOM     22  C   UNL     1      -0.141  11.564  21.260  0.00  0.00    +0.000 A 
ATOM     23  C   UNL     1      -1.015  11.480  22.342  0.00  0.00    +0.000 A 
ATOM     24  C   UNL     1      -0.991  10.363  23.173  0.00  0.00    +0.000 A 
ATOM     25  C   UNL     1      -0.084   9.334  22.923  0.00  0.00    +0.000 A 
ENDBRANCH  19  20
ENDBRANCH  18  19
ENDBRANCH   6  18
TORSDOF 8
ENDMDL
MODEL 3
REMARK VINA RESULT:      -7.0      3.451      6.667
REMARK  Name = 
REMARK  11 active torsions:
REMARK  status: ('A' for Active; 'I' for Inactive)
REMARK    1  A    between atoms: C_1  and  C_2
REMARK    2  A    between atoms: C_2  and  C_3
REMARK    3  A    between atoms: C_3  and  N_4
REMARK    4  A    between atoms: N_4  and  C_5
REMARK    5  A    between atoms: N_4  and  C_8
REMARK    6  A    between atoms: C_5  and  C_6
REMARK    7  A    between atoms: C_6  and  C_7
REMARK    8  A    between atoms: C_9  and  C_10
REMARK    9  A    between atoms: C_13  and  O_14
REMARK   10  A    between atoms: O_14  and  C_15
REMARK   11  A    between atoms: C_15  and  C_16
REMARK                            x       y       z     vdW  Elec       q    Type
REMARK                         _______ _______ _______ _____ _____    ______ ____
ROOT
ATOM      1  C   UNL     1       3.485   5.716  18.069  0.00  0.00    +0.000 A 
ATOM      2  C   UNL     1       3.270   7.090  17.945  0.00  0.00    +0.000 A 
ATOM      3  C   UNL     1       2.055   7.930  18.058  0.00  0.00    +0.000 C 
ATOM      4  N   UNL     1       4.431   7.747  17.631  0.00  0.00    +0.000 NA
ATOM      5  C   UNL     1       5.378   6.843  17.614  0.00  0.00    +0.000 A 
ATOM      6  C   UNL     1       6.802   6.971  17.436  0.00  0.00    +0.000 A 
ATOM      7  C   UNL     1       7.565   5.865  17.408  0.00  0.00    +0.000 A 
ATOM      8  C   UNL     1       7.003   4.544  17.616  0.00  0.00    +0.000 A 
ATOM      9  C   UNL     1       5.686   4.429  17.858  0.00  0.00    +0.000 A 
ATOM     10  N   UNL     1       4.865   5.566  17.847  0.00  0.00    +0.000 N 
ENDROOT
BRANCH   1  11
ATOM     11  N   UNL     1       2.638   4.665  18.386  0.00  0.00    +0.000 N 
BRANCH  11  12
ATOM     12  C   UNL     1       1.773   4.815  19.570  0.00  0.00    +0.000 C 
BRANCH  12  14
ATOM     13  C   UNL     1       1.858   3.235  21.583  0.00  0.00    +0.000 C 
ATOM     14  C   UNL     1       2.400   4.492  20.924  0.00  0.00    +0.000 C 
ENDBRANCH  12  14
ENDBRANCH  11  12
BRANCH  11  15
ATOM     15  C   UNL     1       2.321   3.687  17.325  0.00  0.00    +0.000 C 
BRANCH  15  16
ATOM     16  C   UNL     1       2.279   2.206  17.700  0.00  0.00    +0.000 C 
ATOM     17  C   UNL     1       3.539   1.670  18.358  0.00  0.00    +0.000 C 
ENDBRANCH  15  16
ENDBRANCH  11  15
ENDBRANCH   1  11
BRANCH   6  18
ATOM     18  O   UNL     1       7.397   8.220  17.318  0.00  0.00    +0.000 OA
BRANCH  18  19
ATOM     19  C   UNL     1       8.438   8.509  18.259  0.00  0.00    +0.000 C 
BRANCH  19  20
ATOM     20  C   UNL     1       8.713   9.989  18.396  0.00  0.00    +0.000 A 
ATOM     21  C   UNL     1       8.175  10.945  17.529  0.00  0.00    +0.000 A 
ATOM     22  C   UNL     1       8.497  12.298  17.684  0.00  0.00    +0.000 A 
ATOM     23  C   UNL     1       9.352  12.703  18.707  0.00  0.00    +0.000 A 
ATOM     24  C   UNL     1       9.883  11.762  19.586  0.00  0.00    +0.000 A 
ATOM     25  C   UNL     1       9.562  10.414  19.433  0.00  0.00    +0.000 A 
ENDBRANCH  19  20
ENDBRANCH  18  19
ENDBRANCH   6  18
TORSDOF 8
ENDMDL
MODEL 4
REMARK VINA RESULT:      -7.0      3.113      7.743
REMARK  Name = 
REMARK  11 active torsions:
REMARK  status: ('A' for Active; 'I' for Inactive)
REMARK    1  A    between atoms: C_1  and  C_2
REMARK    2  A    between atoms: C_2  and  C_3
REMARK    3  A    between atoms: C_3  and  N_4
REMARK    4  A    between atoms: N_4  and  C_5
REMARK    5  A    between atoms: N_4  and  C_8
REMARK    6  A    between atoms: C_5  and  C_6
REMARK    7  A    between atoms: C_6  and  C_7
REMARK    8  A    between atoms: C_9  and  C_10
REMARK    9  A    between atoms: C_13  and  O_14
REMARK   10  A    between atoms: O_14  and  C_15
REMARK   11  A    between atoms: C_15  and  C_16
REMARK                            x       y       z     vdW  Elec       q    Type
REMARK                         _______ _______ _______ _____ _____    ______ ____
ROOT
ATOM      1  C   UNL     1       0.436  10.249  20.079  0.00  0.00    +0.000 A 
ATOM      2  C   UNL     1       0.174   9.729  21.349  0.00  0.00    +0.000 A 
ATOM      3  C   UNL     1      -0.608  10.237  22.499  0.00  0.00    +0.000 C 
ATOM      4  N   UNL     1       0.807   8.528  21.532  0.00  0.00    +0.000 NA
ATOM      5  C   UNL     1       1.405   8.245  20.403  0.00  0.00    +0.000 A 
ATOM      6  C   UNL     1       2.136   7.074  19.990  0.00  0.00    +0.000 A 
ATOM      7  C   UNL     1       2.708   7.049  18.773  0.00  0.00    +0.000 A 
ATOM      8  C   UNL     1       2.556   8.145  17.836  0.00  0.00    +0.000 A 
ATOM      9  C   UNL     1       1.811   9.206  18.191  0.00  0.00    +0.000 A 
ATOM     10  N   UNL     1       1.243   9.272  19.472  0.00  0.00    +0.000 N 
ENDROOT
BRANCH   1  11
ATOM     11  N   UNL     1       0.012  11.404  19.439  0.00  0.00    +0.000 N 
BRANCH  11  12
ATOM     12  C   UNL     1      -1.321  11.391  18.812  0.00  0.00    +0.000 C 
BRANCH  12  14
ATOM     13  C   UNL     1      -3.072   9.961  17.611  0.00  0.00    +0.000 C 
ATOM     14  C   UNL     1      -1.600  10.273  17.811  0.00  0.00    +0.000 C 
ENDBRANCH  12  14
ENDBRANCH  11  12
BRANCH  11  15
ATOM     15  C   UNL     1       0.683  12.674  19.788  0.00  0.00    +0.000 C 
BRANCH  15  16
ATOM     16  C   UNL     1       1.361  13.461  18.668  0.00  0.00    +0.000 C 
ATOM     17  C   UNL     1       2.562  12.781  18.035  0.00  0.00    +0.000 C 
ENDBRANCH  15  16
ENDBRANCH  11  15
ENDBRANCH   1  11
BRANCH   6  18
ATOM     18  O   UNL     1       2.236   5.965  20.819  0.00  0.00    +0.000 OA
BRANCH  18  19
ATOM     19  C   UNL     1       1.388   4.858  20.491  0.00  0.00    +0.000 C 
BRANCH  19  20
ATOM     20  C   UNL     1       2.109   3.770  19.731  0.00  0.00    +0.000 A 
ATOM     21  C   UNL     1       3.379   3.307  20.088  0.00  0.00    +0.000 A 
ATOM     22  C   UNL     1       4.012   2.323  19.321  0.00  0.00    +0.000 A 
ATOM     23  C   UNL     1       3.380   1.793  18.198  0.00  0.00    +0.000 A 
ATOM     24  C   UNL     1       2.109   2.236  17.840  0.00  0.00    +0.000 A 
ATOM     25  C   UNL     1       1.476   3.215  18.603  0.00  0.00    +0.000 A 
ENDBRANCH  19  20
ENDBRANCH  18  19
ENDBRANCH   6  18
TORSDOF 8
ENDMDL
MODEL 5
REMARK VINA RESULT:      -6.8      3.164      7.645
REMARK  Name = 
REMARK  11 active torsions:
REMARK  status: ('A' for Active; 'I' for Inactive)
REMARK    1  A    between atoms: C_1  and  C_2
REMARK    2  A    between atoms: C_2  and  C_3
REMARK    3  A    between atoms: C_3  and  N_4
REMARK    4  A    between atoms: N_4  and  C_5
REMARK    5  A    between atoms: N_4  and  C_8
REMARK    6  A    between atoms: C_5  and  C_6
REMARK    7  A    between atoms: C_6  and  C_7
REMARK    8  A    between atoms: C_9  and  C_10
REMARK    9  A    between atoms: C_13  and  O_14
REMARK   10  A    between atoms: O_14  and  C_15
REMARK   11  A    between atoms: C_15  and  C_16
REMARK                            x       y       z     vdW  Elec       q    Type
REMARK                         _______ _______ _______ _____ _____    ______ ____
ROOT
ATOM      1  C   UNL     1       0.235  10.255  20.493  0.00  0.00    +0.000 A 
ATOM      2  C   UNL     1       0.195   9.593  21.721  0.00  0.00    +0.000 A 
ATOM      3  C   UNL     1      -0.458   9.912  23.013  0.00  0.00    +0.000 C 
ATOM      4  N   UNL     1       0.939   8.443  21.689  0.00  0.00    +0.000 NA
ATOM      5  C   UNL     1       1.394   8.328  20.467  0.00  0.00    +0.000 A 
ATOM      6  C   UNL     1       2.150   7.275  19.837  0.00  0.00    +0.000 A 
ATOM      7  C   UNL     1       2.547   7.422  18.561  0.00  0.00    +0.000 A 
ATOM      8  C   UNL     1       2.181   8.586  17.777  0.00  0.00    +0.000 A 
ATOM      9  C   UNL     1       1.412   9.533  18.339  0.00  0.00    +0.000 A 
ATOM     10  N   UNL     1       1.025   9.421  19.683  0.00  0.00    +0.000 N 
ENDROOT
BRANCH   1  11
ATOM     11  N   UNL     1      -0.362  11.424  20.043  0.00  0.00    +0.000 N 
BRANCH  11  12
ATOM     12  C   UNL     1       0.486  12.624  19.922  0.00  0.00    +0.000 C 
BRANCH  12  14
ATOM     13  C   UNL     1       2.278  13.080  18.152  0.00  0.00    +0.000 C 
ATOM     14  C   UNL     1       0.801  13.102  18.508  0.00  0.00    +0.000 C 
ENDBRANCH  12  14
ENDBRANCH  11  12
BRANCH  11  15
ATOM     15  C   UNL     1      -1.639  11.310  19.309  0.00  0.00    +0.000 C 
BRANCH  15  16
ATOM     16  C   UNL     1      -1.631  10.597  17.958  0.00  0.00    +0.000 C 
ATOM     17  C   UNL     1      -2.885   9.802  17.639  0.00  0.00    +0.000 C 
ENDBRANCH  15  16
ENDBRANCH  11  15
ENDBRANCH   1  11
BRANCH   6  18
ATOM     18  O   UNL     1       2.451   6.104  20.520  0.00  0.00    +0.000 OA
BRANCH  18  19
ATOM     19  C   UNL     1       1.563   5.002  20.296  0.00  0.00    +0.000 C 
BRANCH  19  20
ATOM     20  C   UNL     1       2.216   3.865  19.545  0.00  0.00    +0.000 A 
ATOM     21  C   UNL     1       3.183   3.032  20.116  0.00  0.00    +0.000 A 
ATOM     22  C   UNL     1       3.779   2.020  19.356  0.00  0.00    +0.000 A 
ATOM     23  C   UNL     1       3.410   1.831  18.026  0.00  0.00    +0.000 A 
ATOM     24  C   UNL     1       2.439   2.645  17.449  0.00  0.00    +0.000 A 
ATOM     25  C   UNL     1       1.843   3.654  18.205  0.00  0.00    +0.000 A 
ENDBRANCH  19  20
ENDBRANCH  18  19
ENDBRANCH   6  18
TORSDOF 8
ENDMDL
MODEL 6
REMARK VINA RESULT:      -6.8      3.467      6.857
REMARK  Name = 
REMARK  11 active torsions:
REMARK  status: ('A' for Active; 'I' for Inactive)
REMARK    1  A    between atoms: C_1  and  C_2
REMARK    2  A    between atoms: C_2  and  C_3
REMARK    3  A    between atoms: C_3  and  N_4
REMARK    4  A    between atoms: N_4  and  C_5
REMARK    5  A    between atoms: N_4  and  C_8
REMARK    6  A    between atoms: C_5  and  C_6
REMARK    7  A    between atoms: C_6  and  C_7
REMARK    8  A    between atoms: C_9  and  C_10
REMARK    9  A    between atoms: C_13  and  O_14
REMARK   10  A    between atoms: O_14  and  C_15
REMARK   11  A    between atoms: C_15  and  C_16
REMARK                            x       y       z     vdW  Elec       q    Type
REMARK                         _______ _______ _______ _____ _____    ______ ____
ROOT
ATOM      1  C   UNL     1       3.297   5.798  17.883  0.00  0.00    +0.000 A 
ATOM      2  C   UNL     1       3.128   7.181  17.781  0.00  0.00    +0.000 A 
ATOM      3  C   UNL     1       1.934   8.055  17.857  0.00  0.00    +0.000 C 
ATOM      4  N   UNL     1       4.321   7.809  17.536  0.00  0.00    +0.000 NA
ATOM      5  C   UNL     1       5.241   6.878  17.542  0.00  0.00    +0.000 A 
ATOM      6  C   UNL     1       6.675   6.967  17.432  0.00  0.00    +0.000 A 
ATOM      7  C   UNL     1       7.406   5.839  17.414  0.00  0.00    +0.000 A 
ATOM      8  C   UNL     1       6.797   4.532  17.565  0.00  0.00    +0.000 A 
ATOM      9  C   UNL     1       5.468   4.451  17.744  0.00  0.00    +0.000 A 
ATOM     10  N   UNL     1       4.681   5.612  17.721  0.00  0.00    +0.000 N 
ENDROOT
BRANCH   1  11
ATOM     11  N   UNL     1       2.406   4.766  18.136  0.00  0.00    +0.000 N 
BRANCH  11  12
ATOM     12  C   UNL     1       2.507   3.554  17.304  0.00  0.00    +0.000 C 
BRANCH  12  14
ATOM     13  C   UNL     1       3.459   1.480  18.463  0.00  0.00    +0.000 C 
ATOM     14  C   UNL     1       2.221   2.222  17.993  0.00  0.00    +0.000 C 
ENDBRANCH  12  14
ENDBRANCH  11  12
BRANCH  11  15
ATOM     15  C   UNL     1       1.735   4.739  19.452  0.00  0.00    +0.000 C 
BRANCH  15  16
ATOM     16  C   UNL     1       2.599   4.541  20.696  0.00  0.00    +0.000 C 
ATOM     17  C   UNL     1       2.165   3.409  21.612  0.00  0.00    +0.000 C 
ENDBRANCH  15  16
ENDBRANCH  11  15
ENDBRANCH   1  11
BRANCH   6  18
ATOM     18  O   UNL     1       7.311   8.200  17.371  0.00  0.00    +0.000 OA
BRANCH  18  19
ATOM     19  C   UNL     1       8.432   8.371  18.247  0.00  0.00    +0.000 C 
BRANCH  19  20
ATOM     20  C   UNL     1       8.753   9.823  18.515  0.00  0.00    +0.000 A 
ATOM     21  C   UNL     1       9.419  10.255  19.666  0.00  0.00    +0.000 A 
ATOM     22  C   UNL     1       9.653  11.618  19.875  0.00  0.00    +0.000 A 
ATOM     23  C   UNL     1       9.229  12.555  18.935  0.00  0.00    +0.000 A 
ATOM     24  C   UNL     1       8.578  12.137  17.777  0.00  0.00    +0.000 A 
ATOM     25  C   UNL     1       8.344  10.779  17.567  0.00  0.00    +0.000 A 
ENDBRANCH  19  20
ENDBRANCH  18  19
ENDBRANCH   6  18
TORSDOF 8
ENDMDL
MODEL 7
REMARK VINA RESULT:      -6.7      0.585      2.309
REMARK  Name = 
REMARK  11 active torsions:
REMARK  status: ('A' for Active; 'I' for Inactive)
REMARK    1  A    between atoms: C_1  and  C_2
REMARK    2  A    between atoms: C_2  and  C_3
REMARK    3  A    between atoms: C_3  and  N_4
REMARK    4  A    between atoms: N_4  and  C_5
REMARK    5  A    between atoms: N_4  and  C_8
REMARK    6  A    between atoms: C_5  and  C_6
REMARK    7  A    between atoms: C_6  and  C_7
REMARK    8  A    between atoms: C_9  and  C_10
REMARK    9  A    between atoms: C_13  and  O_14
REMARK   10  A    between atoms: O_14  and  C_15
REMARK   11  A    between atoms: C_15  and  C_16
REMARK                            x       y       z     vdW  Elec       q    Type
REMARK                         _______ _______ _______ _____ _____    ______ ____
ROOT
ATOM      1  C   UNL     1       4.599   4.793  18.292  0.00  0.00    +0.000 A 
ATOM      2  C   UNL     1       4.151   4.101  19.419  0.00  0.00    +0.000 A 
ATOM      3  C   UNL     1       4.503   2.780  19.991  0.00  0.00    +0.000 C 
ATOM      4  N   UNL     1       3.178   4.804  20.078  0.00  0.00    +0.000 NA
ATOM      5  C   UNL     1       3.042   5.940  19.441  0.00  0.00    +0.000 A 
ATOM      6  C   UNL     1       2.237   7.098  19.738  0.00  0.00    +0.000 A 
ATOM      7  C   UNL     1       2.236   8.136  18.883  0.00  0.00    +0.000 A 
ATOM      8  C   UNL     1       3.073   8.150  17.699  0.00  0.00    +0.000 A 
ATOM      9  C   UNL     1       3.881   7.104  17.460  0.00  0.00    +0.000 A 
ATOM     10  N   UNL     1       3.865   5.991  18.315  0.00  0.00    +0.000 N 
ENDROOT
BRANCH   1  11
ATOM     11  N   UNL     1       5.565   4.501  17.341  0.00  0.00    +0.000 N 
BRANCH  11  12
ATOM     12  C   UNL     1       5.161   4.521  15.924  0.00  0.00    +0.000 C 
BRANCH  12  14
ATOM     13  C   UNL     1       5.663   3.847  13.506  0.00  0.00    +0.000 C 
ATOM     14  C   UNL     1       6.208   4.082  14.903  0.00  0.00    +0.000 C 
ENDBRANCH  12  14
ENDBRANCH  11  12
BRANCH  11  15
ATOM     15  C   UNL     1       6.984   4.626  17.734  0.00  0.00    +0.000 C 
BRANCH  15  16
ATOM     16  C   UNL     1       7.435   5.929  18.393  0.00  0.00    +0.000 C 
ATOM     17  C   UNL     1       7.515   7.129  17.465  0.00  0.00    +0.000 C 
ENDBRANCH  15  16
ENDBRANCH  11  15
ENDBRANCH   1  11
BRANCH   6  18
ATOM     18  O   UNL     1       1.486   7.166  20.903  0.00  0.00    +0.000 OA
BRANCH  18  19
ATOM     19  C   UNL     1       0.116   7.554  20.743  0.00  0.00    +0.000 C 
BRANCH  19  20
ATOM     20  C   UNL     1      -0.186   8.905  21.349  0.00  0.00    +0.000 A 
ATOM     21  C   UNL     1      -0.359   9.101  22.723  0.00  0.00    +0.000 A 
ATOM     22  C   UNL     1      -0.676  10.370  23.220  0.00  0.00    +0.000 A 
ATOM     23  C   UNL     1      -0.816  11.449  22.350  0.00  0.00    +0.000 A 
ATOM     24  C   UNL     1      -0.632  11.270  20.981  0.00  0.00    +0.000 A 
ATOM     25  C   UNL     1      -0.316  10.007  20.484  0.00  0.00    +0.000 A 
ENDBRANCH  19  20
ENDBRANCH  18  19
ENDBRANCH   6  18
TORSDOF 8
ENDMDL
MODEL 8
REMARK VINA RESULT:      -6.7      1.662      2.504
REMARK  Name = 
REMARK  11 active torsions:
REMARK  status: ('A' for Active; 'I' for Inactive)
REMARK    1  A    between atoms: C_1  and  C_2
REMARK    2  A    between atoms: C_2  and  C_3
REMARK    3  A    between atoms: C_3  and  N_4
REMARK    4  A    between atoms: N_4  and  C_5
REMARK    5  A    between atoms: N_4  and  C_8
REMARK    6  A    between atoms: C_5  and  C_6
REMARK    7  A    between atoms: C_6  and  C_7
REMARK    8  A    between atoms: C_9  and  C_10
REMARK    9  A    between atoms: C_13  and  O_14
REMARK   10  A    between atoms: O_14  and  C_15
REMARK   11  A    between atoms: C_15  and  C_16
REMARK                            x       y       z     vdW  Elec       q    Type
REMARK                         _______ _______ _______ _____ _____    ______ ____
ROOT
ATOM      1  C   UNL     1       3.169   5.541  19.279  0.00  0.00    +0.000 A 
ATOM      2  C   UNL     1       2.488   5.203  20.450  0.00  0.00    +0.000 A 
ATOM      3  C   UNL     1       2.511   3.998  21.312  0.00  0.00    +0.000 C 
ATOM      4  N   UNL     1       1.620   6.195  20.823  0.00  0.00    +0.000 NA
ATOM      5  C   UNL     1       1.777   7.170  19.964  0.00  0.00    +0.000 A 
ATOM      6  C   UNL     1       1.199   8.490  19.918  0.00  0.00    +0.000 A 
ATOM      7  C   UNL     1       1.487   9.299  18.885  0.00  0.00    +0.000 A 
ATOM      8  C   UNL     1       2.416   8.906  17.842  0.00  0.00    +0.000 A 
ATOM      9  C   UNL     1       3.014   7.706  17.923  0.00  0.00    +0.000 A 
ATOM     10  N   UNL     1       2.694   6.827  18.969  0.00  0.00    +0.000 N 
ENDROOT
BRANCH   1  11
ATOM     11  N   UNL     1       4.140   4.881  18.541  0.00  0.00    +0.000 N 
BRANCH  11  12
ATOM     12  C   UNL     1       5.498   4.804  19.110  0.00  0.00    +0.000 C 
BRANCH  12  14
ATOM     13  C   UNL     1       7.392   4.570  17.403  0.00  0.00    +0.000 C 
ATOM     14  C   UNL     1       6.612   5.491  18.324  0.00  0.00    +0.000 C 
ENDBRANCH  12  14
ENDBRANCH  11  12
BRANCH  11  15
ATOM     15  C   UNL     1       3.693   3.940  17.494  0.00  0.00    +0.000 C 
BRANCH  15  16
ATOM     16  C   UNL     1       3.501   2.474  17.880  0.00  0.00    +0.000 C 
ATOM     17  C   UNL     1       2.070   2.069  18.189  0.00  0.00    +0.000 C 
ENDBRANCH  15  16
ENDBRANCH  11  15
ENDBRANCH   1  11
BRANCH   6  18
ATOM     18  O   UNL     1       0.372   8.943  20.937  0.00  0.00    +0.000 OA
BRANCH  18  19
ATOM     19  C   UNL     1       0.678  10.240  21.462  0.00  0.00    +0.000 C 
BRANCH  19  20
ATOM     20  C   UNL     1      -0.556  11.063  21.751  0.00  0.00    +0.000 A 
ATOM     21  C   UNL     1      -1.165  11.106  23.009  0.00  0.00    +0.000 A 
ATOM     22  C   UNL     1      -2.329  11.857  23.203  0.00  0.00    +0.000 A 
ATOM     23  C   UNL     1      -2.887  12.573  22.147  0.00  0.00    +0.000 A 
ATOM     24  C   UNL     1      -2.282  12.550  20.892  0.00  0.00    +0.000 A 
ATOM     25  C   UNL     1      -1.122  11.803  20.696  0.00  0.00    +0.000 A 
ENDBRANCH  19  20
ENDBRANCH  18  19
ENDBRANCH   6  18
TORSDOF 8
ENDMDL
MODEL 9
REMARK VINA RESULT:      -6.7      3.167      8.148
REMARK  Name = 
REMARK  11 active torsions:
REMARK  status: ('A' for Active; 'I' for Inactive)
REMARK    1  A    between atoms: C_1  and  C_2
REMARK    2  A    between atoms: C_2  and  C_3
REMARK    3  A    between atoms: C_3  and  N_4
REMARK    4  A    between atoms: N_4  and  C_5
REMARK    5  A    between atoms: N_4  and  C_8
REMARK    6  A    between atoms: C_5  and  C_6
REMARK    7  A    between atoms: C_6  and  C_7
REMARK    8  A    between atoms: C_9  and  C_10
REMARK    9  A    between atoms: C_13  and  O_14
REMARK   10  A    between atoms: O_14  and  C_15
REMARK   11  A    between atoms: C_15  and  C_16
REMARK                            x       y       z     vdW  Elec       q    Type
REMARK                         _______ _______ _______ _____ _____    ______ ____
ROOT
ATOM      1  C   UNL     1       0.271  10.292  20.321  0.00  0.00    +0.000 A 
ATOM      2  C   UNL     1       0.187   9.692  21.580  0.00  0.00    +0.000 A 
ATOM      3  C   UNL     1      -0.486  10.091  22.838  0.00  0.00    +0.000 C 
ATOM      4  N   UNL     1       0.904   8.526  21.622  0.00  0.00    +0.000 NA
ATOM      5  C   UNL     1       1.383   8.339  20.418  0.00  0.00    +0.000 A 
ATOM      6  C   UNL     1       2.127   7.238  19.859  0.00  0.00    +0.000 A 
ATOM      7  C   UNL     1       2.555   7.312  18.587  0.00  0.00    +0.000 A 
ATOM      8  C   UNL     1       2.235   8.443  17.737  0.00  0.00    +0.000 A 
ATOM      9  C   UNL     1       1.477   9.435  18.234  0.00  0.00    +0.000 A 
ATOM     10  N   UNL     1       1.057   9.400  19.572  0.00  0.00    +0.000 N 
ENDROOT
BRANCH   1  11
ATOM     11  N   UNL     1      -0.288  11.449  19.801  0.00  0.00    +0.000 N 
BRANCH  11  12
ATOM     12  C   UNL     1      -1.758  11.526  19.724  0.00  0.00    +0.000 C 
BRANCH  12  14
ATOM     13  C   UNL     1      -1.963  10.494  17.390  0.00  0.00    +0.000 C 
ATOM     14  C   UNL     1      -2.369  11.617  18.328  0.00  0.00    +0.000 C 
ENDBRANCH  12  14
ENDBRANCH  11  12
BRANCH  11  15
ATOM     15  C   UNL     1       0.546  12.669  19.774  0.00  0.00    +0.000 C 
BRANCH  15  16
ATOM     16  C   UNL     1      -0.023  13.943  20.396  0.00  0.00    +0.000 C 
ATOM     17  C   UNL     1      -0.402  15.032  19.408  0.00  0.00    +0.000 C 
ENDBRANCH  15  16
ENDBRANCH  11  15
ENDBRANCH   1  11
BRANCH   6  18
ATOM     18  O   UNL     1       2.384   6.097  20.606  0.00  0.00    +0.000 OA
BRANCH  18  19
ATOM     19  C   UNL     1       1.513   4.985  20.372  0.00  0.00    +0.000 C 
BRANCH  19  20
ATOM     20  C   UNL     1       2.183   3.862  19.614  0.00  0.00    +0.000 A 
ATOM     21  C   UNL     1       3.236   3.110  20.143  0.00  0.00    +0.000 A 
ATOM     22  C   UNL     1       3.842   2.108  19.377  0.00  0.00    +0.000 A 
ATOM     23  C   UNL     1       3.398   1.850  18.083  0.00  0.00    +0.000 A 
ATOM     24  C   UNL     1       2.340   2.582  17.548  0.00  0.00    +0.000 A 
ATOM     25  C   UNL     1       1.735   3.580  18.310  0.00  0.00    +0.000 A 
ENDBRANCH  19  20
ENDBRANCH  18  19
ENDBRANCH   6  18
TORSDOF 8
ENDMDL
