MODEL 1
REMARK VINA RESULT:      -7.3      0.000      0.000
REMARK  Name = 
REMARK  5 active torsions:
REMARK  status: ('A' for Active; 'I' for Inactive)
REMARK    1  A    between atoms: C_2  and  C_20
REMARK    2  A    between atoms: N_3  and  C_4
REMARK    3  A    between atoms: C_4  and  C_5
REMARK    4  A    between atoms: N_10  and  C_11
REMARK    5  A    between atoms: C_11  and  C_12
REMARK                            x       y       z     vdW  Elec       q    Type
REMARK                         _______ _______ _______ _____ _____    ______ ____
ROOT
ATOM      1  C   UNL     1       1.344   7.712  20.840  0.00  0.00    +0.000 C 
ATOM      2  O   UNL     1       0.654   7.542  21.849  0.00  0.00    +0.000 OA
ATOM      3  N   UNL     1       2.007   6.663  20.226  0.00  0.00    +0.000 N 
ATOM      4  C   UNL     1       1.719   5.283  20.626  0.00  0.00    +0.000 C 
ATOM      5  C   UNL     1       1.439   4.390  19.391  0.00  0.00    +0.000 C 
ATOM      6  N   UNL     1       2.450   4.481  18.304  0.00  0.00    +0.000 NA
ATOM      7  C   UNL     1       2.655   5.911  17.971  0.00  0.00    +0.000 C 
ATOM      8  C   UNL     1       3.027   6.789  19.179  0.00  0.00    +0.000 C 
ENDROOT
BRANCH   1   9
ATOM      9  C   UNL     1       1.551   9.127  20.299  0.00  0.00    +0.000 C 
BRANCH   9  12
ATOM     10  O   UNL     1       0.747   9.882  17.708  0.00  0.00    +0.000 OA
ATOM     11  C   UNL     1      -0.039  10.009  18.636  0.00  0.00    +0.000 C 
ATOM     12  N   UNL     1       0.271   9.708  19.942  0.00  0.00    +0.000 N 
ATOM     13  H   UNL     1      -0.470   9.615  20.625  0.00  0.00    +0.000 HD
BRANCH  11  14
ATOM     14  C   UNL     1      -1.427  10.487  18.383  0.00  0.00    +0.000 A 
ATOM     15  C   UNL     1      -2.159   9.911  17.338  0.00  0.00    +0.000 A 
ATOM     16  C   UNL     1      -3.463  10.340  17.071  0.00  0.00    +0.000 A 
ATOM     17  C   UNL     1      -4.027  11.354  17.845  0.00  0.00    +0.000 A 
ATOM     18 BR   UNL     1      -5.788  11.940  17.485  0.00  0.00    +0.000 Br
ATOM     19  C   UNL     1      -3.300  11.946  18.876  0.00  0.00    +0.000 A 
ATOM     20  C   UNL     1      -1.998  11.516  19.145  0.00  0.00    +0.000 A 
ENDBRANCH  11  14
ENDBRANCH   9  12
ENDBRANCH   1   9
BRANCH   6  21
ATOM     21  C   UNL     1       3.691   3.791  18.706  0.00  0.00    +0.000 C 
BRANCH  21  22
ATOM     22  C   UNL     1       4.894   4.061  17.826  0.00  0.00    +0.000 A 
ATOM     23  C   UNL     1       6.072   4.581  18.383  0.00  0.00    +0.000 A 
ATOM     24  C   UNL     1       7.201   4.796  17.590  0.00  0.00    +0.000 A 
ATOM     25  C   UNL     1       7.166   4.487  16.233  0.00  0.00    +0.000 A 
ATOM     26  C   UNL     1       6.001   3.975  15.666  0.00  0.00    +0.000 A 
ATOM     27  C   UNL     1       4.869   3.761  16.457  0.00  0.00    +0.000 A 
ENDBRANCH  21  22
ENDBRANCH   6  21
TORSDOF 5
ENDMDL
MODEL 2
REMARK VINA RESULT:      -7.2      6.347      8.950
REMARK  Name = 
REMARK  5 active torsions:
REMARK  status: ('A' for Active; 'I' for Inactive)
REMARK    1  A    between atoms: C_2  and  C_20
REMARK    2  A    between atoms: N_3  and  C_4
REMARK    3  A    between atoms: C_4  and  C_5
REMARK    4  A    between atoms: N_10  and  C_11
REMARK    5  A    between atoms: C_11  and  C_12
REMARK                            x       y       z     vdW  Elec       q    Type
REMARK                         _______ _______ _______ _____ _____    ______ ____
ROOT
ATOM      1  C   UNL     1       7.659   7.269  17.226  0.00  0.00    +0.000 C 
ATOM      2  O   UNL     1       8.262   7.435  16.162  0.00  0.00    +0.000 OA
ATOM      3  N   UNL     1       6.536   6.464  17.308  0.00  0.00    +0.000 N 
ATOM      4  C   UNL     1       6.170   5.604  16.179  0.00  0.00    +0.000 C 
ATOM      5  C   UNL     1       5.902   4.151  16.647  0.00  0.00    +0.000 C 
ATOM      6  N   UNL     1       4.973   4.021  17.802  0.00  0.00    +0.000 NA
ATOM      7  C   UNL     1       5.441   4.919  18.885  0.00  0.00    +0.000 C 
ATOM      8  C   UNL     1       5.619   6.385  18.451  0.00  0.00    +0.000 C 
ENDROOT
BRANCH   1   9
ATOM      9  C   UNL     1       8.102   8.038  18.471  0.00  0.00    +0.000 C 
BRANCH   9  12
ATOM     10  O   UNL     1       9.169   9.976  20.214  0.00  0.00    +0.000 OA
ATOM     11  C   UNL     1       9.093  10.227  19.020  0.00  0.00    +0.000 C 
ATOM     12  N   UNL     1       8.551   9.365  18.095  0.00  0.00    +0.000 N 
ATOM     13  H   UNL     1       8.715   9.519  17.108  0.00  0.00    +0.000 HD
BRANCH  11  14
ATOM     14  C   UNL     1       9.627  11.511  18.488  0.00  0.00    +0.000 A 
ATOM     15  C   UNL     1       8.896  12.686  18.702  0.00  0.00    +0.000 A 
ATOM     16  C   UNL     1       9.367  13.908  18.212  0.00  0.00    +0.000 A 
ATOM     17  C   UNL     1      10.563  13.949  17.497  0.00  0.00    +0.000 A 
ATOM     18 BR   UNL     1      11.201  15.598  16.828  0.00  0.00    +0.000 Br
ATOM     19  C   UNL     1      11.289  12.782  17.262  0.00  0.00    +0.000 A 
ATOM     20  C   UNL     1      10.820  11.561  17.755  0.00  0.00    +0.000 A 
ENDBRANCH  11  14
ENDBRANCH   9  12
ENDBRANCH   1   9
BRANCH   6  21
ATOM     21  C   UNL     1       3.588   4.295  17.372  0.00  0.00    +0.000 C 
BRANCH  21  22
ATOM     22  C   UNL     1       2.514   3.888  18.360  0.00  0.00    +0.000 A 
ATOM     23  C   UNL     1       1.968   2.596  18.314  0.00  0.00    +0.000 A 
ATOM     24  C   UNL     1       1.007   2.194  19.244  0.00  0.00    +0.000 A 
ATOM     25  C   UNL     1       0.586   3.078  20.234  0.00  0.00    +0.000 A 
ATOM     26  C   UNL     1       1.116   4.366  20.287  0.00  0.00    +0.000 A 
ATOM     27  C   UNL     1       2.076   4.771  19.356  0.00  0.00    +0.000 A 
ENDBRANCH  21  22
ENDBRANCH   6  21
TORSDOF 5
ENDMDL
MODEL 3
REMARK VINA RESULT:      -7.2      0.718      1.188
REMARK  Name = 
REMARK  5 active torsions:
REMARK  status: ('A' for Active; 'I' for Inactive)
REMARK    1  A    between atoms: C_2  and  C_20
REMARK    2  A    between atoms: N_3  and  C_4
REMARK    3  A    between atoms: C_4  and  C_5
REMARK    4  A    between atoms: N_10  and  C_11
REMARK    5  A    between atoms: C_11  and  C_12
REMARK                            x       y       z     vdW  Elec       q    Type
REMARK                         _______ _______ _______ _____ _____    ______ ____
ROOT
ATOM      1  C   UNL     1       1.629   7.923  20.301  0.00  0.00    +0.000 C 
ATOM      2  O   UNL     1       1.170   7.987  21.445  0.00  0.00    +0.000 OA
ATOM      3  N   UNL     1       2.306   6.803  19.850  0.00  0.00    +0.000 N 
ATOM      4  C   UNL     1       2.294   5.573  20.646  0.00  0.00    +0.000 C 
ATOM      5  C   UNL     1       1.917   4.348  19.775  0.00  0.00    +0.000 C 
ATOM      6  N   UNL     1       2.685   4.213  18.508  0.00  0.00    +0.000 NA
ATOM      7  C   UNL     1       2.620   5.503  17.781  0.00  0.00    +0.000 C 
ATOM      8  C   UNL     1       3.084   6.714  18.610  0.00  0.00    +0.000 C 
ENDROOT
BRANCH   1   9
ATOM      9  C   UNL     1       1.530   9.141  19.381  0.00  0.00    +0.000 C 
BRANCH   9  12
ATOM     10  O   UNL     1       0.525  11.742  18.991  0.00  0.00    +0.000 OA
ATOM     11  C   UNL     1      -0.247  10.796  18.961  0.00  0.00    +0.000 C 
ATOM     12  N   UNL     1       0.137   9.493  19.180  0.00  0.00    +0.000 N 
ATOM     13  H   UNL     1      -0.484   8.736  18.925  0.00  0.00    +0.000 HD
BRANCH  11  14
ATOM     14  C   UNL     1      -1.687  11.012  18.649  0.00  0.00    +0.000 A 
ATOM     15  C   UNL     1      -2.396  11.980  19.370  0.00  0.00    +0.000 A 
ATOM     16  C   UNL     1      -3.751  12.205  19.105  0.00  0.00    +0.000 A 
ATOM     17  C   UNL     1      -4.396  11.450  18.127  0.00  0.00    +0.000 A 
ATOM     18 BR   UNL     1      -6.228  11.746  17.768  0.00  0.00    +0.000 Br
ATOM     19  C   UNL     1      -3.704  10.470  17.416  0.00  0.00    +0.000 A 
ATOM     20  C   UNL     1      -2.349  10.248  17.678  0.00  0.00    +0.000 A 
ENDBRANCH  11  14
ENDBRANCH   9  12
ENDBRANCH   1   9
BRANCH   6  21
ATOM     21  C   UNL     1       4.063   3.771  18.794  0.00  0.00    +0.000 C 
BRANCH  21  22
ATOM     22  C   UNL     1       5.080   4.092  17.719  0.00  0.00    +0.000 A 
ATOM     23  C   UNL     1       6.287   4.722  18.056  0.00  0.00    +0.000 A 
ATOM     24  C   UNL     1       7.251   4.986  17.080  0.00  0.00    +0.000 A 
ATOM     25  C   UNL     1       7.020   4.618  15.758  0.00  0.00    +0.000 A 
ATOM     26  C   UNL     1       5.823   3.996  15.409  0.00  0.00    +0.000 A 
ATOM     27  C   UNL     1       4.856   3.733  16.383  0.00  0.00    +0.000 A 
ENDBRANCH  21  22
ENDBRANCH   6  21
TORSDOF 5
ENDMDL
MODEL 4
REMARK VINA RESULT:      -7.1      0.878      1.299
REMARK  Name = 
REMARK  5 active torsions:
REMARK  status: ('A' for Active; 'I' for Inactive)
REMARK    1  A    between atoms: C_2  and  C_20
REMARK    2  A    between atoms: N_3  and  C_4
REMARK    3  A    between atoms: C_4  and  C_5
REMARK    4  A    between atoms: N_10  and  C_11
REMARK    5  A    between atoms: C_11  and  C_12
REMARK                            x       y       z     vdW  Elec       q    Type
REMARK                         _______ _______ _______ _____ _____    ______ ____
ROOT
ATOM      1  C   UNL     1       1.552   8.015  20.336  0.00  0.00    +0.000 C 
ATOM      2  O   UNL     1       1.019   8.073  21.447  0.00  0.00    +0.000 OA
ATOM      3  N   UNL     1       2.233   6.887  19.912  0.00  0.00    +0.000 N 
ATOM      4  C   UNL     1       2.141   5.645  20.685  0.00  0.00    +0.000 C 
ATOM      5  C   UNL     1       1.796   4.442  19.771  0.00  0.00    +0.000 C 
ATOM      6  N   UNL     1       2.644   4.309  18.556  0.00  0.00    +0.000 NA
ATOM      7  C   UNL     1       2.657   5.611  17.847  0.00  0.00    +0.000 C 
ATOM      8  C   UNL     1       3.091   6.798  18.725  0.00  0.00    +0.000 C 
ENDROOT
BRANCH   1   9
ATOM      9  C   UNL     1       1.542   9.248  19.431  0.00  0.00    +0.000 C 
BRANCH   9  12
ATOM     10  O   UNL     1       0.163  11.469  20.480  0.00  0.00    +0.000 OA
ATOM     11  C   UNL     1      -0.398  10.751  19.664  0.00  0.00    +0.000 C 
ATOM     12  N   UNL     1       0.174   9.622  19.126  0.00  0.00    +0.000 N 
ATOM     13  H   UNL     1      -0.233   9.197  18.302  0.00  0.00    +0.000 HD
BRANCH  11  14
ATOM     14  C   UNL     1      -1.764  11.092  19.179  0.00  0.00    +0.000 A 
ATOM     15  C   UNL     1      -2.278  10.403  18.074  0.00  0.00    +0.000 A 
ATOM     16  C   UNL     1      -3.556  10.701  17.590  0.00  0.00    +0.000 A 
ATOM     17  C   UNL     1      -4.310  11.698  18.206  0.00  0.00    +0.000 A 
ATOM     18 BR   UNL     1      -6.037  12.108  17.553  0.00  0.00    +0.000 Br
ATOM     19  C   UNL     1      -3.800  12.402  19.296  0.00  0.00    +0.000 A 
ATOM     20  C   UNL     1      -2.525  12.102  19.782  0.00  0.00    +0.000 A 
ENDBRANCH  11  14
ENDBRANCH   9  12
ENDBRANCH   1   9
BRANCH   6  21
ATOM     21  C   UNL     1       3.990   3.831  18.927  0.00  0.00    +0.000 C 
BRANCH  21  22
ATOM     22  C   UNL     1       5.066   4.062  17.885  0.00  0.00    +0.000 A 
ATOM     23  C   UNL     1       4.855   3.666  16.555  0.00  0.00    +0.000 A 
ATOM     24  C   UNL     1       5.821   3.910  15.577  0.00  0.00    +0.000 A 
ATOM     25  C   UNL     1       7.007   4.557  15.917  0.00  0.00    +0.000 A 
ATOM     26  C   UNL     1       7.231   4.949  17.235  0.00  0.00    +0.000 A 
ATOM     27  C   UNL     1       6.266   4.704  18.216  0.00  0.00    +0.000 A 
ENDBRANCH  21  22
ENDBRANCH   6  21
TORSDOF 5
ENDMDL
MODEL 5
REMARK VINA RESULT:      -7.1      6.275      8.943
REMARK  Name = 
REMARK  5 active torsions:
REMARK  status: ('A' for Active; 'I' for Inactive)
REMARK    1  A    between atoms: C_2  and  C_20
REMARK    2  A    between atoms: N_3  and  C_4
REMARK    3  A    between atoms: C_4  and  C_5
REMARK    4  A    between atoms: N_10  and  C_11
REMARK    5  A    between atoms: C_11  and  C_12
REMARK                            x       y       z     vdW  Elec       q    Type
REMARK                         _______ _______ _______ _____ _____    ______ ____
ROOT
ATOM      1  C   UNL     1       7.557   7.139  17.243  0.00  0.00    +0.000 C 
ATOM      2  O   UNL     1       8.046   7.392  16.139  0.00  0.00    +0.000 OA
ATOM      3  N   UNL     1       6.475   6.286  17.382  0.00  0.00    +0.000 N 
ATOM      4  C   UNL     1       6.029   5.482  16.241  0.00  0.00    +0.000 C 
ATOM      5  C   UNL     1       5.857   3.994  16.639  0.00  0.00    +0.000 C 
ATOM      6  N   UNL     1       5.052   3.759  17.868  0.00  0.00    +0.000 NA
ATOM      7  C   UNL     1       5.595   4.607  18.955  0.00  0.00    +0.000 C 
ATOM      8  C   UNL     1       5.680   6.102  18.600  0.00  0.00    +0.000 C 
ENDROOT
BRANCH   1   9
ATOM      9  C   UNL     1       8.096   7.848  18.486  0.00  0.00    +0.000 C 
BRANCH   9  12
ATOM     10  O   UNL     1       9.054   9.800  20.276  0.00  0.00    +0.000 OA
ATOM     11  C   UNL     1       9.077  10.031  19.076  0.00  0.00    +0.000 C 
ATOM     12  N   UNL     1       8.595   9.161  18.125  0.00  0.00    +0.000 N 
ATOM     13  H   UNL     1       8.839   9.295  17.151  0.00  0.00    +0.000 HD
BRANCH  11  14
ATOM     14  C   UNL     1       9.672  11.297  18.566  0.00  0.00    +0.000 A 
ATOM     15  C   UNL     1       8.831  12.247  17.973  0.00  0.00    +0.000 A 
ATOM     16  C   UNL     1       9.359  13.445  17.480  0.00  0.00    +0.000 A 
ATOM     17  C   UNL     1      10.729  13.683  17.571  0.00  0.00    +0.000 A 
ATOM     18 BR   UNL     1      11.448  15.299  16.902  0.00  0.00    +0.000 Br
ATOM     19  C   UNL     1      11.577  12.736  18.143  0.00  0.00    +0.000 A 
ATOM     20  C   UNL     1      11.050  11.540  18.639  0.00  0.00    +0.000 A 
ENDBRANCH  11  14
ENDBRANCH   9  12
ENDBRANCH   1   9
BRANCH   6  21
ATOM     21  C   UNL     1       3.623   4.003  17.593  0.00  0.00    +0.000 C 
BRANCH  21  22
ATOM     22  C   UNL     1       2.686   3.720  18.749  0.00  0.00    +0.000 A 
ATOM     23  C   UNL     1       2.034   4.776  19.403  0.00  0.00    +0.000 A 
ATOM     24  C   UNL     1       1.137   4.525  20.443  0.00  0.00    +0.000 A 
ATOM     25  C   UNL     1       0.877   3.216  20.837  0.00  0.00    +0.000 A 
ATOM     26  C   UNL     1       1.521   2.158  20.199  0.00  0.00    +0.000 A 
ATOM     27  C   UNL     1       2.422   2.406  19.160  0.00  0.00    +0.000 A 
ENDBRANCH  21  22
ENDBRANCH   6  21
TORSDOF 5
ENDMDL
MODEL 6
REMARK VINA RESULT:      -7.1      4.468     10.101
REMARK  Name = 
REMARK  5 active torsions:
REMARK  status: ('A' for Active; 'I' for Inactive)
REMARK    1  A    between atoms: C_2  and  C_20
REMARK    2  A    between atoms: N_3  and  C_4
REMARK    3  A    between atoms: C_4  and  C_5
REMARK    4  A    between atoms: N_10  and  C_11
REMARK    5  A    between atoms: C_11  and  C_12
REMARK                            x       y       z     vdW  Elec       q    Type
REMARK                         _______ _______ _______ _____ _____    ______ ____
ROOT
ATOM      1  C   UNL     1       1.089   9.536  19.277  0.00  0.00    +0.000 C 
ATOM      2  O   UNL     1       1.142   9.802  18.073  0.00  0.00    +0.000 OA
ATOM      3  N   UNL     1       0.599  10.442  20.202  0.00  0.00    +0.000 N 
ATOM      4  C   UNL     1      -0.085  11.654  19.744  0.00  0.00    +0.000 C 
ATOM      5  C   UNL     1      -1.439  11.842  20.475  0.00  0.00    +0.000 C 
ATOM      6  N   UNL     1      -1.377  11.734  21.957  0.00  0.00    +0.000 NA
ATOM      7  C   UNL     1      -0.681  10.473  22.307  0.00  0.00    +0.000 C 
ATOM      8  C   UNL     1       0.707  10.322  21.660  0.00  0.00    +0.000 C 
ENDROOT
BRANCH   1   9
ATOM      9  C   UNL     1       1.660   8.210  19.781  0.00  0.00    +0.000 C 
BRANCH   9  12
ATOM     10  O   UNL     1       2.890   5.680  19.911  0.00  0.00    +0.000 OA
ATOM     11  C   UNL     1       3.053   6.371  18.915  0.00  0.00    +0.000 C 
ATOM     12  N   UNL     1       2.530   7.635  18.773  0.00  0.00    +0.000 N 
ATOM     13  H   UNL     1       2.502   8.067  17.858  0.00  0.00    +0.000 HD
BRANCH  11  14
ATOM     14  C   UNL     1       3.831   5.847  17.758  0.00  0.00    +0.000 A 
ATOM     15  C   UNL     1       3.874   4.465  17.544  0.00  0.00    +0.000 A 
ATOM     16  C   UNL     1       4.599   3.940  16.469  0.00  0.00    +0.000 A 
ATOM     17  C   UNL     1       5.291   4.802  15.619  0.00  0.00    +0.000 A 
ATOM     18 BR   UNL     1       6.277   4.097  14.167  0.00  0.00    +0.000 Br
ATOM     19  C   UNL     1       5.270   6.179  15.834  0.00  0.00    +0.000 A 
ATOM     20  C   UNL     1       4.543   6.703  16.906  0.00  0.00    +0.000 A 
ENDBRANCH  11  14
ENDBRANCH   9  12
ENDBRANCH   1   9
BRANCH   6  21
ATOM     21  C   UNL     1      -0.735  12.934  22.527  0.00  0.00    +0.000 C 
BRANCH  21  22
ATOM     22  C   UNL     1      -1.623  13.781  23.414  0.00  0.00    +0.000 A 
ATOM     23  C   UNL     1      -1.141  14.985  23.951  0.00  0.00    +0.000 A 
ATOM     24  C   UNL     1      -1.964  15.795  24.736  0.00  0.00    +0.000 A 
ATOM     25  C   UNL     1      -3.279  15.414  24.988  0.00  0.00    +0.000 A 
ATOM     26  C   UNL     1      -3.769  14.219  24.465  0.00  0.00    +0.000 A 
ATOM     27  C   UNL     1      -2.947  13.405  23.681  0.00  0.00    +0.000 A 
ENDBRANCH  21  22
ENDBRANCH   6  21
TORSDOF 5
ENDMDL
MODEL 7
REMARK VINA RESULT:      -7.0      4.508     10.173
REMARK  Name = 
REMARK  5 active torsions:
REMARK  status: ('A' for Active; 'I' for Inactive)
REMARK    1  A    between atoms: C_2  and  C_20
REMARK    2  A    between atoms: N_3  and  C_4
REMARK    3  A    between atoms: C_4  and  C_5
REMARK    4  A    between atoms: N_10  and  C_11
REMARK    5  A    between atoms: C_11  and  C_12
REMARK                            x       y       z     vdW  Elec       q    Type
REMARK                         _______ _______ _______ _____ _____    ______ ____
ROOT
ATOM      1  C   UNL     1       0.909   9.518  19.591  0.00  0.00    +0.000 C 
ATOM      2  O   UNL     1       0.931   9.723  18.374  0.00  0.00    +0.000 OA
ATOM      3  N   UNL     1       0.428  10.463  20.481  0.00  0.00    +0.000 N 
ATOM      4  C   UNL     1      -0.282  11.643  19.979  0.00  0.00    +0.000 C 
ATOM      5  C   UNL     1      -1.622  11.851  20.731  0.00  0.00    +0.000 C 
ATOM      6  N   UNL     1      -1.524  11.818  22.215  0.00  0.00    +0.000 NA
ATOM      7  C   UNL     1      -0.805  10.584  22.611  0.00  0.00    +0.000 C 
ATOM      8  C   UNL     1       0.571  10.418  21.940  0.00  0.00    +0.000 C 
ENDROOT
BRANCH   1   9
ATOM      9  C   UNL     1       1.508   8.226  20.147  0.00  0.00    +0.000 C 
BRANCH   9  12
ATOM     10  O   UNL     1       2.388   5.551  20.108  0.00  0.00    +0.000 OA
ATOM     11  C   UNL     1       2.748   6.309  19.218  0.00  0.00    +0.000 C 
ATOM     12  N   UNL     1       2.407   7.641  19.170  0.00  0.00    +0.000 N 
ATOM     13  H   UNL     1       2.536   8.162  18.312  0.00  0.00    +0.000 HD
BRANCH  11  14
ATOM     14  C   UNL     1       3.579   5.803  18.091  0.00  0.00    +0.000 A 
ATOM     15  C   UNL     1       4.297   6.722  17.316  0.00  0.00    +0.000 A 
ATOM     16  C   UNL     1       5.083   6.280  16.247  0.00  0.00    +0.000 A 
ATOM     17  C   UNL     1       5.139   4.920  15.949  0.00  0.00    +0.000 A 
ATOM     18 BR   UNL     1       6.197   4.318  14.502  0.00  0.00    +0.000 Br
ATOM     19  C   UNL     1       4.414   3.998  16.703  0.00  0.00    +0.000 A 
ATOM     20  C   UNL     1       3.630   4.439  17.773  0.00  0.00    +0.000 A 
ENDBRANCH  11  14
ENDBRANCH   9  12
ENDBRANCH   1   9
BRANCH   6  21
ATOM     21  C   UNL     1      -0.885  13.053  22.709  0.00  0.00    +0.000 C 
BRANCH  21  22
ATOM     22  C   UNL     1      -1.769  13.939  23.561  0.00  0.00    +0.000 A 
ATOM     23  C   UNL     1      -1.195  14.882  24.428  0.00  0.00    +0.000 A 
ATOM     24  C   UNL     1      -1.999  15.734  25.188  0.00  0.00    +0.000 A 
ATOM     25  C   UNL     1      -3.386  15.656  25.087  0.00  0.00    +0.000 A 
ATOM     26  C   UNL     1      -3.968  14.721  24.234  0.00  0.00    +0.000 A 
ATOM     27  C   UNL     1      -3.166  13.866  23.474  0.00  0.00    +0.000 A 
ENDBRANCH  21  22
ENDBRANCH   6  21
TORSDOF 5
ENDMDL
MODEL 8
REMARK VINA RESULT:      -7.0      2.243      2.699
REMARK  Name = 
REMARK  5 active torsions:
REMARK  status: ('A' for Active; 'I' for Inactive)
REMARK    1  A    between atoms: C_2  and  C_20
REMARK    2  A    between atoms: N_3  and  C_4
REMARK    3  A    between atoms: C_4  and  C_5
REMARK    4  A    between atoms: N_10  and  C_11
REMARK    5  A    between atoms: C_11  and  C_12
REMARK                            x       y       z     vdW  Elec       q    Type
REMARK                         _______ _______ _______ _____ _____    ______ ____
ROOT
ATOM      1  C   UNL     1       1.239   7.919  20.735  0.00  0.00    +0.000 C 
ATOM      2  O   UNL     1       0.757   7.747  21.858  0.00  0.00    +0.000 OA
ATOM      3  N   UNL     1       2.035   6.962  20.130  0.00  0.00    +0.000 N 
ATOM      4  C   UNL     1       2.137   5.621  20.713  0.00  0.00    +0.000 C 
ATOM      5  C   UNL     1       1.902   4.526  19.642  0.00  0.00    +0.000 C 
ATOM      6  N   UNL     1       2.700   4.680  18.397  0.00  0.00    +0.000 NA
ATOM      7  C   UNL     1       2.515   6.060  17.888  0.00  0.00    +0.000 C 
ATOM      8  C   UNL     1       2.839   7.156  18.918  0.00  0.00    +0.000 C 
ENDROOT
BRANCH   1   9
ATOM      9  C   UNL     1       1.031   9.256  20.023  0.00  0.00    +0.000 C 
BRANCH   9  12
ATOM     10  O   UNL     1       1.033  11.682  21.453  0.00  0.00    +0.000 OA
ATOM     11  C   UNL     1      -0.033  11.130  21.219  0.00  0.00    +0.000 C 
ATOM     12  N   UNL     1      -0.137   9.925  20.565  0.00  0.00    +0.000 N 
ATOM     13  H   UNL     1      -1.033   9.626  20.201  0.00  0.00    +0.000 HD
BRANCH  11  14
ATOM     14  C   UNL     1      -1.315  11.772  21.621  0.00  0.00    +0.000 A 
ATOM     15  C   UNL     1      -1.760  11.623  22.940  0.00  0.00    +0.000 A 
ATOM     16  C   UNL     1      -2.962  12.210  23.349  0.00  0.00    +0.000 A 
ATOM     17  C   UNL     1      -3.722  12.933  22.432  0.00  0.00    +0.000 A 
ATOM     18 BR   UNL     1      -5.351  13.723  22.979  0.00  0.00    +0.000 Br
ATOM     19  C   UNL     1      -3.298  13.072  21.112  0.00  0.00    +0.000 A 
ATOM     20  C   UNL     1      -2.095  12.489  20.704  0.00  0.00    +0.000 A 
ENDBRANCH  11  14
ENDBRANCH   9  12
ENDBRANCH   1   9
BRANCH   6  21
ATOM     21  C   UNL     1       4.112   4.334  18.653  0.00  0.00    +0.000 C 
BRANCH  21  22
ATOM     22  C   UNL     1       5.055   4.576  17.493  0.00  0.00    +0.000 A 
ATOM     23  C   UNL     1       6.150   5.441  17.643  0.00  0.00    +0.000 A 
ATOM     24  C   UNL     1       7.051   5.640  16.594  0.00  0.00    +0.000 A 
ATOM     25  C   UNL     1       6.870   4.972  15.387  0.00  0.00    +0.000 A 
ATOM     26  C   UNL     1       5.784   4.115  15.222  0.00  0.00    +0.000 A 
ATOM     27  C   UNL     1       4.880   3.916  16.269  0.00  0.00    +0.000 A 
ENDBRANCH  21  22
ENDBRANCH   6  21
TORSDOF 5
ENDMDL
MODEL 9
REMARK VINA RESULT:      -7.0      3.364      8.774
REMARK  Name = 
REMARK  5 active torsions:
REMARK  status: ('A' for Active; 'I' for Inactive)
REMARK    1  A    between atoms: C_2  and  C_20
REMARK    2  A    between atoms: N_3  and  C_4
REMARK    3  A    between atoms: C_4  and  C_5
REMARK    4  A    between atoms: N_10  and  C_11
REMARK    5  A    between atoms: C_11  and  C_12
REMARK                            x       y       z     vdW  Elec       q    Type
REMARK                         _______ _______ _______ _____ _____    ______ ____
ROOT
ATOM      1  C   UNL     1       1.223   9.107  21.695  0.00  0.00    +0.000 C 
ATOM      2  O   UNL     1       1.845   9.494  22.688  0.00  0.00    +0.000 OA
ATOM      3  N   UNL     1       0.535   9.987  20.877  0.00  0.00    +0.000 N 
ATOM      4  C   UNL     1       0.719  11.431  21.041  0.00  0.00    +0.000 C 
ATOM      5  C   UNL     1       1.015  12.115  19.682  0.00  0.00    +0.000 C 
ATOM      6  N   UNL     1       0.073  11.770  18.584  0.00  0.00    +0.000 NA
ATOM      7  C   UNL     1      -0.028  10.294  18.498  0.00  0.00    +0.000 C 
ATOM      8  C   UNL     1      -0.415   9.614  19.824  0.00  0.00    +0.000 C 
ENDROOT
BRANCH   1   9
ATOM      9  C   UNL     1       1.130   7.609  21.402  0.00  0.00    +0.000 C 
BRANCH   9  12
ATOM     10  O   UNL     1       1.714   4.980  20.577  0.00  0.00    +0.000 OA
ATOM     11  C   UNL     1       2.377   5.905  20.130  0.00  0.00    +0.000 C 
ATOM     12  N   UNL     1       2.198   7.217  20.501  0.00  0.00    +0.000 N 
ATOM     13  H   UNL     1       2.608   7.957  19.945  0.00  0.00    +0.000 HD
BRANCH  11  14
ATOM     14  C   UNL     1       3.429   5.649  19.107  0.00  0.00    +0.000 A 
ATOM     15  C   UNL     1       4.347   4.615  19.328  0.00  0.00    +0.000 A 
ATOM     16  C   UNL     1       5.349   4.351  18.390  0.00  0.00    +0.000 A 
ATOM     17  C   UNL     1       5.439   5.132  17.239  0.00  0.00    +0.000 A 
ATOM     18 BR   UNL     1       6.796   4.782  15.969  0.00  0.00    +0.000 Br
ATOM     19  C   UNL     1       4.541   6.176  17.019  0.00  0.00    +0.000 A 
ATOM     20  C   UNL     1       3.537   6.438  17.954  0.00  0.00    +0.000 A 
ENDBRANCH  11  14
ENDBRANCH   9  12
ENDBRANCH   1   9
BRANCH   6  21
ATOM     21  C   UNL     1      -1.227  12.434  18.802  0.00  0.00    +0.000 C 
BRANCH  21  22
ATOM     22  C   UNL     1      -2.381  11.872  18.000  0.00  0.00    +0.000 A 
ATOM     23  C   UNL     1      -3.650  11.743  18.585  0.00  0.00    +0.000 A 
ATOM     24  C   UNL     1      -4.733  11.265  17.843  0.00  0.00    +0.000 A 
ATOM     25  C   UNL     1      -4.559  10.915  16.507  0.00  0.00    +0.000 A 
ATOM     26  C   UNL     1      -3.303  11.033  15.915  0.00  0.00    +0.000 A 
ATOM     27  C   UNL     1      -2.218  11.509  16.656  0.00  0.00    +0.000 A 
ENDBRANCH  21  22
ENDBRANCH   6  21
TORSDOF 5
ENDMDL
