MODEL 1
REMARK VINA RESULT:      -8.3      0.000      0.000
REMARK  Name = 
REMARK  9 active torsions:
REMARK  status: ('A' for Active; 'I' for Inactive)
REMARK    1  A    between atoms: C_1  and  O_2
REMARK    2  A    between atoms: O_2  and  C_3
REMARK    3  A    between atoms: C_5  and  C_6
REMARK    4  A    between atoms: C_7  and  C_8
REMARK    5  A    between atoms: N_13  and  C_14
REMARK    6  A    between atoms: C_14  and  C_15
REMARK    7  A    between atoms: C_23  and  C_24
REMARK    8  A    between atoms: C_25  and  N_26
REMARK    9  A    between atoms: C_27  and  C_28
REMARK                            x       y       z     vdW  Elec       q    Type
REMARK                         _______ _______ _______ _____ _____    ______ ____
ROOT
ATOM      1  C   UNL     1       1.454   8.444  20.203  0.00  0.00    +0.000 C 
ATOM      2  O   UNL     1       1.257   7.801  21.229  0.00  0.00    +0.000 OA
ATOM      3  N   UNL     1       1.094   9.766  20.023  0.00  0.00    +0.000 N 
ATOM      4  C   UNL     1       0.540  10.517  21.147  0.00  0.00    +0.000 C 
ATOM      5  C   UNL     1      -0.915  10.948  20.893  0.00  0.00    +0.000 C 
ATOM      6  N   UNL     1      -1.084  11.663  19.602  0.00  0.00    +0.000 NA
ATOM      7  C   UNL     1      -0.562  10.815  18.505  0.00  0.00    +0.000 C 
ATOM      8  C   UNL     1       0.920  10.406  18.701  0.00  0.00    +0.000 C 
ATOM      9  C   UNL     1       1.878  11.584  18.528  0.00  0.00    +0.000 C 
ENDROOT
BRANCH   1  11
ATOM     10  C   UNL     1       2.589   6.559  19.093  0.00  0.00    +0.000 C 
ATOM     11  C   UNL     1       2.227   7.852  19.089  0.00  0.00    +0.000 C 
BRANCH  10  14
ATOM     12  C   UNL     1       5.549   6.228  16.799  0.00  0.00    +0.000 A 
ATOM     13  C   UNL     1       4.561   6.729  17.646  0.00  0.00    +0.000 A 
ATOM     14  C   UNL     1       3.436   5.965  18.040  0.00  0.00    +0.000 A 
ATOM     15  C   UNL     1       3.301   4.654  17.540  0.00  0.00    +0.000 A 
ATOM     16  C   UNL     1       4.331   4.131  16.733  0.00  0.00    +0.000 A 
ATOM     17  C   UNL     1       5.430   4.912  16.354  0.00  0.00    +0.000 A 
ATOM     18 CL   UNL     1       6.632   4.192  15.342  0.00  0.00    +0.000 Cl
BRANCH  15  19
ATOM     19  N   UNL     1       2.208   3.772  17.766  0.00  0.00    +0.000 N 
ATOM     20  C   UNL     1       1.979   3.002  18.891  0.00  0.00    +0.000 C 
ATOM     21  C   UNL     1       0.694   2.206  18.815  0.00  0.00    +0.000 C 
ATOM     22  O   UNL     1       2.672   2.946  19.902  0.00  0.00    +0.000 OA
ATOM     23  H   UNL     1       1.398   3.929  17.177  0.00  0.00    +0.000 HD
ENDBRANCH  15  19
BRANCH  12  25
ATOM     24  C   UNL     1       7.500   7.461  17.369  0.00  0.00    +0.000 C 
ATOM     25  O   UNL     1       6.619   6.966  16.364  0.00  0.00    +0.000 OA
ENDBRANCH  12  25
ENDBRANCH  10  14
ENDBRANCH   1  11
BRANCH   6  26
ATOM     26  C   UNL     1      -2.500  11.988  19.348  0.00  0.00    +0.000 C 
BRANCH  26  27
ATOM     27  C   UNL     1      -3.069  12.978  20.344  0.00  0.00    +0.000 A 
ATOM     28  C   UNL     1      -2.325  14.102  20.736  0.00  0.00    +0.000 A 
ATOM     29  C   UNL     1      -2.813  14.962  21.720  0.00  0.00    +0.000 A 
ATOM     30  C   UNL     1      -4.048  14.706  22.302  0.00  0.00    +0.000 A 
ATOM     31  F   UNL     1      -4.504  15.516  23.266  0.00  0.00    +0.000 F 
ATOM     32  C   UNL     1      -4.815  13.617  21.906  0.00  0.00    +0.000 A 
ATOM     33  C   UNL     1      -4.329  12.753  20.925  0.00  0.00    +0.000 A 
ENDBRANCH  26  27
ENDBRANCH   6  26
TORSDOF 6
ENDMDL
MODEL 2
REMARK VINA RESULT:      -8.2      2.392      4.131
REMARK  Name = 
REMARK  9 active torsions:
REMARK  status: ('A' for Active; 'I' for Inactive)
REMARK    1  A    between atoms: C_1  and  O_2
REMARK    2  A    between atoms: O_2  and  C_3
REMARK    3  A    between atoms: C_5  and  C_6
REMARK    4  A    between atoms: C_7  and  C_8
REMARK    5  A    between atoms: N_13  and  C_14
REMARK    6  A    between atoms: C_14  and  C_15
REMARK    7  A    between atoms: C_23  and  C_24
REMARK    8  A    between atoms: C_25  and  N_26
REMARK    9  A    between atoms: C_27  and  C_28
REMARK                            x       y       z     vdW  Elec       q    Type
REMARK                         _______ _______ _______ _____ _____    ______ ____
ROOT
ATOM      1  C   UNL     1       1.623   8.974  18.551  0.00  0.00    +0.000 C 
ATOM      2  O   UNL     1       1.859   9.346  17.406  0.00  0.00    +0.000 OA
ATOM      3  N   UNL     1       0.684   9.548  19.386  0.00  0.00    +0.000 N 
ATOM      4  C   UNL     1      -0.188  10.601  18.867  0.00  0.00    +0.000 C 
ATOM      5  C   UNL     1       0.050  11.947  19.573  0.00  0.00    +0.000 C 
ATOM      6  N   UNL     1      -0.020  11.839  21.052  0.00  0.00    +0.000 NA
ATOM      7  C   UNL     1       0.936  10.803  21.510  0.00  0.00    +0.000 C 
ATOM      8  C   UNL     1       0.692   9.417  20.859  0.00  0.00    +0.000 C 
ATOM      9  C   UNL     1      -0.590   8.755  21.361  0.00  0.00    +0.000 C 
ENDROOT
BRANCH   1  11
ATOM     10  C   UNL     1       2.686   6.767  18.288  0.00  0.00    +0.000 C 
ATOM     11  C   UNL     1       2.278   7.762  19.090  0.00  0.00    +0.000 C 
BRANCH  10  14
ATOM     12  C   UNL     1       2.695   3.288  19.712  0.00  0.00    +0.000 A 
ATOM     13  C   UNL     1       2.334   4.585  19.350  0.00  0.00    +0.000 A 
ATOM     14  C   UNL     1       3.259   5.508  18.806  0.00  0.00    +0.000 A 
ATOM     15  C   UNL     1       4.600   5.106  18.643  0.00  0.00    +0.000 A 
ATOM     16  C   UNL     1       4.947   3.776  18.954  0.00  0.00    +0.000 A 
ATOM     17  C   UNL     1       4.012   2.886  19.497  0.00  0.00    +0.000 A 
ATOM     18 CL   UNL     1       4.536   1.281  19.870  0.00  0.00    +0.000 Cl
BRANCH  15  19
ATOM     19  N   UNL     1       5.676   5.915  18.184  0.00  0.00    +0.000 N 
ATOM     20  C   UNL     1       6.907   6.086  18.790  0.00  0.00    +0.000 C 
ATOM     21  C   UNL     1       7.835   6.988  18.006  0.00  0.00    +0.000 C 
ATOM     22  O   UNL     1       7.297   5.564  19.829  0.00  0.00    +0.000 OA
ATOM     23  H   UNL     1       5.639   6.166  17.202  0.00  0.00    +0.000 HD
ENDBRANCH  15  19
BRANCH  12  25
ATOM     24  C   UNL     1       1.568   2.568  21.678  0.00  0.00    +0.000 C 
ATOM     25  O   UNL     1       1.829   2.394  20.288  0.00  0.00    +0.000 OA
ENDBRANCH  12  25
ENDBRANCH  10  14
ENDBRANCH   1  11
BRANCH   6  26
ATOM     26  C   UNL     1       0.295  13.125  21.702  0.00  0.00    +0.000 C 
BRANCH  26  27
ATOM     27  C   UNL     1      -0.804  13.605  22.630  0.00  0.00    +0.000 A 
ATOM     28  C   UNL     1      -1.884  12.766  22.947  0.00  0.00    +0.000 A 
ATOM     29  C   UNL     1      -2.939  13.241  23.728  0.00  0.00    +0.000 A 
ATOM     30  C   UNL     1      -2.907  14.547  24.201  0.00  0.00    +0.000 A 
ATOM     31  F   UNL     1      -3.932  15.011  24.927  0.00  0.00    +0.000 F 
ATOM     32  C   UNL     1      -1.832  15.383  23.924  0.00  0.00    +0.000 A 
ATOM     33  C   UNL     1      -0.778  14.913  23.141  0.00  0.00    +0.000 A 
ENDBRANCH  26  27
ENDBRANCH   6  26
TORSDOF 6
ENDMDL
MODEL 3
REMARK VINA RESULT:      -8.1      2.246      4.077
REMARK  Name = 
REMARK  9 active torsions:
REMARK  status: ('A' for Active; 'I' for Inactive)
REMARK    1  A    between atoms: C_1  and  O_2
REMARK    2  A    between atoms: O_2  and  C_3
REMARK    3  A    between atoms: C_5  and  C_6
REMARK    4  A    between atoms: C_7  and  C_8
REMARK    5  A    between atoms: N_13  and  C_14
REMARK    6  A    between atoms: C_14  and  C_15
REMARK    7  A    between atoms: C_23  and  C_24
REMARK    8  A    between atoms: C_25  and  N_26
REMARK    9  A    between atoms: C_27  and  C_28
REMARK                            x       y       z     vdW  Elec       q    Type
REMARK                         _______ _______ _______ _____ _____    ______ ____
ROOT
ATOM      1  C   UNL     1       1.673   9.131  18.416  0.00  0.00    +0.000 C 
ATOM      2  O   UNL     1       1.944   9.501  17.278  0.00  0.00    +0.000 OA
ATOM      3  N   UNL     1       0.726   9.722  19.230  0.00  0.00    +0.000 N 
ATOM      4  C   UNL     1      -0.111  10.794  18.695  0.00  0.00    +0.000 C 
ATOM      5  C   UNL     1       0.137  12.132  19.411  0.00  0.00    +0.000 C 
ATOM      6  N   UNL     1       0.030  12.020  20.888  0.00  0.00    +0.000 NA
ATOM      7  C   UNL     1       0.952  10.964  21.364  0.00  0.00    +0.000 C 
ATOM      8  C   UNL     1       0.696   9.585  20.703  0.00  0.00    +0.000 C 
ATOM      9  C   UNL     1      -0.612   8.948  21.172  0.00  0.00    +0.000 C 
ENDROOT
BRANCH   1  11
ATOM     10  C   UNL     1       2.866   6.989  18.172  0.00  0.00    +0.000 C 
ATOM     11  C   UNL     1       2.289   7.904  18.966  0.00  0.00    +0.000 C 
BRANCH  10  14
ATOM     12  C   UNL     1       2.814   3.406  19.307  0.00  0.00    +0.000 A 
ATOM     13  C   UNL     1       2.453   4.714  18.988  0.00  0.00    +0.000 A 
ATOM     14  C   UNL     1       3.408   5.714  18.684  0.00  0.00    +0.000 A 
ATOM     15  C   UNL     1       4.776   5.379  18.727  0.00  0.00    +0.000 A 
ATOM     16  C   UNL     1       5.133   4.041  18.992  0.00  0.00    +0.000 A 
ATOM     17  C   UNL     1       4.168   3.073  19.295  0.00  0.00    +0.000 A 
ATOM     18 CL   UNL     1       4.703   1.464  19.630  0.00  0.00    +0.000 Cl
BRANCH  15  19
ATOM     19  N   UNL     1       5.871   6.264  18.525  0.00  0.00    +0.000 N 
ATOM     20  C   UNL     1       6.481   6.574  17.324  0.00  0.00    +0.000 C 
ATOM     21  C   UNL     1       7.594   7.589  17.467  0.00  0.00    +0.000 C 
ATOM     22  O   UNL     1       6.183   6.147  16.213  0.00  0.00    +0.000 OA
ATOM     23  H   UNL     1       6.036   6.924  19.277  0.00  0.00    +0.000 HD
ENDBRANCH  15  19
BRANCH  12  25
ATOM     24  C   UNL     1       0.758   2.314  18.825  0.00  0.00    +0.000 C 
ATOM     25  O   UNL     1       1.910   2.434  19.654  0.00  0.00    +0.000 OA
ENDBRANCH  12  25
ENDBRANCH  10  14
ENDBRANCH   1  11
BRANCH   6  26
ATOM     26  C   UNL     1       0.355  13.298  21.550  0.00  0.00    +0.000 C 
BRANCH  26  27
ATOM     27  C   UNL     1      -0.709  13.744  22.532  0.00  0.00    +0.000 A 
ATOM     28  C   UNL     1      -0.557  14.941  23.251  0.00  0.00    +0.000 A 
ATOM     29  C   UNL     1      -1.493  15.305  24.220  0.00  0.00    +0.000 A 
ATOM     30  C   UNL     1      -2.585  14.481  24.461  0.00  0.00    +0.000 A 
ATOM     31  F   UNL     1      -3.468  14.816  25.410  0.00  0.00    +0.000 F 
ATOM     32  C   UNL     1      -2.771  13.307  23.738  0.00  0.00    +0.000 A 
ATOM     33  C   UNL     1      -1.835  12.940  22.771  0.00  0.00    +0.000 A 
ENDBRANCH  26  27
ENDBRANCH   6  26
TORSDOF 6
ENDMDL
MODEL 4
REMARK VINA RESULT:      -8.1      1.891      2.379
REMARK  Name = 
REMARK  9 active torsions:
REMARK  status: ('A' for Active; 'I' for Inactive)
REMARK    1  A    between atoms: C_1  and  O_2
REMARK    2  A    between atoms: O_2  and  C_3
REMARK    3  A    between atoms: C_5  and  C_6
REMARK    4  A    between atoms: C_7  and  C_8
REMARK    5  A    between atoms: N_13  and  C_14
REMARK    6  A    between atoms: C_14  and  C_15
REMARK    7  A    between atoms: C_23  and  C_24
REMARK    8  A    between atoms: C_25  and  N_26
REMARK    9  A    between atoms: C_27  and  C_28
REMARK                            x       y       z     vdW  Elec       q    Type
REMARK                         _______ _______ _______ _____ _____    ______ ____
ROOT
ATOM      1  C   UNL     1       0.850   9.387  18.316  0.00  0.00    +0.000 C 
ATOM      2  O   UNL     1       0.302   9.653  17.251  0.00  0.00    +0.000 OA
ATOM      3  N   UNL     1       0.295   9.609  19.562  0.00  0.00    +0.000 N 
ATOM      4  C   UNL     1      -1.082  10.089  19.658  0.00  0.00    +0.000 C 
ATOM      5  C   UNL     1      -1.162  11.491  20.286  0.00  0.00    +0.000 C 
ATOM      6  N   UNL     1      -0.445  11.579  21.584  0.00  0.00    +0.000 NA
ATOM      7  C   UNL     1       0.958  11.141  21.395  0.00  0.00    +0.000 C 
ATOM      8  C   UNL     1       1.078   9.710  20.813  0.00  0.00    +0.000 C 
ATOM      9  C   UNL     1       0.657   8.636  21.815  0.00  0.00    +0.000 C 
ENDROOT
BRANCH   1  11
ATOM     10  C   UNL     1       2.263   7.419  17.866  0.00  0.00    +0.000 C 
ATOM     11  C   UNL     1       2.145   8.673  18.329  0.00  0.00    +0.000 C 
BRANCH  10  14
ATOM     12  C   UNL     1       5.938   6.732  17.471  0.00  0.00    +0.000 A 
ATOM     13  C   UNL     1       4.648   7.242  17.326  0.00  0.00    +0.000 A 
ATOM     14  C   UNL     1       3.522   6.652  17.950  0.00  0.00    +0.000 A 
ATOM     15  C   UNL     1       3.711   5.494  18.730  0.00  0.00    +0.000 A 
ATOM     16  C   UNL     1       5.023   5.018  18.923  0.00  0.00    +0.000 A 
ATOM     17  C   UNL     1       6.118   5.617  18.288  0.00  0.00    +0.000 A 
ATOM     18 CL   UNL     1       7.688   4.949  18.565  0.00  0.00    +0.000 Cl
BRANCH  15  19
ATOM     19  N   UNL     1       2.695   4.729  19.367  0.00  0.00    +0.000 N 
ATOM     20  C   UNL     1       1.744   3.933  18.755  0.00  0.00    +0.000 C 
ATOM     21  C   UNL     1       0.840   3.225  19.739  0.00  0.00    +0.000 C 
ATOM     22  O   UNL     1       1.609   3.737  17.551  0.00  0.00    +0.000 OA
ATOM     23  H   UNL     1       2.853   4.535  20.350  0.00  0.00    +0.000 HD
ENDBRANCH  15  19
BRANCH  12  25
ATOM     24  C   UNL     1       7.733   8.289  17.524  0.00  0.00    +0.000 C 
ATOM     25  O   UNL     1       7.035   7.256  16.836  0.00  0.00    +0.000 OA
ENDBRANCH  12  25
ENDBRANCH  10  14
ENDBRANCH   1  11
BRANCH   6  26
ATOM     26  C   UNL     1      -0.468  12.953  22.119  0.00  0.00    +0.000 C 
BRANCH  26  27
ATOM     27  C   UNL     1      -1.801  13.326  22.737  0.00  0.00    +0.000 A 
ATOM     28  C   UNL     1      -2.602  12.347  23.346  0.00  0.00    +0.000 A 
ATOM     29  C   UNL     1      -3.868  12.676  23.834  0.00  0.00    +0.000 A 
ATOM     30  C   UNL     1      -4.325  13.983  23.724  0.00  0.00    +0.000 A 
ATOM     31  F   UNL     1      -5.551  14.293  24.167  0.00  0.00    +0.000 F 
ATOM     32  C   UNL     1      -3.535  14.974  23.153  0.00  0.00    +0.000 A 
ATOM     33  C   UNL     1      -2.271  14.648  22.663  0.00  0.00    +0.000 A 
ENDBRANCH  26  27
ENDBRANCH   6  26
TORSDOF 6
ENDMDL
MODEL 5
REMARK VINA RESULT:      -7.9      1.949      2.481
REMARK  Name = 
REMARK  9 active torsions:
REMARK  status: ('A' for Active; 'I' for Inactive)
REMARK    1  A    between atoms: C_1  and  O_2
REMARK    2  A    between atoms: O_2  and  C_3
REMARK    3  A    between atoms: C_5  and  C_6
REMARK    4  A    between atoms: C_7  and  C_8
REMARK    5  A    between atoms: N_13  and  C_14
REMARK    6  A    between atoms: C_14  and  C_15
REMARK    7  A    between atoms: C_23  and  C_24
REMARK    8  A    between atoms: C_25  and  N_26
REMARK    9  A    between atoms: C_27  and  C_28
REMARK                            x       y       z     vdW  Elec       q    Type
REMARK                         _______ _______ _______ _____ _____    ______ ____
ROOT
ATOM      1  C   UNL     1       1.349   9.267  18.266  0.00  0.00    +0.000 C 
ATOM      2  O   UNL     1       1.041   9.735  17.175  0.00  0.00    +0.000 OA
ATOM      3  N   UNL     1       0.578   9.366  19.408  0.00  0.00    +0.000 N 
ATOM      4  C   UNL     1      -0.753   9.964  19.326  0.00  0.00    +0.000 C 
ATOM      5  C   UNL     1      -0.853  11.264  20.142  0.00  0.00    +0.000 C 
ATOM      6  N   UNL     1      -0.400  11.095  21.546  0.00  0.00    +0.000 NA
ATOM      7  C   UNL     1       0.977  10.549  21.550  0.00  0.00    +0.000 C 
ATOM      8  C   UNL     1       1.106   9.209  20.781  0.00  0.00    +0.000 C 
ATOM      9  C   UNL     1       0.420   8.053  21.508  0.00  0.00    +0.000 C 
ENDROOT
BRANCH   1  11
ATOM     10  C   UNL     1       2.883   7.502  17.490  0.00  0.00    +0.000 C 
ATOM     11  C   UNL     1       2.562   8.431  18.403  0.00  0.00    +0.000 C 
BRANCH  10  14
ATOM     12  C   UNL     1       6.257   6.020  16.744  0.00  0.00    +0.000 A 
ATOM     13  C   UNL     1       5.031   6.677  16.643  0.00  0.00    +0.000 A 
ATOM     14  C   UNL     1       4.037   6.594  17.648  0.00  0.00    +0.000 A 
ATOM     15  C   UNL     1       4.290   5.800  18.784  0.00  0.00    +0.000 A 
ATOM     16  C   UNL     1       5.552   5.186  18.910  0.00  0.00    +0.000 A 
ATOM     17  C   UNL     1       6.514   5.280  17.897  0.00  0.00    +0.000 A 
ATOM     18 CL   UNL     1       8.025   4.474  18.130  0.00  0.00    +0.000 Cl
BRANCH  15  19
ATOM     19  N   UNL     1       3.387   5.541  19.852  0.00  0.00    +0.000 N 
ATOM     20  C   UNL     1       2.543   4.453  19.985  0.00  0.00    +0.000 C 
ATOM     21  C   UNL     1       1.746   4.474  21.271  0.00  0.00    +0.000 C 
ATOM     22  O   UNL     1       2.426   3.510  19.208  0.00  0.00    +0.000 OA
ATOM     23  H   UNL     1       3.576   6.048  20.709  0.00  0.00    +0.000 HD
ENDBRANCH  15  19
BRANCH  12  25
ATOM     24  C   UNL     1       7.090   5.069  14.731  0.00  0.00    +0.000 C 
ATOM     25  O   UNL     1       7.213   6.045  15.762  0.00  0.00    +0.000 OA
ENDBRANCH  12  25
ENDBRANCH  10  14
ENDBRANCH   1  11
BRANCH   6  26
ATOM     26  C   UNL     1      -0.429  12.375  22.278  0.00  0.00    +0.000 C 
BRANCH  26  27
ATOM     27  C   UNL     1      -1.827  12.793  22.688  0.00  0.00    +0.000 A 
ATOM     28  C   UNL     1      -2.349  14.030  22.277  0.00  0.00    +0.000 A 
ATOM     29  C   UNL     1      -3.600  14.452  22.728  0.00  0.00    +0.000 A 
ATOM     30  C   UNL     1      -4.333  13.634  23.578  0.00  0.00    +0.000 A 
ATOM     31  F   UNL     1      -5.521  14.051  24.034  0.00  0.00    +0.000 F 
ATOM     32  C   UNL     1      -3.848  12.392  23.972  0.00  0.00    +0.000 A 
ATOM     33  C   UNL     1      -2.597  11.968  23.524  0.00  0.00    +0.000 A 
ENDBRANCH  26  27
ENDBRANCH   6  26
TORSDOF 6
ENDMDL
MODEL 6
REMARK VINA RESULT:      -7.8      2.238      3.935
REMARK  Name = 
REMARK  9 active torsions:
REMARK  status: ('A' for Active; 'I' for Inactive)
REMARK    1  A    between atoms: C_1  and  O_2
REMARK    2  A    between atoms: O_2  and  C_3
REMARK    3  A    between atoms: C_5  and  C_6
REMARK    4  A    between atoms: C_7  and  C_8
REMARK    5  A    between atoms: N_13  and  C_14
REMARK    6  A    between atoms: C_14  and  C_15
REMARK    7  A    between atoms: C_23  and  C_24
REMARK    8  A    between atoms: C_25  and  N_26
REMARK    9  A    between atoms: C_27  and  C_28
REMARK                            x       y       z     vdW  Elec       q    Type
REMARK                         _______ _______ _______ _____ _____    ______ ____
ROOT
ATOM      1  C   UNL     1       1.706   8.935  18.391  0.00  0.00    +0.000 C 
ATOM      2  O   UNL     1       1.900   9.427  17.284  0.00  0.00    +0.000 OA
ATOM      3  N   UNL     1       0.718   9.340  19.268  0.00  0.00    +0.000 N 
ATOM      4  C   UNL     1      -0.253  10.345  18.839  0.00  0.00    +0.000 C 
ATOM      5  C   UNL     1      -0.143  11.641  19.662  0.00  0.00    +0.000 C 
ATOM      6  N   UNL     1      -0.197  11.396  21.126  0.00  0.00    +0.000 NA
ATOM      7  C   UNL     1       0.855  10.421  21.495  0.00  0.00    +0.000 C 
ATOM      8  C   UNL     1       0.744   9.081  20.724  0.00  0.00    +0.000 C 
ATOM      9  C   UNL     1      -0.467   8.257  21.159  0.00  0.00    +0.000 C 
ENDROOT
BRANCH   1  11
ATOM     10  C   UNL     1       2.425   6.591  18.147  0.00  0.00    +0.000 C 
ATOM     11  C   UNL     1       2.475   7.748  18.824  0.00  0.00    +0.000 C 
BRANCH  10  14
ATOM     12  C   UNL     1       3.119   3.624  20.348  0.00  0.00    +0.000 A 
ATOM     13  C   UNL     1       2.699   4.861  19.863  0.00  0.00    +0.000 A 
ATOM     14  C   UNL     1       3.111   5.367  18.607  0.00  0.00    +0.000 A 
ATOM     15  C   UNL     1       3.998   4.597  17.826  0.00  0.00    +0.000 A 
ATOM     16  C   UNL     1       4.373   3.322  18.294  0.00  0.00    +0.000 A 
ATOM     17  C   UNL     1       3.955   2.850  19.544  0.00  0.00    +0.000 A 
ATOM     18 CL   UNL     1       4.485   1.282  20.043  0.00  0.00    +0.000 Cl
BRANCH  15  19
ATOM     19  N   UNL     1       4.573   4.974  16.582  0.00  0.00    +0.000 N 
ATOM     20  C   UNL     1       5.919   5.065  16.279  0.00  0.00    +0.000 C 
ATOM     21  C   UNL     1       6.180   5.456  14.841  0.00  0.00    +0.000 C 
ATOM     22  O   UNL     1       6.862   4.829  17.028  0.00  0.00    +0.000 OA
ATOM     23  H   UNL     1       3.954   4.903  15.781  0.00  0.00    +0.000 HD
ENDBRANCH  15  19
BRANCH  12  25
ATOM     24  C   UNL     1       1.458   2.606  21.711  0.00  0.00    +0.000 C 
ATOM     25  O   UNL     1       2.774   3.137  21.583  0.00  0.00    +0.000 OA
ENDBRANCH  12  25
ENDBRANCH  10  14
ENDBRANCH   1  11
BRANCH   6  26
ATOM     26  C   UNL     1      -0.005  12.644  21.887  0.00  0.00    +0.000 C 
BRANCH  26  27
ATOM     27  C   UNL     1      -1.256  13.090  22.620  0.00  0.00    +0.000 A 
ATOM     28  C   UNL     1      -2.199  12.146  23.057  0.00  0.00    +0.000 A 
ATOM     29  C   UNL     1      -3.391  12.564  23.650  0.00  0.00    +0.000 A 
ATOM     30  C   UNL     1      -3.633  13.921  23.819  0.00  0.00    +0.000 A 
ATOM     31  F   UNL     1      -4.789  14.323  24.363  0.00  0.00    +0.000 F 
ATOM     32  C   UNL     1      -2.698  14.871  23.422  0.00  0.00    +0.000 A 
ATOM     33  C   UNL     1      -1.507  14.456  22.826  0.00  0.00    +0.000 A 
ENDBRANCH  26  27
ENDBRANCH   6  26
TORSDOF 6
ENDMDL
MODEL 7
REMARK VINA RESULT:      -7.8      2.235      3.043
REMARK  Name = 
REMARK  9 active torsions:
REMARK  status: ('A' for Active; 'I' for Inactive)
REMARK    1  A    between atoms: C_1  and  O_2
REMARK    2  A    between atoms: O_2  and  C_3
REMARK    3  A    between atoms: C_5  and  C_6
REMARK    4  A    between atoms: C_7  and  C_8
REMARK    5  A    between atoms: N_13  and  C_14
REMARK    6  A    between atoms: C_14  and  C_15
REMARK    7  A    between atoms: C_23  and  C_24
REMARK    8  A    between atoms: C_25  and  N_26
REMARK    9  A    between atoms: C_27  and  C_28
REMARK                            x       y       z     vdW  Elec       q    Type
REMARK                         _______ _______ _______ _____ _____    ______ ____
ROOT
ATOM      1  C   UNL     1       1.503   8.384  20.270  0.00  0.00    +0.000 C 
ATOM      2  O   UNL     1       1.349   7.774  21.323  0.00  0.00    +0.000 OA
ATOM      3  N   UNL     1       1.192   9.717  20.083  0.00  0.00    +0.000 N 
ATOM      4  C   UNL     1       0.751  10.518  21.224  0.00  0.00    +0.000 C 
ATOM      5  C   UNL     1      -0.697  11.010  21.058  0.00  0.00    +0.000 C 
ATOM      6  N   UNL     1      -0.921  11.705  19.765  0.00  0.00    +0.000 NA
ATOM      7  C   UNL     1      -0.515  10.811  18.655  0.00  0.00    +0.000 C 
ATOM      8  C   UNL     1       0.957  10.336  18.760  0.00  0.00    +0.000 C 
ATOM      9  C   UNL     1       1.953  11.465  18.494  0.00  0.00    +0.000 C 
ENDROOT
BRANCH   1  11
ATOM     10  C   UNL     1       2.782   6.545  19.244  0.00  0.00    +0.000 C 
ATOM     11  C   UNL     1       2.170   7.733  19.122  0.00  0.00    +0.000 C 
BRANCH  10  14
ATOM     12  C   UNL     1       5.598   6.050  16.804  0.00  0.00    +0.000 A 
ATOM     13  C   UNL     1       4.692   6.602  17.708  0.00  0.00    +0.000 A 
ATOM     14  C   UNL     1       3.531   5.915  18.139  0.00  0.00    +0.000 A 
ATOM     15  C   UNL     1       3.273   4.631  17.618  0.00  0.00    +0.000 A 
ATOM     16  C   UNL     1       4.222   4.053  16.751  0.00  0.00    +0.000 A 
ATOM     17  C   UNL     1       5.358   4.758  16.336  0.00  0.00    +0.000 A 
ATOM     18 CL   UNL     1       6.454   3.976  15.253  0.00  0.00    +0.000 Cl
BRANCH  15  19
ATOM     19  N   UNL     1       2.129   3.828  17.878  0.00  0.00    +0.000 N 
ATOM     20  C   UNL     1       1.981   2.887  18.881  0.00  0.00    +0.000 C 
ATOM     21  C   UNL     1       0.612   2.243  18.894  0.00  0.00    +0.000 C 
ATOM     22  O   UNL     1       2.809   2.581  19.734  0.00  0.00    +0.000 OA
ATOM     23  H   UNL     1       1.264   4.165  17.471  0.00  0.00    +0.000 HD
ENDBRANCH  15  19
BRANCH  12  25
ATOM     24  C   UNL     1       7.530   7.338  17.309  0.00  0.00    +0.000 C 
ATOM     25  O   UNL     1       6.700   6.716  16.333  0.00  0.00    +0.000 OA
ENDBRANCH  12  25
ENDBRANCH  10  14
ENDBRANCH   1  11
BRANCH   6  26
ATOM     26  C   UNL     1      -2.335  12.090  19.599  0.00  0.00    +0.000 C 
BRANCH  26  27
ATOM     27  C   UNL     1      -2.916  11.656  18.267  0.00  0.00    +0.000 A 
ATOM     28  C   UNL     1      -4.253  11.240  18.176  0.00  0.00    +0.000 A 
ATOM     29  C   UNL     1      -4.760  10.756  16.969  0.00  0.00    +0.000 A 
ATOM     30  C   UNL     1      -3.935  10.700  15.853  0.00  0.00    +0.000 A 
ATOM     31  F   UNL     1      -4.413  10.209  14.703  0.00  0.00    +0.000 F 
ATOM     32  C   UNL     1      -2.616  11.136  15.914  0.00  0.00    +0.000 A 
ATOM     33  C   UNL     1      -2.106  11.618  17.120  0.00  0.00    +0.000 A 
ENDBRANCH  26  27
ENDBRANCH   6  26
TORSDOF 6
ENDMDL
MODEL 8
REMARK VINA RESULT:      -7.8      0.788      1.163
REMARK  Name = 
REMARK  9 active torsions:
REMARK  status: ('A' for Active; 'I' for Inactive)
REMARK    1  A    between atoms: C_1  and  O_2
REMARK    2  A    between atoms: O_2  and  C_3
REMARK    3  A    between atoms: C_5  and  C_6
REMARK    4  A    between atoms: C_7  and  C_8
REMARK    5  A    between atoms: N_13  and  C_14
REMARK    6  A    between atoms: C_14  and  C_15
REMARK    7  A    between atoms: C_23  and  C_24
REMARK    8  A    between atoms: C_25  and  N_26
REMARK    9  A    between atoms: C_27  and  C_28
REMARK                            x       y       z     vdW  Elec       q    Type
REMARK                         _______ _______ _______ _____ _____    ______ ____
ROOT
ATOM      1  C   UNL     1       1.394   8.125  20.345  0.00  0.00    +0.000 C 
ATOM      2  O   UNL     1       1.167   7.574  21.417  0.00  0.00    +0.000 OA
ATOM      3  N   UNL     1       1.129   9.453  20.072  0.00  0.00    +0.000 N 
ATOM      4  C   UNL     1       0.649  10.323  21.144  0.00  0.00    +0.000 C 
ATOM      5  C   UNL     1      -0.775  10.840  20.874  0.00  0.00    +0.000 C 
ATOM      6  N   UNL     1      -0.910  11.470  19.536  0.00  0.00    +0.000 NA
ATOM      7  C   UNL     1      -0.469  10.510  18.498  0.00  0.00    +0.000 C 
ATOM      8  C   UNL     1       0.982  10.007  18.709  0.00  0.00    +0.000 C 
ATOM      9  C   UNL     1       2.021  11.096  18.441  0.00  0.00    +0.000 C 
ENDROOT
BRANCH   1  11
ATOM     10  C   UNL     1       3.109   6.549  19.538  0.00  0.00    +0.000 C 
ATOM     11  C   UNL     1       2.105   7.398  19.270  0.00  0.00    +0.000 C 
BRANCH  10  14
ATOM     12  C   UNL     1       5.857   6.111  17.011  0.00  0.00    +0.000 A 
ATOM     13  C   UNL     1       4.920   6.654  17.889  0.00  0.00    +0.000 A 
ATOM     14  C   UNL     1       3.893   5.880  18.481  0.00  0.00    +0.000 A 
ATOM     15  C   UNL     1       3.803   4.512  18.154  0.00  0.00    +0.000 A 
ATOM     16  C   UNL     1       4.787   3.955  17.313  0.00  0.00    +0.000 A 
ATOM     17  C   UNL     1       5.789   4.746  16.736  0.00  0.00    +0.000 A 
ATOM     18 CL   UNL     1       6.938   3.979  15.699  0.00  0.00    +0.000 Cl
BRANCH  15  19
ATOM     19  N   UNL     1       2.802   3.602  18.591  0.00  0.00    +0.000 N 
ATOM     20  C   UNL     1       1.489   3.538  18.160  0.00  0.00    +0.000 C 
ATOM     21  C   UNL     1       0.706   2.417  18.807  0.00  0.00    +0.000 C 
ATOM     22  O   UNL     1       0.953   4.251  17.317  0.00  0.00    +0.000 OA
ATOM     23  H   UNL     1       3.148   2.765  19.047  0.00  0.00    +0.000 HD
ENDBRANCH  15  19
BRANCH  12  25
ATOM     24  C   UNL     1       7.571   7.746  17.209  0.00  0.00    +0.000 C 
ATOM     25  O   UNL     1       6.827   6.851  16.387  0.00  0.00    +0.000 OA
ENDBRANCH  12  25
ENDBRANCH  10  14
ENDBRANCH   1  11
BRANCH   6  26
ATOM     26  C   UNL     1      -2.302  11.880  19.273  0.00  0.00    +0.000 C 
BRANCH  26  27
ATOM     27  C   UNL     1      -2.799  12.944  20.231  0.00  0.00    +0.000 A 
ATOM     28  C   UNL     1      -4.088  12.860  20.782  0.00  0.00    +0.000 A 
ATOM     29  C   UNL     1      -4.576  13.886  21.593  0.00  0.00    +0.000 A 
ATOM     30  C   UNL     1      -3.773  14.987  21.861  0.00  0.00    +0.000 A 
ATOM     31  F   UNL     1      -4.251  15.985  22.616  0.00  0.00    +0.000 F 
ATOM     32  C   UNL     1      -2.483  15.075  21.351  0.00  0.00    +0.000 A 
ATOM     33  C   UNL     1      -1.993  14.053  20.539  0.00  0.00    +0.000 A 
ENDBRANCH  26  27
ENDBRANCH   6  26
TORSDOF 6
ENDMDL
MODEL 9
REMARK VINA RESULT:      -7.8      3.328      5.086
REMARK  Name = 
REMARK  9 active torsions:
REMARK  status: ('A' for Active; 'I' for Inactive)
REMARK    1  A    between atoms: C_1  and  O_2
REMARK    2  A    between atoms: O_2  and  C_3
REMARK    3  A    between atoms: C_5  and  C_6
REMARK    4  A    between atoms: C_7  and  C_8
REMARK    5  A    between atoms: N_13  and  C_14
REMARK    6  A    between atoms: C_14  and  C_15
REMARK    7  A    between atoms: C_23  and  C_24
REMARK    8  A    between atoms: C_25  and  N_26
REMARK    9  A    between atoms: C_27  and  C_28
REMARK                            x       y       z     vdW  Elec       q    Type
REMARK                         _______ _______ _______ _____ _____    ______ ____
ROOT
ATOM      1  C   UNL     1       1.659   8.955  18.396  0.00  0.00    +0.000 C 
ATOM      2  O   UNL     1       1.873   9.243  17.223  0.00  0.00    +0.000 OA
ATOM      3  N   UNL     1       0.767   9.618  19.216  0.00  0.00    +0.000 N 
ATOM      4  C   UNL     1      -0.082  10.667  18.654  0.00  0.00    +0.000 C 
ATOM      5  C   UNL     1       0.226  12.046  19.263  0.00  0.00    +0.000 C 
ATOM      6  N   UNL     1       0.197  12.036  20.748  0.00  0.00    +0.000 NA
ATOM      7  C   UNL     1       1.127  10.996  21.246  0.00  0.00    +0.000 C 
ATOM      8  C   UNL     1       0.814   9.581  20.694  0.00  0.00    +0.000 C 
ATOM      9  C   UNL     1      -0.476   9.003  21.274  0.00  0.00    +0.000 C 
ENDROOT
BRANCH   1  11
ATOM     10  C   UNL     1       2.782   6.768  18.236  0.00  0.00    +0.000 C 
ATOM     11  C   UNL     1       2.284   7.756  18.995  0.00  0.00    +0.000 C 
BRANCH  10  14
ATOM     12  C   UNL     1       2.722   3.319  19.730  0.00  0.00    +0.000 A 
ATOM     13  C   UNL     1       2.379   4.608  19.324  0.00  0.00    +0.000 A 
ATOM     14  C   UNL     1       3.329   5.521  18.806  0.00  0.00    +0.000 A 
ATOM     15  C   UNL     1       4.676   5.117  18.717  0.00  0.00    +0.000 A 
ATOM     16  C   UNL     1       5.008   3.794  19.072  0.00  0.00    +0.000 A 
ATOM     17  C   UNL     1       4.048   2.914  19.588  0.00  0.00    +0.000 A 
ATOM     18 CL   UNL     1       4.552   1.318  20.018  0.00  0.00    +0.000 Cl
BRANCH  15  19
ATOM     19  N   UNL     1       5.773   5.917  18.294  0.00  0.00    +0.000 N 
ATOM     20  C   UNL     1       6.998   6.050  18.922  0.00  0.00    +0.000 C 
ATOM     21  C   UNL     1       7.953   6.955  18.174  0.00  0.00    +0.000 C 
ATOM     22  O   UNL     1       7.364   5.495  19.953  0.00  0.00    +0.000 OA
ATOM     23  H   UNL     1       5.755   6.194  17.319  0.00  0.00    +0.000 HD
ENDBRANCH  15  19
BRANCH  12  25
ATOM     24  C   UNL     1       1.535   2.612  21.664  0.00  0.00    +0.000 C 
ATOM     25  O   UNL     1       1.829   2.436  20.281  0.00  0.00    +0.000 OA
ENDBRANCH  12  25
ENDBRANCH  10  14
ENDBRANCH   1  11
BRANCH   6  26
ATOM     26  C   UNL     1       0.577  13.348  21.303  0.00  0.00    +0.000 C 
BRANCH  26  27
ATOM     27  C   UNL     1       1.354  14.205  20.322  0.00  0.00    +0.000 A 
ATOM     28  C   UNL     1       0.717  15.244  19.625  0.00  0.00    +0.000 A 
ATOM     29  C   UNL     1       1.410  15.972  18.657  0.00  0.00    +0.000 A 
ATOM     30  C   UNL     1       2.741  15.670  18.396  0.00  0.00    +0.000 A 
ATOM     31  F   UNL     1       3.398  16.349  17.447  0.00  0.00    +0.000 F 
ATOM     32  C   UNL     1       3.399  14.665  19.096  0.00  0.00    +0.000 A 
ATOM     33  C   UNL     1       2.707  13.934  20.062  0.00  0.00    +0.000 A 
ENDBRANCH  26  27
ENDBRANCH   6  26
TORSDOF 6
ENDMDL
