MODEL 1
REMARK VINA RESULT:      -8.9      0.000      0.000
REMARK  Name = 
REMARK  6 active torsions:
REMARK  status: ('A' for Active; 'I' for Inactive)
REMARK    1  A    between atoms: C_1  and  C_2
REMARK    2  A    between atoms: C_6  and  C_7
REMARK    3  A    between atoms: C_10  and  C_11
REMARK    4  A    between atoms: C_13  and  C_14
REMARK    5  A    between atoms: C_14  and  O_16
REMARK    6  A    between atoms: C_19  and  C_20
REMARK                            x       y       z     vdW  Elec       q    Type
REMARK                         _______ _______ _______ _____ _____    ______ ____
ROOT
ATOM      1  C   UNL     1       3.115   6.985  18.450  0.00  0.00    +0.000 A 
ATOM      2  C   UNL     1       3.324   5.655  18.894  0.00  0.00    +0.000 A 
ATOM      3  C   UNL     1       4.009   4.729  18.116  0.00  0.00    +0.000 A 
ATOM      4  C   UNL     1       4.468   5.151  16.883  0.00  0.00    +0.000 A 
ATOM      5  N   UNL     1       4.985   4.356  15.915  0.00  0.00    +0.000 NA
ATOM      6  C   UNL     1       5.861   5.138  15.345  0.00  0.00    +0.000 A 
ATOM      7  C   UNL     1       7.114   4.530  14.841  0.00  0.00    +0.000 C 
ATOM      8  N   UNL     1       5.515   6.474  15.556  0.00  0.00    +0.000 N 
ATOM      9  C   UNL     1       4.547   6.508  16.574  0.00  0.00    +0.000 A 
ATOM     10  C   UNL     1       3.836   7.454  17.308  0.00  0.00    +0.000 A 
ATOM     11  H   UNL     1       6.010   7.286  15.192  0.00  0.00    +0.000 HD
ENDROOT
BRANCH   1  15
ATOM     12  C   UNL     1       0.337   9.618  20.571  0.00  0.00    +0.000 A 
ATOM     13  C   UNL     1       0.870   8.470  21.184  0.00  0.00    +0.000 A 
ATOM     14  C   UNL     1       1.750   7.601  20.509  0.00  0.00    +0.000 A 
ATOM     15  C   UNL     1       2.135   7.834  19.185  0.00  0.00    +0.000 A 
ATOM     16  C   UNL     1       1.581   8.974  18.567  0.00  0.00    +0.000 A 
ATOM     17  C   UNL     1       0.716   9.845  19.243  0.00  0.00    +0.000 A 
BRANCH  12  23
ATOM     18  C   UNL     1      -2.642  13.681  20.509  0.00  0.00    +0.000 C 
ATOM     19  C   UNL     1      -2.012  12.555  21.275  0.00  0.00    +0.000 A 
ATOM     20  C   UNL     1      -2.226  12.408  22.644  0.00  0.00    +0.000 A 
ATOM     21  C   UNL     1      -1.626  11.361  23.337  0.00  0.00    +0.000 A 
ATOM     22  C   UNL     1      -0.802  10.452  22.664  0.00  0.00    +0.000 A 
ATOM     23  C   UNL     1      -0.558  10.564  21.285  0.00  0.00    +0.000 A 
ATOM     24  C   UNL     1      -1.186  11.633  20.610  0.00  0.00    +0.000 A 
ENDBRANCH  12  23
ENDBRANCH   1  15
BRANCH   3  25
ATOM     25  C   UNL     1       4.463   3.403  18.593  0.00  0.00    +0.000 C 
ATOM     26  O   UNL     1       5.166   3.274  19.581  0.00  0.00    +0.000 OA
BRANCH  25  27
ATOM     27  O   UNL     1       4.091   2.371  17.800  0.00  0.00    +0.000 OA
ATOM     28  H   UNL     1       3.815   2.661  16.896  0.00  0.00    +0.000 HD
ENDBRANCH  25  27
ENDBRANCH   3  25
TORSDOF 4
ENDMDL
MODEL 2
REMARK VINA RESULT:      -8.8      2.033      3.218
REMARK  Name = 
REMARK  6 active torsions:
REMARK  status: ('A' for Active; 'I' for Inactive)
REMARK    1  A    between atoms: C_1  and  C_2
REMARK    2  A    between atoms: C_6  and  C_7
REMARK    3  A    between atoms: C_10  and  C_11
REMARK    4  A    between atoms: C_13  and  C_14
REMARK    5  A    between atoms: C_14  and  O_16
REMARK    6  A    between atoms: C_19  and  C_20
REMARK                            x       y       z     vdW  Elec       q    Type
REMARK                         _______ _______ _______ _____ _____    ______ ____
ROOT
ATOM      1  C   UNL     1       1.492   7.571  20.437  0.00  0.00    +0.000 A 
ATOM      2  C   UNL     1       1.262   6.307  21.037  0.00  0.00    +0.000 A 
ATOM      3  C   UNL     1       1.617   5.125  20.397  0.00  0.00    +0.000 A 
ATOM      4  C   UNL     1       2.190   5.227  19.145  0.00  0.00    +0.000 A 
ATOM      5  N   UNL     1       2.429   4.198  18.296  0.00  0.00    +0.000 NA
ATOM      6  C   UNL     1       3.510   4.587  17.678  0.00  0.00    +0.000 A 
ATOM      7  C   UNL     1       4.505   3.556  17.298  0.00  0.00    +0.000 C 
ATOM      8  N   UNL     1       3.611   5.978  17.721  0.00  0.00    +0.000 N 
ATOM      9  C   UNL     1       2.702   6.441  18.687  0.00  0.00    +0.000 A 
ATOM     10  C   UNL     1       2.329   7.645  19.280  0.00  0.00    +0.000 A 
ATOM     11  H   UNL     1       4.341   6.540  17.289  0.00  0.00    +0.000 HD
ENDROOT
BRANCH   1  15
ATOM     12  C   UNL     1      -0.578  10.987  22.223  0.00  0.00    +0.000 A 
ATOM     13  C   UNL     1      -0.108  11.027  20.898  0.00  0.00    +0.000 A 
ATOM     14  C   UNL     1       0.578   9.944  20.314  0.00  0.00    +0.000 A 
ATOM     15  C   UNL     1       0.834   8.769  21.029  0.00  0.00    +0.000 A 
ATOM     16  C   UNL     1       0.380   8.742  22.364  0.00  0.00    +0.000 A 
ATOM     17  C   UNL     1      -0.313   9.815  22.940  0.00  0.00    +0.000 A 
BRANCH  12  23
ATOM     18  C   UNL     1      -4.759  12.705  24.451  0.00  0.00    +0.000 C 
ATOM     19  C   UNL     1      -3.380  12.965  23.919  0.00  0.00    +0.000 A 
ATOM     20  C   UNL     1      -2.822  14.242  23.962  0.00  0.00    +0.000 A 
ATOM     21  C   UNL     1      -1.544  14.464  23.457  0.00  0.00    +0.000 A 
ATOM     22  C   UNL     1      -0.814  13.408  22.900  0.00  0.00    +0.000 A 
ATOM     23  C   UNL     1      -1.338  12.106  22.836  0.00  0.00    +0.000 A 
ATOM     24  C   UNL     1      -2.634  11.913  23.362  0.00  0.00    +0.000 A 
ENDBRANCH  12  23
ENDBRANCH   1  15
BRANCH   3  25
ATOM     25  C   UNL     1       1.620   3.790  21.040  0.00  0.00    +0.000 C 
ATOM     26  O   UNL     1       2.356   3.521  21.974  0.00  0.00    +0.000 OA
BRANCH  25  27
ATOM     27  O   UNL     1       0.795   2.891  20.455  0.00  0.00    +0.000 OA
ATOM     28  H   UNL     1      -0.117   3.245  20.307  0.00  0.00    +0.000 HD
ENDBRANCH  25  27
ENDBRANCH   3  25
TORSDOF 4
ENDMDL
MODEL 3
REMARK VINA RESULT:      -8.7      0.518      1.152
REMARK  Name = 
REMARK  6 active torsions:
REMARK  status: ('A' for Active; 'I' for Inactive)
REMARK    1  A    between atoms: C_1  and  C_2
REMARK    2  A    between atoms: C_6  and  C_7
REMARK    3  A    between atoms: C_10  and  C_11
REMARK    4  A    between atoms: C_13  and  C_14
REMARK    5  A    between atoms: C_14  and  O_16
REMARK    6  A    between atoms: C_19  and  C_20
REMARK                            x       y       z     vdW  Elec       q    Type
REMARK                         _______ _______ _______ _____ _____    ______ ____
ROOT
ATOM      1  C   UNL     1       2.999   7.087  18.607  0.00  0.00    +0.000 A 
ATOM      2  C   UNL     1       3.054   5.764  19.110  0.00  0.00    +0.000 A 
ATOM      3  C   UNL     1       3.650   4.736  18.387  0.00  0.00    +0.000 A 
ATOM      4  C   UNL     1       4.176   5.052  17.150  0.00  0.00    +0.000 A 
ATOM      5  N   UNL     1       4.624   4.165  16.228  0.00  0.00    +0.000 NA
ATOM      6  C   UNL     1       5.590   4.823  15.648  0.00  0.00    +0.000 A 
ATOM      7  C   UNL     1       6.780   4.063  15.200  0.00  0.00    +0.000 C 
ATOM      8  N   UNL     1       5.387   6.197  15.795  0.00  0.00    +0.000 N 
ATOM      9  C   UNL     1       4.408   6.378  16.787  0.00  0.00    +0.000 A 
ATOM     10  C   UNL     1       3.789   7.427  17.465  0.00  0.00    +0.000 A 
ATOM     11  H   UNL     1       5.974   6.934  15.410  0.00  0.00    +0.000 HD
ENDROOT
BRANCH   1  15
ATOM     12  C   UNL     1       0.258   9.832  20.632  0.00  0.00    +0.000 A 
ATOM     13  C   UNL     1       0.664  10.050  19.303  0.00  0.00    +0.000 A 
ATOM     14  C   UNL     1       1.561   9.188  18.642  0.00  0.00    +0.000 A 
ATOM     15  C   UNL     1       2.103   8.068  19.282  0.00  0.00    +0.000 A 
ATOM     16  C   UNL     1       1.710   7.865  20.621  0.00  0.00    +0.000 A 
ATOM     17  C   UNL     1       0.808   8.716  21.273  0.00  0.00    +0.000 A 
BRANCH  12  23
ATOM     18  C   UNL     1      -3.158  13.533  20.458  0.00  0.00    +0.000 C 
ATOM     19  C   UNL     1      -2.386  12.526  21.259  0.00  0.00    +0.000 A 
ATOM     20  C   UNL     1      -2.547  12.430  22.641  0.00  0.00    +0.000 A 
ATOM     21  C   UNL     1      -1.816  11.494  23.366  0.00  0.00    +0.000 A 
ATOM     22  C   UNL     1      -0.913  10.647  22.715  0.00  0.00    +0.000 A 
ATOM     23  C   UNL     1      -0.718  10.711  21.325  0.00  0.00    +0.000 A 
ATOM     24  C   UNL     1      -1.479  11.667  20.617  0.00  0.00    +0.000 A 
ENDBRANCH  12  23
ENDBRANCH   1  15
BRANCH   3  25
ATOM     25  C   UNL     1       3.949   3.391  18.929  0.00  0.00    +0.000 C 
ATOM     26  O   UNL     1       3.070   2.626  19.290  0.00  0.00    +0.000 OA
BRANCH  25  27
ATOM     27  O   UNL     1       5.270   3.124  19.053  0.00  0.00    +0.000 OA
ATOM     28  H   UNL     1       5.749   3.145  18.188  0.00  0.00    +0.000 HD
ENDBRANCH  25  27
ENDBRANCH   3  25
TORSDOF 4
ENDMDL
MODEL 4
REMARK VINA RESULT:      -8.6      4.073      9.237
REMARK  Name = 
REMARK  6 active torsions:
REMARK  status: ('A' for Active; 'I' for Inactive)
REMARK    1  A    between atoms: C_1  and  C_2
REMARK    2  A    between atoms: C_6  and  C_7
REMARK    3  A    between atoms: C_10  and  C_11
REMARK    4  A    between atoms: C_13  and  C_14
REMARK    5  A    between atoms: C_14  and  O_16
REMARK    6  A    between atoms: C_19  and  C_20
REMARK                            x       y       z     vdW  Elec       q    Type
REMARK                         _______ _______ _______ _____ _____    ______ ____
ROOT
ATOM      1  C   UNL     1       0.866   9.183  19.598  0.00  0.00    +0.000 A 
ATOM      2  C   UNL     1       0.755   9.139  21.010  0.00  0.00    +0.000 A 
ATOM      3  C   UNL     1       0.016  10.084  21.711  0.00  0.00    +0.000 A 
ATOM      4  C   UNL     1      -0.598  11.082  20.978  0.00  0.00    +0.000 A 
ATOM      5  N   UNL     1      -1.198  12.185  21.487  0.00  0.00    +0.000 NA
ATOM      6  C   UNL     1      -2.159  12.403  20.633  0.00  0.00    +0.000 A 
ATOM      7  C   UNL     1      -3.442  12.936  21.148  0.00  0.00    +0.000 C 
ATOM      8  N   UNL     1      -1.837  11.839  19.397  0.00  0.00    +0.000 N 
ATOM      9  C   UNL     1      -0.758  10.962  19.598  0.00  0.00    +0.000 A 
ATOM     10  C   UNL     1       0.001  10.054  18.864  0.00  0.00    +0.000 A 
ATOM     11  H   UNL     1      -2.398  11.892  18.549  0.00  0.00    +0.000 HD
ENDROOT
BRANCH   1  15
ATOM     12  C   UNL     1       3.986   6.689  17.810  0.00  0.00    +0.000 A 
ATOM     13  C   UNL     1       3.538   7.865  17.182  0.00  0.00    +0.000 A 
ATOM     14  C   UNL     1       2.521   8.669  17.733  0.00  0.00    +0.000 A 
ATOM     15  C   UNL     1       1.896   8.332  18.939  0.00  0.00    +0.000 A 
ATOM     16  C   UNL     1       2.332   7.141  19.555  0.00  0.00    +0.000 A 
ATOM     17  C   UNL     1       3.353   6.349  19.012  0.00  0.00    +0.000 A 
BRANCH  12  23
ATOM     18  C   UNL     1       5.958   4.049  13.999  0.00  0.00    +0.000 C 
ATOM     19  C   UNL     1       6.060   4.552  15.408  0.00  0.00    +0.000 A 
ATOM     20  C   UNL     1       7.149   4.221  16.213  0.00  0.00    +0.000 A 
ATOM     21  C   UNL     1       7.221   4.693  17.521  0.00  0.00    +0.000 A 
ATOM     22  C   UNL     1       6.200   5.499  18.036  0.00  0.00    +0.000 A 
ATOM     23  C   UNL     1       5.085   5.856  17.260  0.00  0.00    +0.000 A 
ATOM     24  C   UNL     1       5.044   5.366  15.937  0.00  0.00    +0.000 A 
ENDBRANCH  12  23
ENDBRANCH   1  15
BRANCH   3  25
ATOM     25  C   UNL     1      -0.335   9.982  23.146  0.00  0.00    +0.000 C 
ATOM     26  O   UNL     1       0.477   9.646  23.991  0.00  0.00    +0.000 OA
BRANCH  25  27
ATOM     27  O   UNL     1      -1.639  10.222  23.417  0.00  0.00    +0.000 OA
ATOM     28  H   UNL     1      -1.897  11.164  23.263  0.00  0.00    +0.000 HD
ENDBRANCH  25  27
ENDBRANCH   3  25
TORSDOF 4
ENDMDL
MODEL 5
REMARK VINA RESULT:      -8.5      2.091      3.191
REMARK  Name = 
REMARK  6 active torsions:
REMARK  status: ('A' for Active; 'I' for Inactive)
REMARK    1  A    between atoms: C_1  and  C_2
REMARK    2  A    between atoms: C_6  and  C_7
REMARK    3  A    between atoms: C_10  and  C_11
REMARK    4  A    between atoms: C_13  and  C_14
REMARK    5  A    between atoms: C_14  and  O_16
REMARK    6  A    between atoms: C_19  and  C_20
REMARK                            x       y       z     vdW  Elec       q    Type
REMARK                         _______ _______ _______ _____ _____    ______ ____
ROOT
ATOM      1  C   UNL     1       1.438   7.584  20.441  0.00  0.00    +0.000 A 
ATOM      2  C   UNL     1       1.218   6.322  21.046  0.00  0.00    +0.000 A 
ATOM      3  C   UNL     1       1.586   5.140  20.414  0.00  0.00    +0.000 A 
ATOM      4  C   UNL     1       2.162   5.241  19.163  0.00  0.00    +0.000 A 
ATOM      5  N   UNL     1       2.413   4.210  18.320  0.00  0.00    +0.000 NA
ATOM      6  C   UNL     1       3.493   4.606  17.703  0.00  0.00    +0.000 A 
ATOM      7  C   UNL     1       4.498   3.583  17.332  0.00  0.00    +0.000 C 
ATOM      8  N   UNL     1       3.580   5.998  17.740  0.00  0.00    +0.000 N 
ATOM      9  C   UNL     1       2.663   6.457  18.701  0.00  0.00    +0.000 A 
ATOM     10  C   UNL     1       2.278   7.661  19.286  0.00  0.00    +0.000 A 
ATOM     11  H   UNL     1       4.306   6.565  17.306  0.00  0.00    +0.000 HD
ENDROOT
BRANCH   1  15
ATOM     12  C   UNL     1      -0.656  10.986  22.229  0.00  0.00    +0.000 A 
ATOM     13  C   UNL     1      -0.368  10.944  20.853  0.00  0.00    +0.000 A 
ATOM     14  C   UNL     1       0.322   9.866  20.264  0.00  0.00    +0.000 A 
ATOM     15  C   UNL     1       0.766   8.779  21.025  0.00  0.00    +0.000 A 
ATOM     16  C   UNL     1       0.495   8.835  22.408  0.00  0.00    +0.000 A 
ATOM     17  C   UNL     1      -0.203   9.902  22.990  0.00  0.00    +0.000 A 
BRANCH  12  23
ATOM     18  C   UNL     1      -0.870  15.757  23.836  0.00  0.00    +0.000 C 
ATOM     19  C   UNL     1      -1.538  14.426  23.654  0.00  0.00    +0.000 A 
ATOM     20  C   UNL     1      -2.843  14.210  24.092  0.00  0.00    +0.000 A 
ATOM     21  C   UNL     1      -3.442  12.965  23.919  0.00  0.00    +0.000 A 
ATOM     22  C   UNL     1      -2.736  11.923  23.309  0.00  0.00    +0.000 A 
ATOM     23  C   UNL     1      -1.418  12.096  22.854  0.00  0.00    +0.000 A 
ATOM     24  C   UNL     1      -0.842  13.372  23.038  0.00  0.00    +0.000 A 
ENDBRANCH  12  23
ENDBRANCH   1  15
BRANCH   3  25
ATOM     25  C   UNL     1       1.600   3.809  21.064  0.00  0.00    +0.000 C 
ATOM     26  O   UNL     1       2.361   3.540  21.978  0.00  0.00    +0.000 OA
BRANCH  25  27
ATOM     27  O   UNL     1       0.754   2.911  20.508  0.00  0.00    +0.000 OA
ATOM     28  H   UNL     1      -0.185   3.220  20.503  0.00  0.00    +0.000 HD
ENDBRANCH  25  27
ENDBRANCH   3  25
TORSDOF 4
ENDMDL
MODEL 6
REMARK VINA RESULT:      -8.5      0.922      1.490
REMARK  Name = 
REMARK  6 active torsions:
REMARK  status: ('A' for Active; 'I' for Inactive)
REMARK    1  A    between atoms: C_1  and  C_2
REMARK    2  A    between atoms: C_6  and  C_7
REMARK    3  A    between atoms: C_10  and  C_11
REMARK    4  A    between atoms: C_13  and  C_14
REMARK    5  A    between atoms: C_14  and  O_16
REMARK    6  A    between atoms: C_19  and  C_20
REMARK                            x       y       z     vdW  Elec       q    Type
REMARK                         _______ _______ _______ _____ _____    ______ ____
ROOT
ATOM      1  C   UNL     1       2.899   7.313  18.392  0.00  0.00    +0.000 A 
ATOM      2  C   UNL     1       3.011   6.039  19.002  0.00  0.00    +0.000 A 
ATOM      3  C   UNL     1       3.731   5.010  18.406  0.00  0.00    +0.000 A 
ATOM      4  C   UNL     1       4.323   5.272  17.186  0.00  0.00    +0.000 A 
ATOM      5  N   UNL     1       4.900   4.356  16.371  0.00  0.00    +0.000 NA
ATOM      6  C   UNL     1       5.856   5.041  15.807  0.00  0.00    +0.000 A 
ATOM      7  C   UNL     1       7.128   4.345  15.503  0.00  0.00    +0.000 C 
ATOM      8  N   UNL     1       5.546   6.402  15.830  0.00  0.00    +0.000 N 
ATOM      9  C   UNL     1       4.486   6.581  16.735  0.00  0.00    +0.000 A 
ATOM     10  C   UNL     1       3.745   7.627  17.283  0.00  0.00    +0.000 A 
ATOM     11  H   UNL     1       6.105   7.152  15.428  0.00  0.00    +0.000 HD
ENDROOT
BRANCH   1  15
ATOM     12  C   UNL     1       0.019  10.252  19.882  0.00  0.00    +0.000 A 
ATOM     13  C   UNL     1       0.620   9.315  20.742  0.00  0.00    +0.000 A 
ATOM     14  C   UNL     1       1.534   8.349  20.275  0.00  0.00    +0.000 A 
ATOM     15  C   UNL     1       1.887   8.269  18.924  0.00  0.00    +0.000 A 
ATOM     16  C   UNL     1       1.266   9.196  18.062  0.00  0.00    +0.000 A 
ATOM     17  C   UNL     1       0.367  10.165  18.529  0.00  0.00    +0.000 A 
BRANCH  12  23
ATOM     18  C   UNL     1      -1.352  13.551  23.435  0.00  0.00    +0.000 C 
ATOM     19  C   UNL     1      -1.604  12.914  22.101  0.00  0.00    +0.000 A 
ATOM     20  C   UNL     1      -2.713  13.265  21.333  0.00  0.00    +0.000 A 
ATOM     21  C   UNL     1      -2.932  12.657  20.101  0.00  0.00    +0.000 A 
ATOM     22  C   UNL     1      -2.043  11.686  19.627  0.00  0.00    +0.000 A 
ATOM     23  C   UNL     1      -0.913  11.301  20.368  0.00  0.00    +0.000 A 
ATOM     24  C   UNL     1      -0.717  11.941  21.611  0.00  0.00    +0.000 A 
ENDBRANCH  12  23
ENDBRANCH   1  15
BRANCH   3  25
ATOM     25  C   UNL     1       4.085   3.736  19.073  0.00  0.00    +0.000 C 
ATOM     26  O   UNL     1       3.246   3.020  19.593  0.00  0.00    +0.000 OA
BRANCH  25  27
ATOM     27  O   UNL     1       5.414   3.482  19.115  0.00  0.00    +0.000 OA
ATOM     28  H   UNL     1       5.672   2.695  18.574  0.00  0.00    +0.000 HD
ENDBRANCH  25  27
ENDBRANCH   3  25
TORSDOF 4
ENDMDL
MODEL 7
REMARK VINA RESULT:      -8.5      1.167      1.238
REMARK  Name = 
REMARK  6 active torsions:
REMARK  status: ('A' for Active; 'I' for Inactive)
REMARK    1  A    between atoms: C_1  and  C_2
REMARK    2  A    between atoms: C_6  and  C_7
REMARK    3  A    between atoms: C_10  and  C_11
REMARK    4  A    between atoms: C_13  and  C_14
REMARK    5  A    between atoms: C_14  and  O_16
REMARK    6  A    between atoms: C_19  and  C_20
REMARK                            x       y       z     vdW  Elec       q    Type
REMARK                         _______ _______ _______ _____ _____    ______ ____
ROOT
ATOM      1  C   UNL     1       2.812   6.944  19.065  0.00  0.00    +0.000 A 
ATOM      2  C   UNL     1       2.933   5.649  19.628  0.00  0.00    +0.000 A 
ATOM      3  C   UNL     1       3.471   4.591  18.905  0.00  0.00    +0.000 A 
ATOM      4  C   UNL     1       3.873   4.846  17.609  0.00  0.00    +0.000 A 
ATOM      5  N   UNL     1       4.243   3.915  16.696  0.00  0.00    +0.000 NA
ATOM      6  C   UNL     1       5.141   4.550  15.993  0.00  0.00    +0.000 A 
ATOM      7  C   UNL     1       6.293   3.778  15.473  0.00  0.00    +0.000 C 
ATOM      8  N   UNL     1       4.935   5.927  16.088  0.00  0.00    +0.000 N 
ATOM      9  C   UNL     1       4.052   6.153  17.158  0.00  0.00    +0.000 A 
ATOM     10  C   UNL     1       3.486   7.230  17.837  0.00  0.00    +0.000 A 
ATOM     11  H   UNL     1       5.472   6.649  15.611  0.00  0.00    +0.000 HD
ENDROOT
BRANCH   1  15
ATOM     12  C   UNL     1       0.457  10.025  21.093  0.00  0.00    +0.000 A 
ATOM     13  C   UNL     1       0.857   8.852  21.759  0.00  0.00    +0.000 A 
ATOM     14  C   UNL     1       1.598   7.841  21.115  0.00  0.00    +0.000 A 
ATOM     15  C   UNL     1       1.971   7.951  19.771  0.00  0.00    +0.000 A 
ATOM     16  C   UNL     1       1.550   9.118  19.101  0.00  0.00    +0.000 A 
ATOM     17  C   UNL     1       0.823  10.129  19.746  0.00  0.00    +0.000 A 
BRANCH  12  23
ATOM     18  C   UNL     1      -0.334  14.944  21.846  0.00  0.00    +0.000 C 
ATOM     19  C   UNL     1      -0.683  13.519  22.158  0.00  0.00    +0.000 A 
ATOM     20  C   UNL     1      -1.666  13.208  23.096  0.00  0.00    +0.000 A 
ATOM     21  C   UNL     1      -1.970  11.879  23.376  0.00  0.00    +0.000 A 
ATOM     22  C   UNL     1      -1.287  10.848  22.722  0.00  0.00    +0.000 A 
ATOM     23  C   UNL     1      -0.289  11.116  21.771  0.00  0.00    +0.000 A 
ATOM     24  C   UNL     1      -0.008  12.473  21.505  0.00  0.00    +0.000 A 
ENDBRANCH  12  23
ENDBRANCH   1  15
BRANCH   3  25
ATOM     25  C   UNL     1       3.838   3.278  19.485  0.00  0.00    +0.000 C 
ATOM     26  O   UNL     1       3.033   2.584  20.083  0.00  0.00    +0.000 OA
BRANCH  25  27
ATOM     27  O   UNL     1       5.147   2.961  19.355  0.00  0.00    +0.000 OA
ATOM     28  H   UNL     1       5.746   3.614  19.793  0.00  0.00    +0.000 HD
ENDBRANCH  25  27
ENDBRANCH   3  25
TORSDOF 4
ENDMDL
MODEL 8
REMARK VINA RESULT:      -8.4      1.791      2.778
REMARK  Name = 
REMARK  6 active torsions:
REMARK  status: ('A' for Active; 'I' for Inactive)
REMARK    1  A    between atoms: C_1  and  C_2
REMARK    2  A    between atoms: C_6  and  C_7
REMARK    3  A    between atoms: C_10  and  C_11
REMARK    4  A    between atoms: C_13  and  C_14
REMARK    5  A    between atoms: C_14  and  O_16
REMARK    6  A    between atoms: C_19  and  C_20
REMARK                            x       y       z     vdW  Elec       q    Type
REMARK                         _______ _______ _______ _____ _____    ______ ____
ROOT
ATOM      1  C   UNL     1       1.589   7.509  20.220  0.00  0.00    +0.000 A 
ATOM      2  C   UNL     1       1.497   6.194  20.740  0.00  0.00    +0.000 A 
ATOM      3  C   UNL     1       1.988   5.100  20.038  0.00  0.00    +0.000 A 
ATOM      4  C   UNL     1       2.559   5.341  18.804  0.00  0.00    +0.000 A 
ATOM      5  N   UNL     1       2.920   4.398  17.900  0.00  0.00    +0.000 NA
ATOM      6  C   UNL     1       3.957   4.941  17.323  0.00  0.00    +0.000 A 
ATOM      7  C   UNL     1       5.065   4.053  16.900  0.00  0.00    +0.000 C 
ATOM      8  N   UNL     1       3.900   6.330  17.450  0.00  0.00    +0.000 N 
ATOM      9  C   UNL     1       2.935   6.629  18.427  0.00  0.00    +0.000 A 
ATOM     10  C   UNL     1       2.424   7.747  19.083  0.00  0.00    +0.000 A 
ATOM     11  H   UNL     1       4.567   6.996  17.064  0.00  0.00    +0.000 HD
ENDROOT
BRANCH   1  15
ATOM     12  C   UNL     1      -0.609  10.789  22.108  0.00  0.00    +0.000 A 
ATOM     13  C   UNL     1      -0.454   9.546  22.749  0.00  0.00    +0.000 A 
ATOM     14  C   UNL     1       0.233   8.473  22.147  0.00  0.00    +0.000 A 
ATOM     15  C   UNL     1       0.794   8.589  20.871  0.00  0.00    +0.000 A 
ATOM     16  C   UNL     1       0.618   9.829  20.223  0.00  0.00    +0.000 A 
ATOM     17  C   UNL     1      -0.055  10.899  20.827  0.00  0.00    +0.000 A 
BRANCH  12  23
ATOM     18  C   UNL     1      -4.598  12.674  24.542  0.00  0.00    +0.000 C 
ATOM     19  C   UNL     1      -3.243  12.881  23.932  0.00  0.00    +0.000 A 
ATOM     20  C   UNL     1      -2.640  14.138  23.928  0.00  0.00    +0.000 A 
ATOM     21  C   UNL     1      -1.385  14.309  23.350  0.00  0.00    +0.000 A 
ATOM     22  C   UNL     1      -0.724  13.223  22.767  0.00  0.00    +0.000 A 
ATOM     23  C   UNL     1      -1.295  11.940  22.748  0.00  0.00    +0.000 A 
ATOM     24  C   UNL     1      -2.566  11.797  23.347  0.00  0.00    +0.000 A 
ENDBRANCH  12  23
ENDBRANCH   1  15
BRANCH   3  25
ATOM     25  C   UNL     1       2.135   3.738  20.601  0.00  0.00    +0.000 C 
ATOM     26  O   UNL     1       1.224   3.173  21.181  0.00  0.00    +0.000 OA
BRANCH  25  27
ATOM     27  O   UNL     1       3.379   3.218  20.476  0.00  0.00    +0.000 OA
ATOM     28  H   UNL     1       3.378   2.231  20.414  0.00  0.00    +0.000 HD
ENDBRANCH  25  27
ENDBRANCH   3  25
TORSDOF 4
ENDMDL
MODEL 9
REMARK VINA RESULT:      -8.4      0.908      1.824
REMARK  Name = 
REMARK  6 active torsions:
REMARK  status: ('A' for Active; 'I' for Inactive)
REMARK    1  A    between atoms: C_1  and  C_2
REMARK    2  A    between atoms: C_6  and  C_7
REMARK    3  A    between atoms: C_10  and  C_11
REMARK    4  A    between atoms: C_13  and  C_14
REMARK    5  A    between atoms: C_14  and  O_16
REMARK    6  A    between atoms: C_19  and  C_20
REMARK                            x       y       z     vdW  Elec       q    Type
REMARK                         _______ _______ _______ _____ _____    ______ ____
ROOT
ATOM      1  C   UNL     1       2.946   7.388  18.315  0.00  0.00    +0.000 A 
ATOM      2  C   UNL     1       2.999   6.141  18.987  0.00  0.00    +0.000 A 
ATOM      3  C   UNL     1       3.690   5.058  18.456  0.00  0.00    +0.000 A 
ATOM      4  C   UNL     1       4.314   5.239  17.237  0.00  0.00    +0.000 A 
ATOM      5  N   UNL     1       4.872   4.264  16.479  0.00  0.00    +0.000 NA
ATOM      6  C   UNL     1       5.863   4.886  15.903  0.00  0.00    +0.000 A 
ATOM      7  C   UNL     1       7.113   4.129  15.658  0.00  0.00    +0.000 C 
ATOM      8  N   UNL     1       5.604   6.257  15.854  0.00  0.00    +0.000 N 
ATOM      9  C   UNL     1       4.534   6.518  16.727  0.00  0.00    +0.000 A 
ATOM     10  C   UNL     1       3.823   7.615  17.210  0.00  0.00    +0.000 A 
ATOM     11  H   UNL     1       6.198   6.965  15.428  0.00  0.00    +0.000 HD
ENDROOT
BRANCH   1  15
ATOM     12  C   UNL     1      -0.047  10.242  19.745  0.00  0.00    +0.000 A 
ATOM     13  C   UNL     1       0.386  10.244  18.407  0.00  0.00    +0.000 A 
ATOM     14  C   UNL     1       1.364   9.345  17.934  0.00  0.00    +0.000 A 
ATOM     15  C   UNL     1       1.960   8.404  18.780  0.00  0.00    +0.000 A 
ATOM     16  C   UNL     1       1.539   8.420  20.125  0.00  0.00    +0.000 A 
ATOM     17  C   UNL     1       0.558   9.305  20.591  0.00  0.00    +0.000 A 
BRANCH  12  23
ATOM     18  C   UNL     1      -2.233  12.696  23.564  0.00  0.00    +0.000 C 
ATOM     19  C   UNL     1      -2.193  12.357  22.103  0.00  0.00    +0.000 A 
ATOM     20  C   UNL     1      -3.150  12.857  21.222  0.00  0.00    +0.000 A 
ATOM     21  C   UNL     1      -3.099  12.524  19.872  0.00  0.00    +0.000 A 
ATOM     22  C   UNL     1      -2.090  11.683  19.391  0.00  0.00    +0.000 A 
ATOM     23  C   UNL     1      -1.106  11.156  20.244  0.00  0.00    +0.000 A 
ATOM     24  C   UNL     1      -1.182  11.517  21.607  0.00  0.00    +0.000 A 
ENDBRANCH  12  23
ENDBRANCH   1  15
BRANCH   3  25
ATOM     25  C   UNL     1       3.983   3.806  19.190  0.00  0.00    +0.000 C 
ATOM     26  O   UNL     1       3.115   3.171  19.764  0.00  0.00    +0.000 OA
BRANCH  25  27
ATOM     27  O   UNL     1       5.296   3.477  19.224  0.00  0.00    +0.000 OA
ATOM     28  H   UNL     1       5.644   3.380  20.145  0.00  0.00    +0.000 HD
ENDBRANCH  25  27
ENDBRANCH   3  25
TORSDOF 4
ENDMDL
