MODEL 1
REMARK VINA RESULT:      -6.0      0.000      0.000
REMARK  Name = 
REMARK  12 active torsions:
REMARK  status: ('A' for Active; 'I' for Inactive)
REMARK    1  A    between atoms: C_1  and  O_2
REMARK    2  A    between atoms: O_2  and  C_3
REMARK    3  A    between atoms: C_6  and  C_7
REMARK    4  A    between atoms: C_7  and  N_8
REMARK    5  A    between atoms: C_9  and  C_11
REMARK    6  A    between atoms: C_11  and  C_12
REMARK    7  A    between atoms: C_11  and  C_13
REMARK    8  A    between atoms: C_11  and  C_14
REMARK    9  A    between atoms: C_15  and  O_16
REMARK   10  A    between atoms: O_16  and  C_17
REMARK   11  A    between atoms: C_18  and  O_19
REMARK   12  A    between atoms: O_19  and  C_20
REMARK                            x       y       z     vdW  Elec       q    Type
REMARK                         _______ _______ _______ _____ _____    ______ ____
ROOT
ATOM      1  C   UNL     1       1.246   9.489  19.310  0.00  0.00    +0.000 A 
ATOM      2  C   UNL     1       1.735   9.378  18.001  0.00  0.00    +0.000 A 
ATOM      3  C   UNL     1       2.333   8.203  17.561  0.00  0.00    +0.000 A 
ATOM      4  C   UNL     1       2.460   7.109  18.422  0.00  0.00    +0.000 A 
ATOM      5  C   UNL     1       2.032   7.226  19.767  0.00  0.00    +0.000 A 
ATOM      6  C   UNL     1       1.434   8.430  20.226  0.00  0.00    +0.000 A 
ENDROOT
BRANCH   1   8
ATOM      7  C   UNL     1      -0.587  10.977  19.050  0.00  0.00    +0.000 C 
ATOM      8  O   UNL     1       0.625  10.643  19.724  0.00  0.00    +0.000 OA
ENDBRANCH   1   8
BRANCH   5   9
ATOM      9  O   UNL     1       2.278   6.088  20.501  0.00  0.00    +0.000 OA
ATOM     10  C   UNL     1       1.290   5.075  20.608  0.00  0.00    +0.000 C 
ENDBRANCH   5   9
BRANCH   6  11
ATOM     11  O   UNL     1       1.105   8.460  21.555  0.00  0.00    +0.000 OA
ATOM     12  C   UNL     1      -0.241   8.510  21.992  0.00  0.00    +0.000 C 
ENDBRANCH   6  11
BRANCH   4  13
ATOM     13  C   UNL     1       3.092   5.842  17.892  0.00  0.00    +0.000 C 
BRANCH  13  14
ATOM     14  N   UNL     1       4.483   5.744  18.277  0.00  0.00    +0.000 N 
ATOM     15  C   UNL     1       5.484   6.069  17.390  0.00  0.00    +0.000 C 
ATOM     16  O   UNL     1       5.246   6.531  16.276  0.00  0.00    +0.000 OA
ATOM     17  H   UNL     1       4.696   5.199  19.100  0.00  0.00    +0.000 HD
BRANCH  15  18
ATOM     18  C   UNL     1       6.922   5.853  17.914  0.00  0.00    +0.000 C 
ATOM     19  C   UNL     1       7.766   7.119  17.708  0.00  0.00    +0.000 C 
ATOM     20  C   UNL     1       6.885   5.532  19.418  0.00  0.00    +0.000 C 
ATOM     21  C   UNL     1       7.558   4.666  17.173  0.00  0.00    +0.000 C 
ENDBRANCH  15  18
ENDBRANCH  13  14
ENDBRANCH   4  13
TORSDOF 6
ENDMDL
MODEL 2
REMARK VINA RESULT:      -5.9      3.236      6.692
REMARK  Name = 
REMARK  12 active torsions:
REMARK  status: ('A' for Active; 'I' for Inactive)
REMARK    1  A    between atoms: C_1  and  O_2
REMARK    2  A    between atoms: O_2  and  C_3
REMARK    3  A    between atoms: C_6  and  C_7
REMARK    4  A    between atoms: C_7  and  N_8
REMARK    5  A    between atoms: C_9  and  C_11
REMARK    6  A    between atoms: C_11  and  C_12
REMARK    7  A    between atoms: C_11  and  C_13
REMARK    8  A    between atoms: C_11  and  C_14
REMARK    9  A    between atoms: C_15  and  O_16
REMARK   10  A    between atoms: O_16  and  C_17
REMARK   11  A    between atoms: C_18  and  O_19
REMARK   12  A    between atoms: O_19  and  C_20
REMARK                            x       y       z     vdW  Elec       q    Type
REMARK                         _______ _______ _______ _____ _____    ______ ____
ROOT
ATOM      1  C   UNL     1       6.796   5.115  15.145  0.00  0.00    +0.000 A 
ATOM      2  C   UNL     1       6.220   3.875  14.836  0.00  0.00    +0.000 A 
ATOM      3  C   UNL     1       5.033   3.471  15.437  0.00  0.00    +0.000 A 
ATOM      4  C   UNL     1       4.395   4.297  16.367  0.00  0.00    +0.000 A 
ATOM      5  C   UNL     1       4.997   5.522  16.740  0.00  0.00    +0.000 A 
ATOM      6  C   UNL     1       6.218   5.933  16.140  0.00  0.00    +0.000 A 
ENDROOT
BRANCH   1   8
ATOM      7  C   UNL     1       7.979   5.365  13.101  0.00  0.00    +0.000 C 
ATOM      8  O   UNL     1       7.950   5.520  14.518  0.00  0.00    +0.000 OA
ENDBRANCH   1   8
BRANCH   5   9
ATOM      9  O   UNL     1       4.280   6.191  17.706  0.00  0.00    +0.000 OA
ATOM     10  C   UNL     1       3.591   7.390  17.388  0.00  0.00    +0.000 C 
ENDBRANCH   5   9
BRANCH   6  11
ATOM     11  O   UNL     1       6.744   7.107  16.610  0.00  0.00    +0.000 OA
ATOM     12  C   UNL     1       7.630   7.142  17.713  0.00  0.00    +0.000 C 
ENDBRANCH   6  11
BRANCH   4  13
ATOM     13  C   UNL     1       3.092   3.828  16.975  0.00  0.00    +0.000 C 
BRANCH  13  14
ATOM     14  N   UNL     1       3.189   3.720  18.414  0.00  0.00    +0.000 N 
ATOM     15  C   UNL     1       2.119   3.286  19.163  0.00  0.00    +0.000 C 
ATOM     16  O   UNL     1       1.076   2.895  18.644  0.00  0.00    +0.000 OA
ATOM     17  H   UNL     1       3.953   4.207  18.862  0.00  0.00    +0.000 HD
BRANCH  15  18
ATOM     18  C   UNL     1       2.342   3.286  20.691  0.00  0.00    +0.000 C 
ATOM     19  C   UNL     1       2.463   4.723  21.218  0.00  0.00    +0.000 C 
ATOM     20  C   UNL     1       1.151   2.609  21.391  0.00  0.00    +0.000 C 
ATOM     21  C   UNL     1       3.619   2.494  21.017  0.00  0.00    +0.000 C 
ENDBRANCH  15  18
ENDBRANCH  13  14
ENDBRANCH   4  13
TORSDOF 6
ENDMDL
MODEL 3
REMARK VINA RESULT:      -5.9      0.523      1.099
REMARK  Name = 
REMARK  12 active torsions:
REMARK  status: ('A' for Active; 'I' for Inactive)
REMARK    1  A    between atoms: C_1  and  O_2
REMARK    2  A    between atoms: O_2  and  C_3
REMARK    3  A    between atoms: C_6  and  C_7
REMARK    4  A    between atoms: C_7  and  N_8
REMARK    5  A    between atoms: C_9  and  C_11
REMARK    6  A    between atoms: C_11  and  C_12
REMARK    7  A    between atoms: C_11  and  C_13
REMARK    8  A    between atoms: C_11  and  C_14
REMARK    9  A    between atoms: C_15  and  O_16
REMARK   10  A    between atoms: O_16  and  C_17
REMARK   11  A    between atoms: C_18  and  O_19
REMARK   12  A    between atoms: O_19  and  C_20
REMARK                            x       y       z     vdW  Elec       q    Type
REMARK                         _______ _______ _______ _____ _____    ______ ____
ROOT
ATOM      1  C   UNL     1       1.223   9.529  19.318  0.00  0.00    +0.000 A 
ATOM      2  C   UNL     1       1.701   9.410  18.005  0.00  0.00    +0.000 A 
ATOM      3  C   UNL     1       2.294   8.232  17.566  0.00  0.00    +0.000 A 
ATOM      4  C   UNL     1       2.428   7.143  18.432  0.00  0.00    +0.000 A 
ATOM      5  C   UNL     1       2.012   7.268  19.779  0.00  0.00    +0.000 A 
ATOM      6  C   UNL     1       1.419   8.475  20.237  0.00  0.00    +0.000 A 
ENDROOT
BRANCH   1   8
ATOM      7  C   UNL     1       1.436  11.842  19.808  0.00  0.00    +0.000 C 
ATOM      8  O   UNL     1       0.606  10.685  19.730  0.00  0.00    +0.000 OA
ENDBRANCH   1   8
BRANCH   5   9
ATOM      9  O   UNL     1       2.264   6.134  20.518  0.00  0.00    +0.000 OA
ATOM     10  C   UNL     1       1.283   5.115  20.628  0.00  0.00    +0.000 C 
ENDBRANCH   5   9
BRANCH   6  11
ATOM     11  O   UNL     1       1.102   8.512  21.569  0.00  0.00    +0.000 OA
ATOM     12  C   UNL     1      -0.240   8.556  22.018  0.00  0.00    +0.000 C 
ENDBRANCH   6  11
BRANCH   4  13
ATOM     13  C   UNL     1       3.055   5.873  17.903  0.00  0.00    +0.000 C 
BRANCH  13  14
ATOM     14  N   UNL     1       4.450   5.777  18.275  0.00  0.00    +0.000 N 
ATOM     15  C   UNL     1       5.443   6.068  17.367  0.00  0.00    +0.000 C 
ATOM     16  O   UNL     1       5.195   6.497  16.243  0.00  0.00    +0.000 OA
ATOM     17  H   UNL     1       4.668   5.256  19.112  0.00  0.00    +0.000 HD
BRANCH  15  18
ATOM     18  C   UNL     1       6.885   5.858  17.881  0.00  0.00    +0.000 C 
ATOM     19  C   UNL     1       7.564   4.708  17.124  0.00  0.00    +0.000 C 
ATOM     20  C   UNL     1       7.707   7.139  17.662  0.00  0.00    +0.000 C 
ATOM     21  C   UNL     1       6.847   5.549  19.386  0.00  0.00    +0.000 C 
ENDBRANCH  15  18
ENDBRANCH  13  14
ENDBRANCH   4  13
TORSDOF 6
ENDMDL
MODEL 4
REMARK VINA RESULT:      -5.9      1.170      1.170
REMARK  Name = 
REMARK  12 active torsions:
REMARK  status: ('A' for Active; 'I' for Inactive)
REMARK    1  A    between atoms: C_1  and  O_2
REMARK    2  A    between atoms: O_2  and  C_3
REMARK    3  A    between atoms: C_6  and  C_7
REMARK    4  A    between atoms: C_7  and  N_8
REMARK    5  A    between atoms: C_9  and  C_11
REMARK    6  A    between atoms: C_11  and  C_12
REMARK    7  A    between atoms: C_11  and  C_13
REMARK    8  A    between atoms: C_11  and  C_14
REMARK    9  A    between atoms: C_15  and  O_16
REMARK   10  A    between atoms: O_16  and  C_17
REMARK   11  A    between atoms: C_18  and  O_19
REMARK   12  A    between atoms: O_19  and  C_20
REMARK                            x       y       z     vdW  Elec       q    Type
REMARK                         _______ _______ _______ _____ _____    ______ ____
ROOT
ATOM      1  C   UNL     1       1.233   9.461  19.138  0.00  0.00    +0.000 A 
ATOM      2  C   UNL     1       1.953   9.274  17.949  0.00  0.00    +0.000 A 
ATOM      3  C   UNL     1       2.629   8.083  17.706  0.00  0.00    +0.000 A 
ATOM      4  C   UNL     1       2.604   7.051  18.648  0.00  0.00    +0.000 A 
ATOM      5  C   UNL     1       1.938   7.248  19.881  0.00  0.00    +0.000 A 
ATOM      6  C   UNL     1       1.258   8.468  20.142  0.00  0.00    +0.000 A 
ENDROOT
BRANCH   1   8
ATOM      7  C   UNL     1       1.326  11.814  19.444  0.00  0.00    +0.000 C 
ATOM      8  O   UNL     1       0.540  10.628  19.352  0.00  0.00    +0.000 OA
ENDBRANCH   1   8
BRANCH   5   9
ATOM      9  O   UNL     1       2.054   6.166  20.724  0.00  0.00    +0.000 OA
ATOM     10  C   UNL     1       1.193   5.047  20.579  0.00  0.00    +0.000 C 
ENDBRANCH   5   9
BRANCH   6  11
ATOM     11  O   UNL     1       0.693   8.579  21.384  0.00  0.00    +0.000 OA
ATOM     12  C   UNL     1       1.368   9.202  22.461  0.00  0.00    +0.000 C 
ENDBRANCH   6  11
BRANCH   4  13
ATOM     13  C   UNL     1       3.330   5.764  18.328  0.00  0.00    +0.000 C 
BRANCH  13  14
ATOM     14  N   UNL     1       4.721   6.007  18.010  0.00  0.00    +0.000 N 
ATOM     15  C   UNL     1       5.716   5.231  18.559  0.00  0.00    +0.000 C 
ATOM     16  O   UNL     1       5.468   4.257  19.267  0.00  0.00    +0.000 OA
ATOM     17  H   UNL     1       4.949   6.899  17.594  0.00  0.00    +0.000 HD
BRANCH  15  18
ATOM     18  C   UNL     1       7.156   5.647  18.185  0.00  0.00    +0.000 C 
ATOM     19  C   UNL     1       7.153   6.996  17.451  0.00  0.00    +0.000 C 
ATOM     20  C   UNL     1       8.004   5.788  19.460  0.00  0.00    +0.000 C 
ATOM     21  C   UNL     1       7.782   4.562  17.295  0.00  0.00    +0.000 C 
ENDBRANCH  15  18
ENDBRANCH  13  14
ENDBRANCH   4  13
TORSDOF 6
ENDMDL
MODEL 5
REMARK VINA RESULT:      -5.9      4.177      7.533
REMARK  Name = 
REMARK  12 active torsions:
REMARK  status: ('A' for Active; 'I' for Inactive)
REMARK    1  A    between atoms: C_1  and  O_2
REMARK    2  A    between atoms: O_2  and  C_3
REMARK    3  A    between atoms: C_6  and  C_7
REMARK    4  A    between atoms: C_7  and  N_8
REMARK    5  A    between atoms: C_9  and  C_11
REMARK    6  A    between atoms: C_11  and  C_12
REMARK    7  A    between atoms: C_11  and  C_13
REMARK    8  A    between atoms: C_11  and  C_14
REMARK    9  A    between atoms: C_15  and  O_16
REMARK   10  A    between atoms: O_16  and  C_17
REMARK   11  A    between atoms: C_18  and  O_19
REMARK   12  A    between atoms: O_19  and  C_20
REMARK                            x       y       z     vdW  Elec       q    Type
REMARK                         _______ _______ _______ _____ _____    ______ ____
ROOT
ATOM      1  C   UNL     1       6.135   4.108  14.304  0.00  0.00    +0.000 A 
ATOM      2  C   UNL     1       5.195   3.394  15.061  0.00  0.00    +0.000 A 
ATOM      3  C   UNL     1       5.079   3.599  16.431  0.00  0.00    +0.000 A 
ATOM      4  C   UNL     1       5.905   4.522  17.080  0.00  0.00    +0.000 A 
ATOM      5  C   UNL     1       6.904   5.203  16.344  0.00  0.00    +0.000 A 
ATOM      6  C   UNL     1       7.037   4.986  14.946  0.00  0.00    +0.000 A 
ENDROOT
BRANCH   1   8
ATOM      7  C   UNL     1       5.044   3.418  12.312  0.00  0.00    +0.000 C 
ATOM      8  O   UNL     1       6.217   3.924  12.946  0.00  0.00    +0.000 OA
ENDBRANCH   1   8
BRANCH   5   9
ATOM      9  O   UNL     1       7.671   6.030  17.133  0.00  0.00    +0.000 OA
ATOM     10  C   UNL     1       7.352   7.407  17.253  0.00  0.00    +0.000 C 
ENDBRANCH   5   9
BRANCH   6  11
ATOM     11  O   UNL     1       8.068   5.651  14.338  0.00  0.00    +0.000 OA
ATOM     12  C   UNL     1       8.263   5.610  12.937  0.00  0.00    +0.000 C 
ENDBRANCH   6  11
BRANCH   4  13
ATOM     13  C   UNL     1       5.724   4.732  18.567  0.00  0.00    +0.000 C 
BRANCH  13  14
ATOM     14  N   UNL     1       4.355   4.494  18.971  0.00  0.00    +0.000 N 
ATOM     15  C   UNL     1       4.014   3.361  19.674  0.00  0.00    +0.000 C 
ATOM     16  O   UNL     1       4.857   2.553  20.058  0.00  0.00    +0.000 OA
ATOM     17  H   UNL     1       3.638   5.036  18.511  0.00  0.00    +0.000 HD
BRANCH  15  18
ATOM     18  C   UNL     1       2.508   3.205  19.979  0.00  0.00    +0.000 C 
ATOM     19  C   UNL     1       2.296   2.782  21.440  0.00  0.00    +0.000 C 
ATOM     20  C   UNL     1       1.789   4.546  19.751  0.00  0.00    +0.000 C 
ATOM     21  C   UNL     1       1.904   2.156  19.032  0.00  0.00    +0.000 C 
ENDBRANCH  15  18
ENDBRANCH  13  14
ENDBRANCH   4  13
TORSDOF 6
ENDMDL
MODEL 6
REMARK VINA RESULT:      -5.7      3.983      6.858
REMARK  Name = 
REMARK  12 active torsions:
REMARK  status: ('A' for Active; 'I' for Inactive)
REMARK    1  A    between atoms: C_1  and  O_2
REMARK    2  A    between atoms: O_2  and  C_3
REMARK    3  A    between atoms: C_6  and  C_7
REMARK    4  A    between atoms: C_7  and  N_8
REMARK    5  A    between atoms: C_9  and  C_11
REMARK    6  A    between atoms: C_11  and  C_12
REMARK    7  A    between atoms: C_11  and  C_13
REMARK    8  A    between atoms: C_11  and  C_14
REMARK    9  A    between atoms: C_15  and  O_16
REMARK   10  A    between atoms: O_16  and  C_17
REMARK   11  A    between atoms: C_18  and  O_19
REMARK   12  A    between atoms: O_19  and  C_20
REMARK                            x       y       z     vdW  Elec       q    Type
REMARK                         _______ _______ _______ _____ _____    ______ ____
ROOT
ATOM      1  C   UNL     1       6.907   6.498  16.746  0.00  0.00    +0.000 A 
ATOM      2  C   UNL     1       5.814   6.688  17.603  0.00  0.00    +0.000 A 
ATOM      3  C   UNL     1       4.772   5.768  17.645  0.00  0.00    +0.000 A 
ATOM      4  C   UNL     1       4.796   4.635  16.825  0.00  0.00    +0.000 A 
ATOM      5  C   UNL     1       5.858   4.462  15.906  0.00  0.00    +0.000 A 
ATOM      6  C   UNL     1       6.918   5.407  15.849  0.00  0.00    +0.000 A 
ENDROOT
BRANCH   1   8
ATOM      7  C   UNL     1       7.878   8.440  17.706  0.00  0.00    +0.000 C 
ATOM      8  O   UNL     1       7.948   7.394  16.739  0.00  0.00    +0.000 OA
ENDBRANCH   1   8
BRANCH   5   9
ATOM      9  O   UNL     1       5.708   3.334  15.131  0.00  0.00    +0.000 OA
ATOM     10  C   UNL     1       5.377   3.446  13.756  0.00  0.00    +0.000 C 
ENDBRANCH   5   9
BRANCH   6  11
ATOM     11  O   UNL     1       7.867   5.176  14.889  0.00  0.00    +0.000 OA
ATOM     12  C   UNL     1       7.730   5.664  13.567  0.00  0.00    +0.000 C 
ENDBRANCH   6  11
BRANCH   4  13
ATOM     13  C   UNL     1       3.654   3.649  16.924  0.00  0.00    +0.000 C 
BRANCH  13  14
ATOM     14  N   UNL     1       2.832   3.908  18.086  0.00  0.00    +0.000 N 
ATOM     15  C   UNL     1       3.010   3.193  19.249  0.00  0.00    +0.000 C 
ATOM     16  O   UNL     1       3.917   2.375  19.380  0.00  0.00    +0.000 OA
ATOM     17  H   UNL     1       1.979   4.428  17.939  0.00  0.00    +0.000 HD
BRANCH  15  18
ATOM     18  C   UNL     1       2.017   3.529  20.384  0.00  0.00    +0.000 C 
ATOM     19  C   UNL     1       2.048   5.031  20.701  0.00  0.00    +0.000 C 
ATOM     20  C   UNL     1       0.589   3.151  19.955  0.00  0.00    +0.000 C 
ATOM     21  C   UNL     1       2.385   2.717  21.636  0.00  0.00    +0.000 C 
ENDBRANCH  15  18
ENDBRANCH  13  14
ENDBRANCH   4  13
TORSDOF 6
ENDMDL
MODEL 7
REMARK VINA RESULT:      -5.7      2.126      6.421
REMARK  Name = 
REMARK  12 active torsions:
REMARK  status: ('A' for Active; 'I' for Inactive)
REMARK    1  A    between atoms: C_1  and  O_2
REMARK    2  A    between atoms: O_2  and  C_3
REMARK    3  A    between atoms: C_6  and  C_7
REMARK    4  A    between atoms: C_7  and  N_8
REMARK    5  A    between atoms: C_9  and  C_11
REMARK    6  A    between atoms: C_11  and  C_12
REMARK    7  A    between atoms: C_11  and  C_13
REMARK    8  A    between atoms: C_11  and  C_14
REMARK    9  A    between atoms: C_15  and  O_16
REMARK   10  A    between atoms: O_16  and  C_17
REMARK   11  A    between atoms: C_18  and  O_19
REMARK   12  A    between atoms: O_19  and  C_20
REMARK                            x       y       z     vdW  Elec       q    Type
REMARK                         _______ _______ _______ _____ _____    ______ ____
ROOT
ATOM      1  C   UNL     1       4.496   4.751  17.650  0.00  0.00    +0.000 A 
ATOM      2  C   UNL     1       4.113   6.073  17.381  0.00  0.00    +0.000 A 
ATOM      3  C   UNL     1       3.291   6.770  18.259  0.00  0.00    +0.000 A 
ATOM      4  C   UNL     1       2.827   6.160  19.428  0.00  0.00    +0.000 A 
ATOM      5  C   UNL     1       3.148   4.805  19.682  0.00  0.00    +0.000 A 
ATOM      6  C   UNL     1       3.976   4.083  18.781  0.00  0.00    +0.000 A 
ENDROOT
BRANCH   1   8
ATOM      7  C   UNL     1       6.707   4.479  16.828  0.00  0.00    +0.000 C 
ATOM      8  O   UNL     1       5.337   4.084  16.793  0.00  0.00    +0.000 OA
ENDBRANCH   1   8
BRANCH   5   9
ATOM      9  O   UNL     1       2.569   4.332  20.838  0.00  0.00    +0.000 OA
ATOM     10  C   UNL     1       1.341   3.624  20.789  0.00  0.00    +0.000 C 
ENDBRANCH   5   9
BRANCH   6  11
ATOM     11  O   UNL     1       4.181   2.765  19.090  0.00  0.00    +0.000 OA
ATOM     12  C   UNL     1       3.441   1.727  18.475  0.00  0.00    +0.000 C 
ENDBRANCH   6  11
BRANCH   4  13
ATOM     13  C   UNL     1       1.958   6.966  20.367  0.00  0.00    +0.000 C 
BRANCH  13  14
ATOM     14  N   UNL     1       1.592   8.240  19.785  0.00  0.00    +0.000 N 
ATOM     15  C   UNL     1       0.988   9.214  20.547  0.00  0.00    +0.000 C 
ATOM     16  O   UNL     1       0.811   9.082  21.756  0.00  0.00    +0.000 OA
ATOM     17  H   UNL     1       1.555   8.292  18.778  0.00  0.00    +0.000 HD
BRANCH  15  18
ATOM     18  C   UNL     1       0.592  10.496  19.780  0.00  0.00    +0.000 C 
ATOM     19  C   UNL     1       1.475  10.673  18.536  0.00  0.00    +0.000 C 
ATOM     20  C   UNL     1      -0.875  10.398  19.326  0.00  0.00    +0.000 C 
ATOM     21  C   UNL     1       0.740  11.710  20.710  0.00  0.00    +0.000 C 
ENDBRANCH  15  18
ENDBRANCH  13  14
ENDBRANCH   4  13
TORSDOF 6
ENDMDL
MODEL 8
REMARK VINA RESULT:      -5.6      2.270      6.782
REMARK  Name = 
REMARK  12 active torsions:
REMARK  status: ('A' for Active; 'I' for Inactive)
REMARK    1  A    between atoms: C_1  and  O_2
REMARK    2  A    between atoms: O_2  and  C_3
REMARK    3  A    between atoms: C_6  and  C_7
REMARK    4  A    between atoms: C_7  and  N_8
REMARK    5  A    between atoms: C_9  and  C_11
REMARK    6  A    between atoms: C_11  and  C_12
REMARK    7  A    between atoms: C_11  and  C_13
REMARK    8  A    between atoms: C_11  and  C_14
REMARK    9  A    between atoms: C_15  and  O_16
REMARK   10  A    between atoms: O_16  and  C_17
REMARK   11  A    between atoms: C_18  and  O_19
REMARK   12  A    between atoms: O_19  and  C_20
REMARK                            x       y       z     vdW  Elec       q    Type
REMARK                         _______ _______ _______ _____ _____    ______ ____
ROOT
ATOM      1  C   UNL     1       3.574   3.711  17.551  0.00  0.00    +0.000 A 
ATOM      2  C   UNL     1       2.472   4.348  18.139  0.00  0.00    +0.000 A 
ATOM      3  C   UNL     1       2.380   5.735  18.162  0.00  0.00    +0.000 A 
ATOM      4  C   UNL     1       3.391   6.521  17.600  0.00  0.00    +0.000 A 
ATOM      5  C   UNL     1       4.541   5.896  17.062  0.00  0.00    +0.000 A 
ATOM      6  C   UNL     1       4.648   4.479  17.049  0.00  0.00    +0.000 A 
ENDROOT
BRANCH   1   8
ATOM      7  C   UNL     1       3.328   1.656  18.714  0.00  0.00    +0.000 C 
ATOM      8  O   UNL     1       3.638   2.340  17.502  0.00  0.00    +0.000 OA
ENDBRANCH   1   8
BRANCH   5   9
ATOM      9  O   UNL     1       5.469   6.803  16.602  0.00  0.00    +0.000 OA
ATOM     10  C   UNL     1       6.663   7.042  17.332  0.00  0.00    +0.000 C 
ENDBRANCH   5   9
BRANCH   6  11
ATOM     11  O   UNL     1       5.823   3.977  16.556  0.00  0.00    +0.000 OA
ATOM     12  C   UNL     1       6.056   3.845  15.166  0.00  0.00    +0.000 C 
ENDBRANCH   6  11
BRANCH   4  13
ATOM     13  C   UNL     1       3.234   8.025  17.624  0.00  0.00    +0.000 C 
BRANCH  13  14
ATOM     14  N   UNL     1       2.214   8.434  18.565  0.00  0.00    +0.000 N 
ATOM     15  C   UNL     1       1.672   9.698  18.511  0.00  0.00    +0.000 C 
ATOM     16  O   UNL     1       1.962  10.495  17.622  0.00  0.00    +0.000 OA
ATOM     17  H   UNL     1       2.105   7.874  19.399  0.00  0.00    +0.000 HD
BRANCH  15  18
ATOM     18  C   UNL     1       0.644  10.020  19.619  0.00  0.00    +0.000 C 
ATOM     19  C   UNL     1       0.954  11.380  20.262  0.00  0.00    +0.000 C 
ATOM     20  C   UNL     1      -0.770  10.078  19.015  0.00  0.00    +0.000 C 
ATOM     21  C   UNL     1       0.680   8.912  20.682  0.00  0.00    +0.000 C 
ENDBRANCH  15  18
ENDBRANCH  13  14
ENDBRANCH   4  13
TORSDOF 6
ENDMDL
MODEL 9
REMARK VINA RESULT:      -5.6      2.267      6.365
REMARK  Name = 
REMARK  12 active torsions:
REMARK  status: ('A' for Active; 'I' for Inactive)
REMARK    1  A    between atoms: C_1  and  O_2
REMARK    2  A    between atoms: O_2  and  C_3
REMARK    3  A    between atoms: C_6  and  C_7
REMARK    4  A    between atoms: C_7  and  N_8
REMARK    5  A    between atoms: C_9  and  C_11
REMARK    6  A    between atoms: C_11  and  C_12
REMARK    7  A    between atoms: C_11  and  C_13
REMARK    8  A    between atoms: C_11  and  C_14
REMARK    9  A    between atoms: C_15  and  O_16
REMARK   10  A    between atoms: O_16  and  C_17
REMARK   11  A    between atoms: C_18  and  O_19
REMARK   12  A    between atoms: O_19  and  C_20
REMARK                            x       y       z     vdW  Elec       q    Type
REMARK                         _______ _______ _______ _____ _____    ______ ____
ROOT
ATOM      1  C   UNL     1       3.962   5.849  17.692  0.00  0.00    +0.000 A 
ATOM      2  C   UNL     1       3.410   7.137  17.652  0.00  0.00    +0.000 A 
ATOM      3  C   UNL     1       2.610   7.602  18.690  0.00  0.00    +0.000 A 
ATOM      4  C   UNL     1       2.337   6.786  19.792  0.00  0.00    +0.000 A 
ATOM      5  C   UNL     1       2.831   5.459  19.817  0.00  0.00    +0.000 A 
ATOM      6  C   UNL     1       3.638   4.975  18.753  0.00  0.00    +0.000 A 
ENDROOT
BRANCH   1   8
ATOM      7  C   UNL     1       5.274   6.420  15.797  0.00  0.00    +0.000 C 
ATOM      8  O   UNL     1       4.781   5.413  16.678  0.00  0.00    +0.000 OA
ENDBRANCH   1   8
BRANCH   5   9
ATOM      9  O   UNL     1       2.429   4.767  20.937  0.00  0.00    +0.000 OA
ATOM     10  C   UNL     1       1.333   3.869  20.871  0.00  0.00    +0.000 C 
ENDBRANCH   5   9
BRANCH   6  11
ATOM     11  O   UNL     1       4.019   3.663  18.847  0.00  0.00    +0.000 OA
ATOM     12  C   UNL     1       3.409   2.648  18.071  0.00  0.00    +0.000 C 
ENDBRANCH   6  11
BRANCH   4  13
ATOM     13  C   UNL     1       1.484   7.343  20.909  0.00  0.00    +0.000 C 
BRANCH  13  14
ATOM     14  N   UNL     1       0.929   8.632  20.557  0.00  0.00    +0.000 N 
ATOM     15  C   UNL     1       0.904   9.662  21.470  0.00  0.00    +0.000 C 
ATOM     16  O   UNL     1       1.421   9.563  22.580  0.00  0.00    +0.000 OA
ATOM     17  H   UNL     1       0.342   8.671  19.736  0.00  0.00    +0.000 HD
BRANCH  15  18
ATOM     18  C   UNL     1       0.221  10.958  20.979  0.00  0.00    +0.000 C 
ATOM     19  C   UNL     1      -0.578  10.693  19.695  0.00  0.00    +0.000 C 
ATOM     20  C   UNL     1      -0.748  11.475  22.057  0.00  0.00    +0.000 C 
ATOM     21  C   UNL     1       1.291  12.031  20.724  0.00  0.00    +0.000 C 
ENDBRANCH  15  18
ENDBRANCH  13  14
ENDBRANCH   4  13
TORSDOF 6
ENDMDL
