MODEL 1
REMARK VINA RESULT:      -8.4      0.000      0.000
REMARK  Name = 
REMARK  10 active torsions:
REMARK  status: ('A' for Active; 'I' for Inactive)
REMARK    1  A    between atoms: C_1  and  C_2
REMARK    2  A    between atoms: C_2  and  C_3
REMARK    3  A    between atoms: C_3  and  C_4
REMARK    4  A    between atoms: N_6  and  C_7
REMARK    5  A    between atoms: C_7  and  C_8
REMARK    6  A    between atoms: C_7  and  C_17
REMARK    7  A    between atoms: C_11  and  C_12
REMARK    8  A    between atoms: C_12  and  C_13
REMARK    9  A    between atoms: C_12  and  C_14
REMARK   10  A    between atoms: C_27  and  O_28
REMARK                            x       y       z     vdW  Elec       q    Type
REMARK                         _______ _______ _______ _____ _____    ______ ____
ROOT
ATOM      1  C   UNL     1       6.551   5.683  17.321  0.00  0.00    +0.000 C 
ENDROOT
BRANCH   1   2
ATOM      2  C   UNL     1       5.217   5.473  18.033  0.00  0.00    +0.000 A 
ATOM      3  C   UNL     1       4.224   6.451  17.870  0.00  0.00    +0.000 A 
ATOM      4  C   UNL     1       2.921   6.237  18.326  0.00  0.00    +0.000 A 
ATOM      5 CL   UNL     1       1.769   7.503  18.059  0.00  0.00    +0.000 Cl
ATOM      6  C   UNL     1       2.565   5.031  18.972  0.00  0.00    +0.000 A 
ATOM      7  C   UNL     1       1.251   4.670  19.341  0.00  0.00    +0.000 A 
ATOM      8  C   UNL     1       1.005   3.473  20.002  0.00  0.00    +0.000 A 
ATOM      9  C   UNL     1       2.086   2.671  20.306  0.00  0.00    +0.000 A 
ATOM     10  N   UNL     1       3.354   2.947  19.927  0.00  0.00    +0.000 NA
ATOM     11  C   UNL     1       3.578   4.094  19.248  0.00  0.00    +0.000 A 
ATOM     12  C   UNL     1       4.867   4.324  18.756  0.00  0.00    +0.000 A 
BRANCH  12  13
ATOM     13  O   UNL     1       5.797   3.324  18.958  0.00  0.00    +0.000 OA
ATOM     14  H   UNL     1       5.844   2.871  18.086  0.00  0.00    +0.000 HD
ENDBRANCH  12  13
ENDBRANCH   1   2
BRANCH   1  15
ATOM     15  C   UNL     1       7.300   6.937  17.756  0.00  0.00    +0.000 A 
ATOM     16  C   UNL     1       8.199   6.960  18.834  0.00  0.00    +0.000 A 
ATOM     17  C   UNL     1       8.879   8.131  19.185  0.00  0.00    +0.000 A 
ATOM     18  C   UNL     1       8.667   9.326  18.487  0.00  0.00    +0.000 A 
ATOM     19  C   UNL     1       7.730   9.324  17.444  0.00  0.00    +0.000 A 
ATOM     20  C   UNL     1       7.060   8.151  17.086  0.00  0.00    +0.000 A 
BRANCH  18  21
ATOM     21  C   UNL     1       9.459  10.571  18.856  0.00  0.00    +0.000 C 
ATOM     22  C   UNL     1       9.001  11.785  18.042  0.00  0.00    +0.000 C 
ATOM     23  C   UNL     1       9.399  10.872  20.355  0.00  0.00    +0.000 C 
ENDBRANCH  18  21
ENDBRANCH   1  15
BRANCH   1  26
ATOM     24  C   UNL     1       6.253   4.523  15.156  0.00  0.00    +0.000 C 
ATOM     25  O   UNL     1       6.125   3.410  15.663  0.00  0.00    +0.000 OA
ATOM     26  N   UNL     1       6.443   5.668  15.878  0.00  0.00    +0.000 N 
ATOM     27  H   UNL     1       6.367   6.575  15.432  0.00  0.00    +0.000 HD
BRANCH  24  28
ATOM     28  C   UNL     1       6.228   4.723  13.656  0.00  0.00    +0.000 C 
BRANCH  28  30
ATOM     29  C   UNL     1       4.946   3.372  11.923  0.00  0.00    +0.000 C 
ATOM     30  C   UNL     1       6.135   3.414  12.874  0.00  0.00    +0.000 C 
ENDBRANCH  28  30
ENDBRANCH  24  28
ENDBRANCH   1  26
TORSDOF 7
ENDMDL
MODEL 2
REMARK VINA RESULT:      -8.3      0.629      1.130
REMARK  Name = 
REMARK  10 active torsions:
REMARK  status: ('A' for Active; 'I' for Inactive)
REMARK    1  A    between atoms: C_1  and  C_2
REMARK    2  A    between atoms: C_2  and  C_3
REMARK    3  A    between atoms: C_3  and  C_4
REMARK    4  A    between atoms: N_6  and  C_7
REMARK    5  A    between atoms: C_7  and  C_8
REMARK    6  A    between atoms: C_7  and  C_17
REMARK    7  A    between atoms: C_11  and  C_12
REMARK    8  A    between atoms: C_12  and  C_13
REMARK    9  A    between atoms: C_12  and  C_14
REMARK   10  A    between atoms: C_27  and  O_28
REMARK                            x       y       z     vdW  Elec       q    Type
REMARK                         _______ _______ _______ _____ _____    ______ ____
ROOT
ATOM      1  C   UNL     1       6.227   5.647  17.508  0.00  0.00    +0.000 C 
ENDROOT
BRANCH   1   2
ATOM      2  C   UNL     1       5.036   5.439  18.440  0.00  0.00    +0.000 A 
ATOM      3  C   UNL     1       4.147   6.510  18.618  0.00  0.00    +0.000 A 
ATOM      4  C   UNL     1       2.937   6.336  19.295  0.00  0.00    +0.000 A 
ATOM      5 CL   UNL     1       1.905   7.719  19.443  0.00  0.00    +0.000 Cl
ATOM      6  C   UNL     1       2.577   5.077  19.829  0.00  0.00    +0.000 A 
ATOM      7  C   UNL     1       1.323   4.774  20.403  0.00  0.00    +0.000 A 
ATOM      8  C   UNL     1       1.074   3.512  20.931  0.00  0.00    +0.000 A 
ATOM      9  C   UNL     1       2.096   2.586  20.896  0.00  0.00    +0.000 A 
ATOM     10  N   UNL     1       3.293   2.812  20.309  0.00  0.00    +0.000 NA
ATOM     11  C   UNL     1       3.512   4.028  19.762  0.00  0.00    +0.000 A 
ATOM     12  C   UNL     1       4.702   4.225  19.055  0.00  0.00    +0.000 A 
BRANCH  12  13
ATOM     13  O   UNL     1       5.536   3.131  18.925  0.00  0.00    +0.000 OA
ATOM     14  H   UNL     1       6.411   3.471  19.220  0.00  0.00    +0.000 HD
ENDBRANCH  12  13
ENDBRANCH   1   2
BRANCH   1  15
ATOM     15  C   UNL     1       7.049   6.894  17.812  0.00  0.00    +0.000 A 
ATOM     16  C   UNL     1       6.902   8.101  17.111  0.00  0.00    +0.000 A 
ATOM     17  C   UNL     1       7.666   9.226  17.439  0.00  0.00    +0.000 A 
ATOM     18  C   UNL     1       8.619   9.178  18.463  0.00  0.00    +0.000 A 
ATOM     19  C   UNL     1       8.809   7.961  19.133  0.00  0.00    +0.000 A 
ATOM     20  C   UNL     1       8.038   6.841  18.812  0.00  0.00    +0.000 A 
BRANCH  18  21
ATOM     21  C   UNL     1       9.398  10.432  18.834  0.00  0.00    +0.000 C 
ATOM     22  C   UNL     1       8.951  11.633  17.996  0.00  0.00    +0.000 C 
ATOM     23  C   UNL     1       9.305  10.750  20.328  0.00  0.00    +0.000 C 
ENDBRANCH  18  21
ENDBRANCH   1  15
BRANCH   1  26
ATOM     24  C   UNL     1       5.843   4.505  15.347  0.00  0.00    +0.000 C 
ATOM     25  O   UNL     1       6.087   3.384  15.788  0.00  0.00    +0.000 OA
ATOM     26  N   UNL     1       5.870   5.642  16.105  0.00  0.00    +0.000 N 
ATOM     27  H   UNL     1       5.493   6.510  15.743  0.00  0.00    +0.000 HD
BRANCH  24  28
ATOM     28  C   UNL     1       5.500   4.731  13.890  0.00  0.00    +0.000 C 
BRANCH  28  30
ATOM     29  C   UNL     1       6.758   3.602  11.987  0.00  0.00    +0.000 C 
ATOM     30  C   UNL     1       5.656   3.476  13.031  0.00  0.00    +0.000 C 
ENDBRANCH  28  30
ENDBRANCH  24  28
ENDBRANCH   1  26
TORSDOF 7
ENDMDL
MODEL 3
REMARK VINA RESULT:      -8.0      1.095      1.129
REMARK  Name = 
REMARK  10 active torsions:
REMARK  status: ('A' for Active; 'I' for Inactive)
REMARK    1  A    between atoms: C_1  and  C_2
REMARK    2  A    between atoms: C_2  and  C_3
REMARK    3  A    between atoms: C_3  and  C_4
REMARK    4  A    between atoms: N_6  and  C_7
REMARK    5  A    between atoms: C_7  and  C_8
REMARK    6  A    between atoms: C_7  and  C_17
REMARK    7  A    between atoms: C_11  and  C_12
REMARK    8  A    between atoms: C_12  and  C_13
REMARK    9  A    between atoms: C_12  and  C_14
REMARK   10  A    between atoms: C_27  and  O_28
REMARK                            x       y       z     vdW  Elec       q    Type
REMARK                         _______ _______ _______ _____ _____    ______ ____
ROOT
ATOM      1  C   UNL     1       6.134   5.090  17.820  0.00  0.00    +0.000 C 
ENDROOT
BRANCH   1   2
ATOM      2  C   UNL     1       4.943   4.946  18.765  0.00  0.00    +0.000 A 
ATOM      3  C   UNL     1       4.079   6.044  18.905  0.00  0.00    +0.000 A 
ATOM      4  C   UNL     1       2.870   5.924  19.593  0.00  0.00    +0.000 A 
ATOM      5 CL   UNL     1       1.871   7.336  19.692  0.00  0.00    +0.000 Cl
ATOM      6  C   UNL     1       2.483   4.696  20.176  0.00  0.00    +0.000 A 
ATOM      7  C   UNL     1       1.225   4.444  20.767  0.00  0.00    +0.000 A 
ATOM      8  C   UNL     1       0.950   3.210  21.343  0.00  0.00    +0.000 A 
ATOM      9  C   UNL     1       1.949   2.259  21.340  0.00  0.00    +0.000 A 
ATOM     10  N   UNL     1       3.148   2.434  20.740  0.00  0.00    +0.000 NA
ATOM     11  C   UNL     1       3.393   3.623  20.146  0.00  0.00    +0.000 A 
ATOM     12  C   UNL     1       4.584   3.765  19.427  0.00  0.00    +0.000 A 
BRANCH  12  13
ATOM     13  O   UNL     1       5.391   2.647  19.336  0.00  0.00    +0.000 OA
ATOM     14  H   UNL     1       6.292   3.022  19.212  0.00  0.00    +0.000 HD
ENDBRANCH  12  13
ENDBRANCH   1   2
BRANCH   1  15
ATOM     15  C   UNL     1       6.908   6.392  17.985  0.00  0.00    +0.000 A 
ATOM     16  C   UNL     1       7.958   6.550  18.903  0.00  0.00    +0.000 A 
ATOM     17  C   UNL     1       8.654   7.760  19.007  0.00  0.00    +0.000 A 
ATOM     18  C   UNL     1       8.309   8.860  18.213  0.00  0.00    +0.000 A 
ATOM     19  C   UNL     1       7.227   8.727  17.331  0.00  0.00    +0.000 A 
ATOM     20  C   UNL     1       6.541   7.515  17.221  0.00  0.00    +0.000 A 
BRANCH  18  21
ATOM     21  C   UNL     1       9.117  10.147  18.308  0.00  0.00    +0.000 C 
ATOM     22  C   UNL     1       8.356  11.329  17.700  0.00  0.00    +0.000 C 
ATOM     23  C   UNL     1       9.541  10.458  19.744  0.00  0.00    +0.000 C 
ENDBRANCH  18  21
ENDBRANCH   1  15
BRANCH   1  26
ATOM     24  C   UNL     1       6.709   4.602  15.464  0.00  0.00    +0.000 C 
ATOM     25  O   UNL     1       7.901   4.413  15.696  0.00  0.00    +0.000 OA
ATOM     26  N   UNL     1       5.789   4.913  16.425  0.00  0.00    +0.000 N 
ATOM     27  H   UNL     1       4.798   4.886  16.216  0.00  0.00    +0.000 HD
BRANCH  24  28
ATOM     28  C   UNL     1       6.148   4.522  14.060  0.00  0.00    +0.000 C 
BRANCH  28  30
ATOM     29  C   UNL     1       7.043   3.725  11.816  0.00  0.00    +0.000 C 
ATOM     30  C   UNL     1       7.208   4.699  12.974  0.00  0.00    +0.000 C 
ENDBRANCH  28  30
ENDBRANCH  24  28
ENDBRANCH   1  26
TORSDOF 7
ENDMDL
MODEL 4
REMARK VINA RESULT:      -7.5      0.628      1.351
REMARK  Name = 
REMARK  10 active torsions:
REMARK  status: ('A' for Active; 'I' for Inactive)
REMARK    1  A    between atoms: C_1  and  C_2
REMARK    2  A    between atoms: C_2  and  C_3
REMARK    3  A    between atoms: C_3  and  C_4
REMARK    4  A    between atoms: N_6  and  C_7
REMARK    5  A    between atoms: C_7  and  C_8
REMARK    6  A    between atoms: C_7  and  C_17
REMARK    7  A    between atoms: C_11  and  C_12
REMARK    8  A    between atoms: C_12  and  C_13
REMARK    9  A    between atoms: C_12  and  C_14
REMARK   10  A    between atoms: C_27  and  O_28
REMARK                            x       y       z     vdW  Elec       q    Type
REMARK                         _______ _______ _______ _____ _____    ______ ____
ROOT
ATOM      1  C   UNL     1       6.505   5.570  17.418  0.00  0.00    +0.000 C 
ENDROOT
BRANCH   1   2
ATOM      2  C   UNL     1       5.166   5.381  18.128  0.00  0.00    +0.000 A 
ATOM      3  C   UNL     1       4.178   6.360  17.938  0.00  0.00    +0.000 A 
ATOM      4  C   UNL     1       2.872   6.161  18.392  0.00  0.00    +0.000 A 
ATOM      5 CL   UNL     1       1.727   7.425  18.092  0.00  0.00    +0.000 Cl
ATOM      6  C   UNL     1       2.508   4.971  19.062  0.00  0.00    +0.000 A 
ATOM      7  C   UNL     1       1.190   4.624  19.432  0.00  0.00    +0.000 A 
ATOM      8  C   UNL     1       0.936   3.442  20.118  0.00  0.00    +0.000 A 
ATOM      9  C   UNL     1       2.012   2.643  20.445  0.00  0.00    +0.000 A 
ATOM     10  N   UNL     1       3.283   2.905  20.066  0.00  0.00    +0.000 NA
ATOM     11  C   UNL     1       3.516   4.036  19.364  0.00  0.00    +0.000 A 
ATOM     12  C   UNL     1       4.807   4.250  18.873  0.00  0.00    +0.000 A 
BRANCH  12  13
ATOM     13  O   UNL     1       5.733   3.250  19.102  0.00  0.00    +0.000 OA
ATOM     14  H   UNL     1       6.031   2.999  18.199  0.00  0.00    +0.000 HD
ENDBRANCH  12  13
ENDBRANCH   1   2
BRANCH   1  15
ATOM     15  C   UNL     1       7.202   6.885  17.741  0.00  0.00    +0.000 A 
ATOM     16  C   UNL     1       6.990   8.066  17.013  0.00  0.00    +0.000 A 
ATOM     17  C   UNL     1       7.639   9.257  17.358  0.00  0.00    +0.000 A 
ATOM     18  C   UNL     1       8.540   9.303  18.429  0.00  0.00    +0.000 A 
ATOM     19  C   UNL     1       8.798   8.115  19.128  0.00  0.00    +0.000 A 
ATOM     20  C   UNL     1       8.140   6.930  18.789  0.00  0.00    +0.000 A 
BRANCH  18  21
ATOM     21  C   UNL     1       9.191  10.623  18.816  0.00  0.00    +0.000 C 
ATOM     22  C   UNL     1       9.720  10.583  20.253  0.00  0.00    +0.000 C 
ATOM     23  C   UNL     1      10.299  11.029  17.843  0.00  0.00    +0.000 C 
ENDBRANCH  18  21
ENDBRANCH   1  15
BRANCH   1  26
ATOM     24  C   UNL     1       6.134   4.222  15.377  0.00  0.00    +0.000 C 
ATOM     25  O   UNL     1       5.887   3.187  15.992  0.00  0.00    +0.000 OA
ATOM     26  N   UNL     1       6.424   5.413  15.981  0.00  0.00    +0.000 N 
ATOM     27  H   UNL     1       6.446   6.271  15.442  0.00  0.00    +0.000 HD
BRANCH  24  28
ATOM     28  C   UNL     1       6.157   4.264  13.864  0.00  0.00    +0.000 C 
BRANCH  28  30
ATOM     29  C   UNL     1       7.404   5.128  11.821  0.00  0.00    +0.000 C 
ATOM     30  C   UNL     1       7.490   4.747  13.293  0.00  0.00    +0.000 C 
ENDBRANCH  28  30
ENDBRANCH  24  28
ENDBRANCH   1  26
TORSDOF 7
ENDMDL
MODEL 5
REMARK VINA RESULT:      -7.5      7.735     10.231
REMARK  Name = 
REMARK  10 active torsions:
REMARK  status: ('A' for Active; 'I' for Inactive)
REMARK    1  A    between atoms: C_1  and  C_2
REMARK    2  A    between atoms: C_2  and  C_3
REMARK    3  A    between atoms: C_3  and  C_4
REMARK    4  A    between atoms: N_6  and  C_7
REMARK    5  A    between atoms: C_7  and  C_8
REMARK    6  A    between atoms: C_7  and  C_17
REMARK    7  A    between atoms: C_11  and  C_12
REMARK    8  A    between atoms: C_12  and  C_13
REMARK    9  A    between atoms: C_12  and  C_14
REMARK   10  A    between atoms: C_27  and  O_28
REMARK                            x       y       z     vdW  Elec       q    Type
REMARK                         _______ _______ _______ _____ _____    ______ ____
ROOT
ATOM      1  C   UNL     1      -0.593  11.444  18.860  0.00  0.00    +0.000 C 
ENDROOT
BRANCH   1   2
ATOM      2  C   UNL     1       0.136  12.782  18.963  0.00  0.00    +0.000 A 
ATOM      3  C   UNL     1       1.508  12.806  18.671  0.00  0.00    +0.000 A 
ATOM      4  C   UNL     1       2.197  14.016  18.554  0.00  0.00    +0.000 A 
ATOM      5 CL   UNL     1       3.885  13.933  18.175  0.00  0.00    +0.000 Cl
ATOM      6  C   UNL     1       1.534  15.251  18.733  0.00  0.00    +0.000 A 
ATOM      7  C   UNL     1       2.111  16.518  18.499  0.00  0.00    +0.000 A 
ATOM      8  C   UNL     1       1.386  17.680  18.734  0.00  0.00    +0.000 A 
ATOM      9  C   UNL     1       0.103  17.551  19.225  0.00  0.00    +0.000 A 
ATOM     10  N   UNL     1      -0.511  16.361  19.413  0.00  0.00    +0.000 NA
ATOM     11  C   UNL     1       0.188  15.236  19.143  0.00  0.00    +0.000 A 
ATOM     12  C   UNL     1      -0.482  14.012  19.226  0.00  0.00    +0.000 A 
BRANCH  12  13
ATOM     13  O   UNL     1      -1.830  14.059  19.525  0.00  0.00    +0.000 OA
ATOM     14  H   UNL     1      -1.849  14.070  20.509  0.00  0.00    +0.000 HD
ENDBRANCH  12  13
ENDBRANCH   1   2
BRANCH   1  15
ATOM     15  C   UNL     1       0.311  10.227  19.019  0.00  0.00    +0.000 A 
ATOM     16  C   UNL     1       0.590   9.635  20.261  0.00  0.00    +0.000 A 
ATOM     17  C   UNL     1       1.411   8.506  20.357  0.00  0.00    +0.000 A 
ATOM     18  C   UNL     1       2.001   7.944  19.218  0.00  0.00    +0.000 A 
ATOM     19  C   UNL     1       1.770   8.562  17.981  0.00  0.00    +0.000 A 
ATOM     20  C   UNL     1       0.941   9.682  17.885  0.00  0.00    +0.000 A 
BRANCH  18  21
ATOM     21  C   UNL     1       2.846   6.685  19.345  0.00  0.00    +0.000 C 
ATOM     22  C   UNL     1       2.127   5.611  20.167  0.00  0.00    +0.000 C 
ATOM     23  C   UNL     1       3.267   6.131  17.983  0.00  0.00    +0.000 C 
ENDBRANCH  18  21
ENDBRANCH   1  15
BRANCH   1  26
ATOM     24  C   UNL     1      -2.736  11.410  17.624  0.00  0.00    +0.000 C 
ATOM     25  O   UNL     1      -3.419  11.664  18.614  0.00  0.00    +0.000 OA
ATOM     26  N   UNL     1      -1.373  11.303  17.649  0.00  0.00    +0.000 N 
ATOM     27  H   UNL     1      -0.845  11.268  16.785  0.00  0.00    +0.000 HD
BRANCH  24  28
ATOM     28  C   UNL     1      -3.359  11.170  16.266  0.00  0.00    +0.000 C 
BRANCH  28  30
ATOM     29  C   UNL     1      -3.040   9.930  14.067  0.00  0.00    +0.000 C 
ATOM     30  C   UNL     1      -2.840   9.909  15.577  0.00  0.00    +0.000 C 
ENDBRANCH  28  30
ENDBRANCH  24  28
ENDBRANCH   1  26
TORSDOF 7
ENDMDL
MODEL 6
REMARK VINA RESULT:      -7.4      6.598      9.500
REMARK  Name = 
REMARK  10 active torsions:
REMARK  status: ('A' for Active; 'I' for Inactive)
REMARK    1  A    between atoms: C_1  and  C_2
REMARK    2  A    between atoms: C_2  and  C_3
REMARK    3  A    between atoms: C_3  and  C_4
REMARK    4  A    between atoms: N_6  and  C_7
REMARK    5  A    between atoms: C_7  and  C_8
REMARK    6  A    between atoms: C_7  and  C_17
REMARK    7  A    between atoms: C_11  and  C_12
REMARK    8  A    between atoms: C_12  and  C_13
REMARK    9  A    between atoms: C_12  and  C_14
REMARK   10  A    between atoms: C_27  and  O_28
REMARK                            x       y       z     vdW  Elec       q    Type
REMARK                         _______ _______ _______ _____ _____    ______ ____
ROOT
ATOM      1  C   UNL     1       0.069  11.080  19.049  0.00  0.00    +0.000 C 
ENDROOT
BRANCH   1   2
ATOM      2  C   UNL     1       0.911  12.326  19.312  0.00  0.00    +0.000 A 
ATOM      3  C   UNL     1       0.631  13.077  20.464  0.00  0.00    +0.000 A 
ATOM      4  C   UNL     1       1.478  14.110  20.873  0.00  0.00    +0.000 A 
ATOM      5 CL   UNL     1       1.049  14.962  22.319  0.00  0.00    +0.000 Cl
ATOM      6  C   UNL     1       2.638  14.435  20.134  0.00  0.00    +0.000 A 
ATOM      7  C   UNL     1       3.620  15.364  20.541  0.00  0.00    +0.000 A 
ATOM      8  C   UNL     1       4.713  15.640  19.728  0.00  0.00    +0.000 A 
ATOM      9  C   UNL     1       4.787  14.999  18.509  0.00  0.00    +0.000 A 
ATOM     10  N   UNL     1       3.902  14.063  18.099  0.00  0.00    +0.000 NA
ATOM     11  C   UNL     1       2.864  13.770  18.914  0.00  0.00    +0.000 A 
ATOM     12  C   UNL     1       2.014  12.723  18.545  0.00  0.00    +0.000 A 
BRANCH  12  13
ATOM     13  O   UNL     1       2.343  12.031  17.396  0.00  0.00    +0.000 OA
ATOM     14  H   UNL     1       3.151  11.531  17.650  0.00  0.00    +0.000 HD
ENDBRANCH  12  13
ENDBRANCH   1   2
BRANCH   1  15
ATOM     15  C   UNL     1       0.852   9.774  19.104  0.00  0.00    +0.000 A 
ATOM     16  C   UNL     1       1.407   9.163  17.968  0.00  0.00    +0.000 A 
ATOM     17  C   UNL     1       2.136   7.973  18.069  0.00  0.00    +0.000 A 
ATOM     18  C   UNL     1       2.315   7.339  19.304  0.00  0.00    +0.000 A 
ATOM     19  C   UNL     1       1.719   7.915  20.435  0.00  0.00    +0.000 A 
ATOM     20  C   UNL     1       1.001   9.109  20.335  0.00  0.00    +0.000 A 
BRANCH  18  21
ATOM     21  C   UNL     1       3.157   6.075  19.393  0.00  0.00    +0.000 C 
ATOM     22  C   UNL     1       2.504   5.034  20.307  0.00  0.00    +0.000 C 
ATOM     23  C   UNL     1       3.450   5.477  18.015  0.00  0.00    +0.000 C 
ENDBRANCH  18  21
ENDBRANCH   1  15
BRANCH   1  26
ATOM     24  C   UNL     1      -1.998  11.484  17.751  0.00  0.00    +0.000 C 
ATOM     25  O   UNL     1      -2.664  11.807  18.732  0.00  0.00    +0.000 OA
ATOM     26  N   UNL     1      -0.677  11.138  17.810  0.00  0.00    +0.000 N 
ATOM     27  H   UNL     1      -0.130  11.052  16.962  0.00  0.00    +0.000 HD
BRANCH  24  28
ATOM     28  C   UNL     1      -2.601  11.424  16.364  0.00  0.00    +0.000 C 
BRANCH  28  30
ATOM     29  C   UNL     1      -3.017   9.956  14.328  0.00  0.00    +0.000 C 
ATOM     30  C   UNL     1      -2.734  10.001  15.823  0.00  0.00    +0.000 C 
ENDBRANCH  28  30
ENDBRANCH  24  28
ENDBRANCH   1  26
TORSDOF 7
ENDMDL
MODEL 7
REMARK VINA RESULT:      -7.3      7.058      9.596
REMARK  Name = 
REMARK  10 active torsions:
REMARK  status: ('A' for Active; 'I' for Inactive)
REMARK    1  A    between atoms: C_1  and  C_2
REMARK    2  A    between atoms: C_2  and  C_3
REMARK    3  A    between atoms: C_3  and  C_4
REMARK    4  A    between atoms: N_6  and  C_7
REMARK    5  A    between atoms: C_7  and  C_8
REMARK    6  A    between atoms: C_7  and  C_17
REMARK    7  A    between atoms: C_11  and  C_12
REMARK    8  A    between atoms: C_12  and  C_13
REMARK    9  A    between atoms: C_12  and  C_14
REMARK   10  A    between atoms: C_27  and  O_28
REMARK                            x       y       z     vdW  Elec       q    Type
REMARK                         _______ _______ _______ _____ _____    ______ ____
ROOT
ATOM      1  C   UNL     1       0.148  10.963  19.202  0.00  0.00    +0.000 C 
ENDROOT
BRANCH   1   2
ATOM      2  C   UNL     1       0.971  12.198  19.562  0.00  0.00    +0.000 A 
ATOM      3  C   UNL     1       1.744  12.789  18.550  0.00  0.00    +0.000 A 
ATOM      4  C   UNL     1       2.365  14.025  18.749  0.00  0.00    +0.000 A 
ATOM      5 CL   UNL     1       3.281  14.673  17.430  0.00  0.00    +0.000 Cl
ATOM      6  C   UNL     1       2.239  14.713  19.978  0.00  0.00    +0.000 A 
ATOM      7  C   UNL     1       2.712  16.020  20.222  0.00  0.00    +0.000 A 
ATOM      8  C   UNL     1       2.569  16.601  21.476  0.00  0.00    +0.000 A 
ATOM      9  C   UNL     1       1.978  15.850  22.471  0.00  0.00    +0.000 A 
ATOM     10  N   UNL     1       1.461  14.617  22.272  0.00  0.00    +0.000 NA
ATOM     11  C   UNL     1       1.568  14.075  21.038  0.00  0.00    +0.000 A 
ATOM     12  C   UNL     1       0.935  12.852  20.801  0.00  0.00    +0.000 A 
BRANCH  12  13
ATOM     13  O   UNL     1       0.197  12.321  21.842  0.00  0.00    +0.000 OA
ATOM     14  H   UNL     1       0.002  11.404  21.544  0.00  0.00    +0.000 HD
ENDBRANCH  12  13
ENDBRANCH   1   2
BRANCH   1  15
ATOM     15  C   UNL     1       0.949   9.667  19.167  0.00  0.00    +0.000 A 
ATOM     16  C   UNL     1       1.518   9.147  17.994  0.00  0.00    +0.000 A 
ATOM     17  C   UNL     1       2.262   7.963  18.013  0.00  0.00    +0.000 A 
ATOM     18  C   UNL     1       2.445   7.244  19.201  0.00  0.00    +0.000 A 
ATOM     19  C   UNL     1       1.835   7.729  20.367  0.00  0.00    +0.000 A 
ATOM     20  C   UNL     1       1.102   8.918  20.349  0.00  0.00    +0.000 A 
BRANCH  18  21
ATOM     21  C   UNL     1       3.304   5.988  19.204  0.00  0.00    +0.000 C 
ATOM     22  C   UNL     1       2.538   4.791  19.775  0.00  0.00    +0.000 C 
ATOM     23  C   UNL     1       3.858   5.663  17.816  0.00  0.00    +0.000 C 
ENDBRANCH  18  21
ENDBRANCH   1  15
BRANCH   1  26
ATOM     24  C   UNL     1      -1.938  11.323  17.921  0.00  0.00    +0.000 C 
ATOM     25  O   UNL     1      -2.640  11.456  18.922  0.00  0.00    +0.000 OA
ATOM     26  N   UNL     1      -0.590  11.101  17.965  0.00  0.00    +0.000 N 
ATOM     27  H   UNL     1      -0.030  11.174  17.123  0.00  0.00    +0.000 HD
BRANCH  24  28
ATOM     28  C   UNL     1      -2.521  11.377  16.526  0.00  0.00    +0.000 C 
BRANCH  28  30
ATOM     29  C   UNL     1      -3.087  10.040  14.436  0.00  0.00    +0.000 C 
ATOM     30  C   UNL     1      -2.789   9.996  15.929  0.00  0.00    +0.000 C 
ENDBRANCH  28  30
ENDBRANCH  24  28
ENDBRANCH   1  26
TORSDOF 7
ENDMDL
MODEL 8
REMARK VINA RESULT:      -7.2      7.289      9.745
REMARK  Name = 
REMARK  10 active torsions:
REMARK  status: ('A' for Active; 'I' for Inactive)
REMARK    1  A    between atoms: C_1  and  C_2
REMARK    2  A    between atoms: C_2  and  C_3
REMARK    3  A    between atoms: C_3  and  C_4
REMARK    4  A    between atoms: N_6  and  C_7
REMARK    5  A    between atoms: C_7  and  C_8
REMARK    6  A    between atoms: C_7  and  C_17
REMARK    7  A    between atoms: C_11  and  C_12
REMARK    8  A    between atoms: C_12  and  C_13
REMARK    9  A    between atoms: C_12  and  C_14
REMARK   10  A    between atoms: C_27  and  O_28
REMARK                            x       y       z     vdW  Elec       q    Type
REMARK                         _______ _______ _______ _____ _____    ______ ____
ROOT
ATOM      1  C   UNL     1       0.519  11.429  18.864  0.00  0.00    +0.000 C 
ENDROOT
BRANCH   1   2
ATOM      2  C   UNL     1      -0.991  11.546  19.058  0.00  0.00    +0.000 A 
ATOM      3  C   UNL     1      -1.459  12.077  20.270  0.00  0.00    +0.000 A 
ATOM      4  C   UNL     1      -2.808  12.395  20.443  0.00  0.00    +0.000 A 
ATOM      5 CL   UNL     1      -3.276  13.062  21.971  0.00  0.00    +0.000 Cl
ATOM      6  C   UNL     1      -3.744  12.184  19.405  0.00  0.00    +0.000 A 
ATOM      7  C   UNL     1      -5.093  12.600  19.438  0.00  0.00    +0.000 A 
ATOM      8  C   UNL     1      -5.946  12.317  18.378  0.00  0.00    +0.000 A 
ATOM      9  C   UNL     1      -5.439  11.598  17.316  0.00  0.00    +0.000 A 
ATOM     10  N   UNL     1      -4.143  11.226  17.214  0.00  0.00    +0.000 NA
ATOM     11  C   UNL     1      -3.310  11.541  18.230  0.00  0.00    +0.000 A 
ATOM     12  C   UNL     1      -1.949  11.259  18.076  0.00  0.00    +0.000 A 
BRANCH  12  13
ATOM     13  O   UNL     1      -1.558  10.729  16.861  0.00  0.00    +0.000 OA
ATOM     14  H   UNL     1      -1.839   9.788  16.918  0.00  0.00    +0.000 HD
ENDBRANCH  12  13
ENDBRANCH   1   2
BRANCH   1  15
ATOM     15  C   UNL     1       1.072  10.028  19.101  0.00  0.00    +0.000 A 
ATOM     16  C   UNL     1       1.036   9.389  20.350  0.00  0.00    +0.000 A 
ATOM     17  C   UNL     1       1.539   8.094  20.516  0.00  0.00    +0.000 A 
ATOM     18  C   UNL     1       2.117   7.402  19.445  0.00  0.00    +0.000 A 
ATOM     19  C   UNL     1       2.205   8.055  18.207  0.00  0.00    +0.000 A 
ATOM     20  C   UNL     1       1.692   9.343  18.040  0.00  0.00    +0.000 A 
BRANCH  18  21
ATOM     21  C   UNL     1       2.608   5.975  19.640  0.00  0.00    +0.000 C 
ATOM     22  C   UNL     1       1.675   5.187  20.564  0.00  0.00    +0.000 C 
ATOM     23  C   UNL     1       2.800   5.242  18.312  0.00  0.00    +0.000 C 
ENDBRANCH  18  21
ENDBRANCH   1  15
BRANCH   1  26
ATOM     24  C   UNL     1       2.346  13.071  19.152  0.00  0.00    +0.000 C 
ATOM     25  O   UNL     1       2.743  12.974  17.993  0.00  0.00    +0.000 OA
ATOM     26  N   UNL     1       1.277  12.380  19.649  0.00  0.00    +0.000 N 
ATOM     27  H   UNL     1       0.882  12.622  20.550  0.00  0.00    +0.000 HD
BRANCH  24  28
ATOM     28  C   UNL     1       3.034  13.970  20.157  0.00  0.00    +0.000 C 
BRANCH  28  30
ATOM     29  C   UNL     1       2.656  16.323  19.263  0.00  0.00    +0.000 C 
ATOM     30  C   UNL     1       3.664  15.211  19.526  0.00  0.00    +0.000 C 
ENDBRANCH  28  30
ENDBRANCH  24  28
ENDBRANCH   1  26
TORSDOF 7
ENDMDL
MODEL 9
REMARK VINA RESULT:      -7.1      8.553     10.310
REMARK  Name = 
REMARK  10 active torsions:
REMARK  status: ('A' for Active; 'I' for Inactive)
REMARK    1  A    between atoms: C_1  and  C_2
REMARK    2  A    between atoms: C_2  and  C_3
REMARK    3  A    between atoms: C_3  and  C_4
REMARK    4  A    between atoms: N_6  and  C_7
REMARK    5  A    between atoms: C_7  and  C_8
REMARK    6  A    between atoms: C_7  and  C_17
REMARK    7  A    between atoms: C_11  and  C_12
REMARK    8  A    between atoms: C_12  and  C_13
REMARK    9  A    between atoms: C_12  and  C_14
REMARK   10  A    between atoms: C_27  and  O_28
REMARK                            x       y       z     vdW  Elec       q    Type
REMARK                         _______ _______ _______ _____ _____    ______ ____
ROOT
ATOM      1  C   UNL     1      -0.832  12.542  20.523  0.00  0.00    +0.000 C 
ENDROOT
BRANCH   1   2
ATOM      2  C   UNL     1      -2.112  12.382  19.706  0.00  0.00    +0.000 A 
ATOM      3  C   UNL     1      -1.996  11.902  18.392  0.00  0.00    +0.000 A 
ATOM      4  C   UNL     1      -3.128  11.547  17.655  0.00  0.00    +0.000 A 
ATOM      5 CL   UNL     1      -2.872  10.950  16.049  0.00  0.00    +0.000 Cl
ATOM      6  C   UNL     1      -4.424  11.666  18.207  0.00  0.00    +0.000 A 
ATOM      7  C   UNL     1      -5.608  11.205  17.592  0.00  0.00    +0.000 A 
ATOM      8  C   UNL     1      -6.842  11.397  18.202  0.00  0.00    +0.000 A 
ATOM      9  C   UNL     1      -6.869  12.073  19.404  0.00  0.00    +0.000 A 
ATOM     10  N   UNL     1      -5.759  12.486  20.057  0.00  0.00    +0.000 NA
ATOM     11  C   UNL     1      -4.560  12.258  19.477  0.00  0.00    +0.000 A 
ATOM     12  C   UNL     1      -3.408  12.579  20.201  0.00  0.00    +0.000 A 
BRANCH  12  13
ATOM     13  O   UNL     1      -3.594  13.054  21.485  0.00  0.00    +0.000 OA
ATOM     14  H   UNL     1      -4.032  13.924  21.349  0.00  0.00    +0.000 HD
ENDBRANCH  12  13
ENDBRANCH   1   2
BRANCH   1  15
ATOM     15  C   UNL     1       0.316  13.198  19.764  0.00  0.00    +0.000 A 
ATOM     16  C   UNL     1       1.435  12.488  19.301  0.00  0.00    +0.000 A 
ATOM     17  C   UNL     1       2.456  13.129  18.591  0.00  0.00    +0.000 A 
ATOM     18  C   UNL     1       2.406  14.505  18.340  0.00  0.00    +0.000 A 
ATOM     19  C   UNL     1       1.317  15.230  18.845  0.00  0.00    +0.000 A 
ATOM     20  C   UNL     1       0.293  14.587  19.544  0.00  0.00    +0.000 A 
BRANCH  18  21
ATOM     21  C   UNL     1       3.503  15.167  17.519  0.00  0.00    +0.000 C 
ATOM     22  C   UNL     1       3.262  16.673  17.377  0.00  0.00    +0.000 C 
ATOM     23  C   UNL     1       4.896  14.894  18.090  0.00  0.00    +0.000 C 
ENDBRANCH  18  21
ENDBRANCH   1  15
BRANCH   1  26
ATOM     24  C   UNL     1      -0.734  10.896  22.367  0.00  0.00    +0.000 C 
ATOM     25  O   UNL     1      -1.512  11.517  23.089  0.00  0.00    +0.000 OA
ATOM     26  N   UNL     1      -0.367  11.306  21.116  0.00  0.00    +0.000 N 
ATOM     27  H   UNL     1       0.132  10.680  20.496  0.00  0.00    +0.000 HD
BRANCH  24  28
ATOM     28  C   UNL     1      -0.088   9.603  22.819  0.00  0.00    +0.000 C 
BRANCH  28  30
ATOM     29  C   UNL     1       1.180   8.135  21.173  0.00  0.00    +0.000 C 
ATOM     30  C   UNL     1      -0.172   8.489  21.777  0.00  0.00    +0.000 C 
ENDBRANCH  28  30
ENDBRANCH  24  28
ENDBRANCH   1  26
TORSDOF 7
ENDMDL
