MODEL 1
REMARK VINA RESULT:      -8.2      0.000      0.000
REMARK  Name = 
REMARK  8 active torsions:
REMARK  status: ('A' for Active; 'I' for Inactive)
REMARK    1  A    between atoms: C_1  and  N_2
REMARK    2  A    between atoms: N_2  and  S_3
REMARK    3  A    between atoms: S_3  and  C_6
REMARK    4  A    between atoms: C_10  and  C_11
REMARK    5  A    between atoms: C_11  and  O_13
REMARK    6  A    between atoms: O_13  and  C_14
REMARK    7  A    between atoms: C_14  and  C_15
REMARK    8  A    between atoms: N_17  and  C_18
REMARK                            x       y       z     vdW  Elec       q    Type
REMARK                         _______ _______ _______ _____ _____    ______ ____
ROOT
ATOM      1  C   UNL     1       3.994   2.490  20.328  0.00  0.00    +0.000 C 
ATOM      2  O   UNL     1       4.868   1.978  21.011  0.00  0.00    +0.000 OA
ENDROOT
BRANCH   1   7
ATOM      3  C   UNL     1       5.479   4.307  17.327  0.00  0.00    +0.000 A 
ATOM      4  C   UNL     1       4.467   4.134  16.381  0.00  0.00    +0.000 A 
ATOM      5  C   UNL     1       3.331   3.403  16.723  0.00  0.00    +0.000 A 
ATOM      6  C   UNL     1       3.209   2.855  18.003  0.00  0.00    +0.000 A 
ATOM      7  C   UNL     1       4.231   3.015  18.952  0.00  0.00    +0.000 A 
ATOM      8  C   UNL     1       5.380   3.737  18.607  0.00  0.00    +0.000 A 
BRANCH   3   9
ATOM      9  S   UNL     1       6.914   5.271  16.921  0.00  0.00    +0.000 S 
ATOM     10  O   UNL     1       6.612   6.073  15.758  0.00  0.00    +0.000 OA
ATOM     11  O   UNL     1       8.046   4.371  16.963  0.00  0.00    +0.000 OA
BRANCH   9  13
ATOM     12  C   UNL     1       7.986   5.944  19.312  0.00  0.00    +0.000 C 
ATOM     13  N   UNL     1       7.055   6.302  18.246  0.00  0.00    +0.000 NA
ATOM     14  H   UNL     1       7.008   7.286  17.990  0.00  0.00    +0.000 HD
ENDBRANCH   9  13
ENDBRANCH   3   9
ENDBRANCH   1   7
BRANCH   1  15
ATOM     15  O   UNL     1       2.680   2.560  20.666  0.00  0.00    +0.000 OA
BRANCH  15  16
ATOM     16  C   UNL     1       2.381   3.609  21.602  0.00  0.00    +0.000 C 
BRANCH  16  17
ATOM     17  C   UNL     1       1.740   4.762  20.826  0.00  0.00    +0.000 C 
ATOM     18  O   UNL     1       0.614   4.645  20.340  0.00  0.00    +0.000 OA
ATOM     19  N   UNL     1       2.536   5.890  20.689  0.00  0.00    +0.000 N 
ATOM     20  H   UNL     1       3.529   5.811  20.885  0.00  0.00    +0.000 HD
BRANCH  19  21
ATOM     21  C   UNL     1       2.117   7.099  20.078  0.00  0.00    +0.000 A 
ATOM     22  C   UNL     1       1.417   8.097  20.761  0.00  0.00    +0.000 A 
ATOM     23  C   UNL     1       1.005   9.247  20.093  0.00  0.00    +0.000 A 
ATOM     24  F   UNL     1       0.325  10.185  20.763  0.00  0.00    +0.000 F 
ATOM     25  C   UNL     1       1.288   9.440  18.748  0.00  0.00    +0.000 A 
ATOM     26  C   UNL     1       2.009   8.467  18.057  0.00  0.00    +0.000 A 
ATOM     27  C   UNL     1       2.426   7.314  18.727  0.00  0.00    +0.000 A 
ATOM     28  F   UNL     1       3.109   6.381  18.046  0.00  0.00    +0.000 F 
ENDBRANCH  19  21
ENDBRANCH  16  17
ENDBRANCH  15  16
ENDBRANCH   1  15
TORSDOF 7
ENDMDL
MODEL 2
REMARK VINA RESULT:      -7.5      4.522      7.063
REMARK  Name = 
REMARK  8 active torsions:
REMARK  status: ('A' for Active; 'I' for Inactive)
REMARK    1  A    between atoms: C_1  and  N_2
REMARK    2  A    between atoms: N_2  and  S_3
REMARK    3  A    between atoms: S_3  and  C_6
REMARK    4  A    between atoms: C_10  and  C_11
REMARK    5  A    between atoms: C_11  and  O_13
REMARK    6  A    between atoms: O_13  and  C_14
REMARK    7  A    between atoms: C_14  and  C_15
REMARK    8  A    between atoms: N_17  and  C_18
REMARK                            x       y       z     vdW  Elec       q    Type
REMARK                         _______ _______ _______ _____ _____    ______ ____
ROOT
ATOM      1  C   UNL     1       6.989   6.013  16.585  0.00  0.00    +0.000 C 
ATOM      2  O   UNL     1       7.540   5.108  15.978  0.00  0.00    +0.000 OA
ENDROOT
BRANCH   1   7
ATOM      3  C   UNL     1       4.097   4.541  18.580  0.00  0.00    +0.000 A 
ATOM      4  C   UNL     1       3.150   5.560  18.471  0.00  0.00    +0.000 A 
ATOM      5  C   UNL     1       3.475   6.724  17.777  0.00  0.00    +0.000 A 
ATOM      6  C   UNL     1       4.738   6.861  17.194  0.00  0.00    +0.000 A 
ATOM      7  C   UNL     1       5.699   5.844  17.314  0.00  0.00    +0.000 A 
ATOM      8  C   UNL     1       5.378   4.680  18.022  0.00  0.00    +0.000 A 
BRANCH   3   9
ATOM      9  S   UNL     1       3.683   3.035  19.426  0.00  0.00    +0.000 S 
ATOM     10  O   UNL     1       4.876   2.527  20.065  0.00  0.00    +0.000 OA
ATOM     11  O   UNL     1       2.907   2.238  18.501  0.00  0.00    +0.000 OA
BRANCH   9  13
ATOM     12  C   UNL     1       2.124   2.587  21.590  0.00  0.00    +0.000 C 
ATOM     13  N   UNL     1       2.629   3.563  20.628  0.00  0.00    +0.000 NA
ATOM     14  H   UNL     1       2.870   4.482  20.993  0.00  0.00    +0.000 HD
ENDBRANCH   9  13
ENDBRANCH   3   9
ENDBRANCH   1   7
BRANCH   1  15
ATOM     15  O   UNL     1       7.508   7.254  16.776  0.00  0.00    +0.000 OA
BRANCH  15  16
ATOM     16  C   UNL     1       8.049   7.455  18.092  0.00  0.00    +0.000 C 
BRANCH  16  17
ATOM     17  C   UNL     1       8.268   8.958  18.285  0.00  0.00    +0.000 C 
ATOM     18  O   UNL     1       7.607   9.778  17.648  0.00  0.00    +0.000 OA
ATOM     19  N   UNL     1       9.277   9.292  19.178  0.00  0.00    +0.000 N 
ATOM     20  H   UNL     1       9.939   8.574  19.454  0.00  0.00    +0.000 HD
BRANCH  19  21
ATOM     21  C   UNL     1       9.598  10.617  19.565  0.00  0.00    +0.000 A 
ATOM     22  C   UNL     1       9.314  11.133  20.832  0.00  0.00    +0.000 A 
ATOM     23  C   UNL     1       9.627  12.454  21.139  0.00  0.00    +0.000 A 
ATOM     24  F   UNL     1       9.335  12.931  22.355  0.00  0.00    +0.000 F 
ATOM     25  C   UNL     1      10.236  13.285  20.208  0.00  0.00    +0.000 A 
ATOM     26  C   UNL     1      10.552  12.780  18.947  0.00  0.00    +0.000 A 
ATOM     27  C   UNL     1      10.242  11.453  18.640  0.00  0.00    +0.000 A 
ATOM     28  F   UNL     1      10.541  10.985  17.419  0.00  0.00    +0.000 F 
ENDBRANCH  19  21
ENDBRANCH  16  17
ENDBRANCH  15  16
ENDBRANCH   1  15
TORSDOF 7
ENDMDL
MODEL 3
REMARK VINA RESULT:      -7.4      3.365      6.944
REMARK  Name = 
REMARK  8 active torsions:
REMARK  status: ('A' for Active; 'I' for Inactive)
REMARK    1  A    between atoms: C_1  and  N_2
REMARK    2  A    between atoms: N_2  and  S_3
REMARK    3  A    between atoms: S_3  and  C_6
REMARK    4  A    between atoms: C_10  and  C_11
REMARK    5  A    between atoms: C_11  and  O_13
REMARK    6  A    between atoms: O_13  and  C_14
REMARK    7  A    between atoms: C_14  and  C_15
REMARK    8  A    between atoms: N_17  and  C_18
REMARK                            x       y       z     vdW  Elec       q    Type
REMARK                         _______ _______ _______ _____ _____    ______ ____
ROOT
ATOM      1  C   UNL     1       6.009   5.663  19.129  0.00  0.00    +0.000 C 
ATOM      2  O   UNL     1       6.640   5.046  19.973  0.00  0.00    +0.000 OA
ENDROOT
BRANCH   1   7
ATOM      3  C   UNL     1       2.615   3.984  18.710  0.00  0.00    +0.000 A 
ATOM      4  C   UNL     1       1.902   4.982  18.046  0.00  0.00    +0.000 A 
ATOM      5  C   UNL     1       2.524   6.199  17.771  0.00  0.00    +0.000 A 
ATOM      6  C   UNL     1       3.852   6.408  18.155  0.00  0.00    +0.000 A 
ATOM      7  C   UNL     1       4.568   5.411  18.837  0.00  0.00    +0.000 A 
ATOM      8  C   UNL     1       3.940   4.193  19.125  0.00  0.00    +0.000 A 
BRANCH   3   9
ATOM      9  S   UNL     1       1.849   2.413  19.030  0.00  0.00    +0.000 S 
ATOM     10  O   UNL     1       2.498   1.414  18.212  0.00  0.00    +0.000 OA
ATOM     11  O   UNL     1       0.420   2.631  18.992  0.00  0.00    +0.000 OA
BRANCH   9  13
ATOM     12  C   UNL     1       1.415   2.683  21.687  0.00  0.00    +0.000 C 
ATOM     13  N   UNL     1       2.261   2.121  20.637  0.00  0.00    +0.000 NA
ATOM     14  H   UNL     1       2.617   1.180  20.791  0.00  0.00    +0.000 HD
ENDBRANCH   9  13
ENDBRANCH   3   9
ENDBRANCH   1   7
BRANCH   1  15
ATOM     15  O   UNL     1       6.481   6.721  18.419  0.00  0.00    +0.000 OA
BRANCH  15  16
ATOM     16  C   UNL     1       7.767   6.485  17.823  0.00  0.00    +0.000 C 
BRANCH  16  17
ATOM     17  C   UNL     1       7.593   5.422  16.735  0.00  0.00    +0.000 C 
ATOM     18  O   UNL     1       8.041   4.285  16.888  0.00  0.00    +0.000 OA
ATOM     19  N   UNL     1       6.947   5.858  15.587  0.00  0.00    +0.000 N 
ATOM     20  H   UNL     1       6.846   6.857  15.436  0.00  0.00    +0.000 HD
BRANCH  19  21
ATOM     21  C   UNL     1       6.611   5.026  14.490  0.00  0.00    +0.000 A 
ATOM     22  C   UNL     1       7.430   4.872  13.369  0.00  0.00    +0.000 A 
ATOM     23  C   UNL     1       7.027   4.063  12.310  0.00  0.00    +0.000 A 
ATOM     24  F   UNL     1       7.822   3.940  11.240  0.00  0.00    +0.000 F 
ATOM     25  C   UNL     1       5.817   3.382  12.344  0.00  0.00    +0.000 A 
ATOM     26  C   UNL     1       4.999   3.502  13.467  0.00  0.00    +0.000 A 
ATOM     27  C   UNL     1       5.405   4.310  14.531  0.00  0.00    +0.000 A 
ATOM     28  F   UNL     1       4.601   4.425  15.599  0.00  0.00    +0.000 F 
ENDBRANCH  19  21
ENDBRANCH  16  17
ENDBRANCH  15  16
ENDBRANCH   1  15
TORSDOF 7
ENDMDL
MODEL 4
REMARK VINA RESULT:      -7.3      3.568      4.705
REMARK  Name = 
REMARK  8 active torsions:
REMARK  status: ('A' for Active; 'I' for Inactive)
REMARK    1  A    between atoms: C_1  and  N_2
REMARK    2  A    between atoms: N_2  and  S_3
REMARK    3  A    between atoms: S_3  and  C_6
REMARK    4  A    between atoms: C_10  and  C_11
REMARK    5  A    between atoms: C_11  and  O_13
REMARK    6  A    between atoms: O_13  and  C_14
REMARK    7  A    between atoms: C_14  and  C_15
REMARK    8  A    between atoms: N_17  and  C_18
REMARK                            x       y       z     vdW  Elec       q    Type
REMARK                         _______ _______ _______ _____ _____    ______ ____
ROOT
ATOM      1  C   UNL     1       2.382   7.344  18.754  0.00  0.00    +0.000 C 
ATOM      2  O   UNL     1       2.228   7.470  19.959  0.00  0.00    +0.000 OA
ENDROOT
BRANCH   1   7
ATOM      3  C   UNL     1       5.100   5.328  17.004  0.00  0.00    +0.000 A 
ATOM      4  C   UNL     1       4.447   4.110  16.809  0.00  0.00    +0.000 A 
ATOM      5  C   UNL     1       3.144   3.951  17.277  0.00  0.00    +0.000 A 
ATOM      6  C   UNL     1       2.500   5.007  17.930  0.00  0.00    +0.000 A 
ATOM      7  C   UNL     1       3.160   6.229  18.140  0.00  0.00    +0.000 A 
ATOM      8  C   UNL     1       4.473   6.385  17.682  0.00  0.00    +0.000 A 
BRANCH   3   9
ATOM      9  S   UNL     1       6.745   5.560  16.376  0.00  0.00    +0.000 S 
ATOM     10  O   UNL     1       6.688   5.552  14.931  0.00  0.00    +0.000 OA
ATOM     11  O   UNL     1       7.605   4.664  17.117  0.00  0.00    +0.000 OA
BRANCH   9  13
ATOM     12  C   UNL     1       7.959   7.299  18.055  0.00  0.00    +0.000 C 
ATOM     13  N   UNL     1       7.115   7.125  16.876  0.00  0.00    +0.000 NA
ATOM     14  H   UNL     1       7.277   7.762  16.099  0.00  0.00    +0.000 HD
ENDBRANCH   9  13
ENDBRANCH   3   9
ENDBRANCH   1   7
BRANCH   1  15
ATOM     15  O   UNL     1       1.793   8.118  17.806  0.00  0.00    +0.000 OA
BRANCH  15  16
ATOM     16  C   UNL     1       1.838   9.524  18.102  0.00  0.00    +0.000 C 
BRANCH  16  17
ATOM     17  C   UNL     1       0.432   9.959  18.526  0.00  0.00    +0.000 C 
ATOM     18  O   UNL     1       0.131  10.043  19.717  0.00  0.00    +0.000 OA
ATOM     19  N   UNL     1      -0.448  10.196  17.479  0.00  0.00    +0.000 N 
ATOM     20  H   UNL     1      -0.206   9.856  16.554  0.00  0.00    +0.000 HD
BRANCH  19  21
ATOM     21  C   UNL     1      -1.771  10.681  17.637  0.00  0.00    +0.000 A 
ATOM     22  C   UNL     1      -2.179  11.441  18.736  0.00  0.00    +0.000 A 
ATOM     23  C   UNL     1      -3.502  11.860  18.847  0.00  0.00    +0.000 A 
ATOM     24  F   UNL     1      -3.875  12.577  19.915  0.00  0.00    +0.000 F 
ATOM     25  C   UNL     1      -4.440  11.549  17.873  0.00  0.00    +0.000 A 
ATOM     26  C   UNL     1      -4.045  10.814  16.755  0.00  0.00    +0.000 A 
ATOM     27  C   UNL     1      -2.717  10.397  16.641  0.00  0.00    +0.000 A 
ATOM     28  F   UNL     1      -2.353   9.681  15.566  0.00  0.00    +0.000 F 
ENDBRANCH  19  21
ENDBRANCH  16  17
ENDBRANCH  15  16
ENDBRANCH   1  15
TORSDOF 7
ENDMDL
MODEL 5
REMARK VINA RESULT:      -7.2      1.785      2.674
REMARK  Name = 
REMARK  8 active torsions:
REMARK  status: ('A' for Active; 'I' for Inactive)
REMARK    1  A    between atoms: C_1  and  N_2
REMARK    2  A    between atoms: N_2  and  S_3
REMARK    3  A    between atoms: S_3  and  C_6
REMARK    4  A    between atoms: C_10  and  C_11
REMARK    5  A    between atoms: C_11  and  O_13
REMARK    6  A    between atoms: O_13  and  C_14
REMARK    7  A    between atoms: C_14  and  C_15
REMARK    8  A    between atoms: N_17  and  C_18
REMARK                            x       y       z     vdW  Elec       q    Type
REMARK                         _______ _______ _______ _____ _____    ______ ____
ROOT
ATOM      1  C   UNL     1       4.679   3.084  19.343  0.00  0.00    +0.000 C 
ATOM      2  O   UNL     1       5.072   2.426  20.294  0.00  0.00    +0.000 OA
ENDROOT
BRANCH   1   7
ATOM      3  C   UNL     1       6.457   5.142  16.676  0.00  0.00    +0.000 A 
ATOM      4  C   UNL     1       7.294   5.935  17.463  0.00  0.00    +0.000 A 
ATOM      5  C   UNL     1       7.245   5.812  18.850  0.00  0.00    +0.000 A 
ATOM      6  C   UNL     1       6.369   4.897  19.442  0.00  0.00    +0.000 A 
ATOM      7  C   UNL     1       5.516   4.108  18.654  0.00  0.00    +0.000 A 
ATOM      8  C   UNL     1       5.554   4.240  17.261  0.00  0.00    +0.000 A 
BRANCH   3   9
ATOM      9  S   UNL     1       6.538   5.257  14.906  0.00  0.00    +0.000 S 
ATOM     10  O   UNL     1       7.905   5.534  14.527  0.00  0.00    +0.000 OA
ATOM     11  O   UNL     1       5.438   6.102  14.493  0.00  0.00    +0.000 OA
BRANCH   9  13
ATOM     12  C   UNL     1       6.095   3.405  12.985  0.00  0.00    +0.000 C 
ATOM     13  N   UNL     1       6.166   3.689  14.415  0.00  0.00    +0.000 NA
ATOM     14  H   UNL     1       6.595   2.977  15.003  0.00  0.00    +0.000 HD
ENDBRANCH   9  13
ENDBRANCH   3   9
ENDBRANCH   1   7
BRANCH   1  15
ATOM     15  O   UNL     1       3.488   2.911  18.713  0.00  0.00    +0.000 OA
BRANCH  15  16
ATOM     16  C   UNL     1       2.365   3.413  19.457  0.00  0.00    +0.000 C 
BRANCH  16  17
ATOM     17  C   UNL     1       1.982   4.773  18.867  0.00  0.00    +0.000 C 
ATOM     18  O   UNL     1       1.295   4.846  17.847  0.00  0.00    +0.000 OA
ATOM     19  N   UNL     1       2.500   5.871  19.540  0.00  0.00    +0.000 N 
ATOM     20  H   UNL     1       3.257   5.723  20.199  0.00  0.00    +0.000 HD
BRANCH  19  21
ATOM     21  C   UNL     1       2.211   7.220  19.215  0.00  0.00    +0.000 A 
ATOM     22  C   UNL     1       1.404   8.041  20.008  0.00  0.00    +0.000 A 
ATOM     23  C   UNL     1       1.133   9.348  19.615  0.00  0.00    +0.000 A 
ATOM     24  F   UNL     1       0.348  10.113  20.383  0.00  0.00    +0.000 F 
ATOM     25  C   UNL     1       1.662   9.874  18.444  0.00  0.00    +0.000 A 
ATOM     26  C   UNL     1       2.491   9.078  17.654  0.00  0.00    +0.000 A 
ATOM     27  C   UNL     1       2.767   7.767  18.049  0.00  0.00    +0.000 A 
ATOM     28  F   UNL     1       3.557   7.010  17.272  0.00  0.00    +0.000 F 
ENDBRANCH  19  21
ENDBRANCH  16  17
ENDBRANCH  15  16
ENDBRANCH   1  15
TORSDOF 7
ENDMDL
MODEL 6
REMARK VINA RESULT:      -7.1      4.734      7.155
REMARK  Name = 
REMARK  8 active torsions:
REMARK  status: ('A' for Active; 'I' for Inactive)
REMARK    1  A    between atoms: C_1  and  N_2
REMARK    2  A    between atoms: N_2  and  S_3
REMARK    3  A    between atoms: S_3  and  C_6
REMARK    4  A    between atoms: C_10  and  C_11
REMARK    5  A    between atoms: C_11  and  O_13
REMARK    6  A    between atoms: O_13  and  C_14
REMARK    7  A    between atoms: C_14  and  C_15
REMARK    8  A    between atoms: N_17  and  C_18
REMARK                            x       y       z     vdW  Elec       q    Type
REMARK                         _______ _______ _______ _____ _____    ______ ____
ROOT
ATOM      1  C   UNL     1       6.200   6.714  16.942  0.00  0.00    +0.000 C 
ATOM      2  O   UNL     1       6.823   6.114  16.079  0.00  0.00    +0.000 OA
ENDROOT
BRANCH   1   7
ATOM      3  C   UNL     1       3.618   4.392  18.509  0.00  0.00    +0.000 A 
ATOM      4  C   UNL     1       2.503   5.230  18.566  0.00  0.00    +0.000 A 
ATOM      5  C   UNL     1       2.615   6.547  18.123  0.00  0.00    +0.000 A 
ATOM      6  C   UNL     1       3.834   7.016  17.623  0.00  0.00    +0.000 A 
ATOM      7  C   UNL     1       4.961   6.180  17.578  0.00  0.00    +0.000 A 
ATOM      8  C   UNL     1       4.854   4.861  18.035  0.00  0.00    +0.000 A 
BRANCH   3   9
ATOM      9  S   UNL     1       3.481   2.700  19.031  0.00  0.00    +0.000 S 
ATOM     10  O   UNL     1       3.412   1.863  17.854  0.00  0.00    +0.000 OA
ATOM     11  O   UNL     1       2.467   2.663  20.063  0.00  0.00    +0.000 OA
BRANCH   9  13
ATOM     12  C   UNL     1       5.044   1.373  20.796  0.00  0.00    +0.000 C 
ATOM     13  N   UNL     1       4.961   2.423  19.784  0.00  0.00    +0.000 NA
ATOM     14  H   UNL     1       5.752   2.510  19.149  0.00  0.00    +0.000 HD
ENDBRANCH   9  13
ENDBRANCH   3   9
ENDBRANCH   1   7
BRANCH   1  15
ATOM     15  O   UNL     1       6.591   7.880  17.519  0.00  0.00    +0.000 OA
BRANCH  15  16
ATOM     16  C   UNL     1       7.994   7.929  17.824  0.00  0.00    +0.000 C 
BRANCH  16  17
ATOM     17  C   UNL     1       8.348   9.376  18.180  0.00  0.00    +0.000 C 
ATOM     18  O   UNL     1       7.847  10.316  17.563  0.00  0.00    +0.000 OA
ATOM     19  N   UNL     1       9.285   9.517  19.194  0.00  0.00    +0.000 N 
ATOM     20  H   UNL     1       9.835   8.708  19.464  0.00  0.00    +0.000 HD
BRANCH  19  21
ATOM     21  C   UNL     1       9.699  10.760  19.735  0.00  0.00    +0.000 A 
ATOM     22  C   UNL     1       9.274  11.232  20.980  0.00  0.00    +0.000 A 
ATOM     23  C   UNL     1       9.693  12.477  21.439  0.00  0.00    +0.000 A 
ATOM     24  F   UNL     1       9.263  12.915  22.629  0.00  0.00    +0.000 F 
ATOM     25  C   UNL     1      10.548  13.272  20.688  0.00  0.00    +0.000 A 
ATOM     26  C   UNL     1      11.005  12.806  19.456  0.00  0.00    +0.000 A 
ATOM     27  C   UNL     1      10.588  11.555  18.996  0.00  0.00    +0.000 A 
ATOM     28  F   UNL     1      11.026  11.125  17.802  0.00  0.00    +0.000 F 
ENDBRANCH  19  21
ENDBRANCH  16  17
ENDBRANCH  15  16
ENDBRANCH   1  15
TORSDOF 7
ENDMDL
MODEL 7
REMARK VINA RESULT:      -7.1      3.790      7.129
REMARK  Name = 
REMARK  8 active torsions:
REMARK  status: ('A' for Active; 'I' for Inactive)
REMARK    1  A    between atoms: C_1  and  N_2
REMARK    2  A    between atoms: N_2  and  S_3
REMARK    3  A    between atoms: S_3  and  C_6
REMARK    4  A    between atoms: C_10  and  C_11
REMARK    5  A    between atoms: C_11  and  O_13
REMARK    6  A    between atoms: O_13  and  C_14
REMARK    7  A    between atoms: C_14  and  C_15
REMARK    8  A    between atoms: N_17  and  C_18
REMARK                            x       y       z     vdW  Elec       q    Type
REMARK                         _______ _______ _______ _____ _____    ______ ____
ROOT
ATOM      1  C   UNL     1       6.727   5.300  19.272  0.00  0.00    +0.000 C 
ATOM      2  O   UNL     1       7.271   5.510  20.345  0.00  0.00    +0.000 OA
ENDROOT
BRANCH   1   7
ATOM      3  C   UNL     1       3.178   3.992  18.817  0.00  0.00    +0.000 A 
ATOM      4  C   UNL     1       2.484   5.178  18.575  0.00  0.00    +0.000 A 
ATOM      5  C   UNL     1       3.173   6.389  18.594  0.00  0.00    +0.000 A 
ATOM      6  C   UNL     1       4.548   6.408  18.849  0.00  0.00    +0.000 A 
ATOM      7  C   UNL     1       5.247   5.218  19.107  0.00  0.00    +0.000 A 
ATOM      8  C   UNL     1       4.553   4.002  19.101  0.00  0.00    +0.000 A 
BRANCH   3   9
ATOM      9  S   UNL     1       2.322   2.437  18.755  0.00  0.00    +0.000 S 
ATOM     10  O   UNL     1       3.210   1.448  18.187  0.00  0.00    +0.000 OA
ATOM     11  O   UNL     1       1.012   2.704  18.202  0.00  0.00    +0.000 OA
BRANCH   9  13
ATOM     12  C   UNL     1       1.221   2.920  21.179  0.00  0.00    +0.000 C 
ATOM     13  N   UNL     1       2.103   2.069  20.384  0.00  0.00    +0.000 NA
ATOM     14  H   UNL     1       2.055   1.068  20.562  0.00  0.00    +0.000 HD
ENDBRANCH   9  13
ENDBRANCH   3   9
ENDBRANCH   1   7
BRANCH   1  15
ATOM     15  O   UNL     1       7.365   5.219  18.075  0.00  0.00    +0.000 OA
BRANCH  15  16
ATOM     16  C   UNL     1       7.290   6.428  17.301  0.00  0.00    +0.000 C 
BRANCH  16  17
ATOM     17  C   UNL     1       6.709   6.073  15.930  0.00  0.00    +0.000 C 
ATOM     18  O   UNL     1       5.680   6.614  15.523  0.00  0.00    +0.000 OA
ATOM     19  N   UNL     1       7.400   5.089  15.238  0.00  0.00    +0.000 N 
ATOM     20  H   UNL     1       8.070   4.518  15.744  0.00  0.00    +0.000 HD
BRANCH  19  21
ATOM     21  C   UNL     1       7.086   4.662  13.923  0.00  0.00    +0.000 A 
ATOM     22  C   UNL     1       6.035   3.788  13.635  0.00  0.00    +0.000 A 
ATOM     23  C   UNL     1       5.799   3.382  12.324  0.00  0.00    +0.000 A 
ATOM     24  F   UNL     1       4.794   2.534  12.072  0.00  0.00    +0.000 F 
ATOM     25  C   UNL     1       6.584   3.841  11.275  0.00  0.00    +0.000 A 
ATOM     26  C   UNL     1       7.620   4.736  11.540  0.00  0.00    +0.000 A 
ATOM     27  C   UNL     1       7.855   5.146  12.855  0.00  0.00    +0.000 A 
ATOM     28  F   UNL     1       8.864   5.998  13.096  0.00  0.00    +0.000 F 
ENDBRANCH  19  21
ENDBRANCH  16  17
ENDBRANCH  15  16
ENDBRANCH   1  15
TORSDOF 7
ENDMDL
MODEL 8
REMARK VINA RESULT:      -7.0      1.675      2.295
REMARK  Name = 
REMARK  8 active torsions:
REMARK  status: ('A' for Active; 'I' for Inactive)
REMARK    1  A    between atoms: C_1  and  N_2
REMARK    2  A    between atoms: N_2  and  S_3
REMARK    3  A    between atoms: S_3  and  C_6
REMARK    4  A    between atoms: C_10  and  C_11
REMARK    5  A    between atoms: C_11  and  O_13
REMARK    6  A    between atoms: O_13  and  C_14
REMARK    7  A    between atoms: C_14  and  C_15
REMARK    8  A    between atoms: N_17  and  C_18
REMARK                            x       y       z     vdW  Elec       q    Type
REMARK                         _______ _______ _______ _____ _____    ______ ____
ROOT
ATOM      1  C   UNL     1       4.528   2.816  19.620  0.00  0.00    +0.000 C 
ATOM      2  O   UNL     1       5.118   1.889  20.153  0.00  0.00    +0.000 OA
ENDROOT
BRANCH   1   7
ATOM      3  C   UNL     1       5.905   5.090  16.891  0.00  0.00    +0.000 A 
ATOM      4  C   UNL     1       6.746   5.921  17.633  0.00  0.00    +0.000 A 
ATOM      5  C   UNL     1       6.829   5.750  19.014  0.00  0.00    +0.000 A 
ATOM      6  C   UNL     1       6.079   4.752  19.643  0.00  0.00    +0.000 A 
ATOM      7  C   UNL     1       5.222   3.924  18.901  0.00  0.00    +0.000 A 
ATOM      8  C   UNL     1       5.127   4.102  17.516  0.00  0.00    +0.000 A 
BRANCH   3   9
ATOM      9  S   UNL     1       5.819   5.266  15.126  0.00  0.00    +0.000 S 
ATOM     10  O   UNL     1       5.410   6.619  14.821  0.00  0.00    +0.000 OA
ATOM     11  O   UNL     1       5.103   4.114  14.625  0.00  0.00    +0.000 OA
BRANCH   9  13
ATOM     12  C   UNL     1       7.776   5.321  13.259  0.00  0.00    +0.000 C 
ATOM     13  N   UNL     1       7.427   5.089  14.657  0.00  0.00    +0.000 NA
ATOM     14  H   UNL     1       8.085   5.430  15.356  0.00  0.00    +0.000 HD
ENDBRANCH   9  13
ENDBRANCH   3   9
ENDBRANCH   1   7
BRANCH   1  15
ATOM     15  O   UNL     1       3.178   2.921  19.508  0.00  0.00    +0.000 OA
BRANCH  15  16
ATOM     16  C   UNL     1       2.588   3.808  20.472  0.00  0.00    +0.000 C 
BRANCH  16  17
ATOM     17  C   UNL     1       2.040   5.023  19.718  0.00  0.00    +0.000 C 
ATOM     18  O   UNL     1       1.253   4.881  18.782  0.00  0.00    +0.000 OA
ATOM     19  N   UNL     1       2.533   6.249  20.146  0.00  0.00    +0.000 N 
ATOM     20  H   UNL     1       3.361   6.261  20.733  0.00  0.00    +0.000 HD
BRANCH  19  21
ATOM     21  C   UNL     1       2.105   7.504  19.644  0.00  0.00    +0.000 A 
ATOM     22  C   UNL     1       1.269   8.367  20.357  0.00  0.00    +0.000 A 
ATOM     23  C   UNL     1       0.860   9.572  19.793  0.00  0.00    +0.000 A 
ATOM     24  F   UNL     1       0.049  10.379  20.488  0.00  0.00    +0.000 F 
ATOM     25  C   UNL     1       1.279   9.953  18.525  0.00  0.00    +0.000 A 
ATOM     26  C   UNL     1       2.136   9.117  17.810  0.00  0.00    +0.000 A 
ATOM     27  C   UNL     1       2.549   7.909  18.377  0.00  0.00    +0.000 A 
ATOM     28  F   UNL     1       3.364   7.109  17.672  0.00  0.00    +0.000 F 
ENDBRANCH  19  21
ENDBRANCH  16  17
ENDBRANCH  15  16
ENDBRANCH   1  15
TORSDOF 7
ENDMDL
MODEL 9
REMARK VINA RESULT:      -7.0      3.398      6.575
REMARK  Name = 
REMARK  8 active torsions:
REMARK  status: ('A' for Active; 'I' for Inactive)
REMARK    1  A    between atoms: C_1  and  N_2
REMARK    2  A    between atoms: N_2  and  S_3
REMARK    3  A    between atoms: S_3  and  C_6
REMARK    4  A    between atoms: C_10  and  C_11
REMARK    5  A    between atoms: C_11  and  O_13
REMARK    6  A    between atoms: O_13  and  C_14
REMARK    7  A    between atoms: C_14  and  C_15
REMARK    8  A    between atoms: N_17  and  C_18
REMARK                            x       y       z     vdW  Elec       q    Type
REMARK                         _______ _______ _______ _____ _____    ______ ____
ROOT
ATOM      1  C   UNL     1       2.020   4.339  20.472  0.00  0.00    +0.000 C 
ATOM      2  O   UNL     1       1.016   3.724  20.798  0.00  0.00    +0.000 OA
ENDROOT
BRANCH   1   7
ATOM      3  C   UNL     1       1.445   8.103  20.587  0.00  0.00    +0.000 A 
ATOM      4  C   UNL     1       1.866   8.478  19.310  0.00  0.00    +0.000 A 
ATOM      5  C   UNL     1       2.360   7.507  18.441  0.00  0.00    +0.000 A 
ATOM      6  C   UNL     1       2.426   6.171  18.848  0.00  0.00    +0.000 A 
ATOM      7  C   UNL     1       2.016   5.793  20.137  0.00  0.00    +0.000 A 
ATOM      8  C   UNL     1       1.532   6.769  21.016  0.00  0.00    +0.000 A 
BRANCH   3   9
ATOM      9  S   UNL     1       0.773   9.322  21.690  0.00  0.00    +0.000 S 
ATOM     10  O   UNL     1       1.741   9.576  22.733  0.00  0.00    +0.000 OA
ATOM     11  O   UNL     1      -0.585   8.918  21.982  0.00  0.00    +0.000 OA
BRANCH   9  13
ATOM     12  C   UNL     1      -0.637  11.232  20.393  0.00  0.00    +0.000 C 
ATOM     13  N   UNL     1       0.681  10.693  20.716  0.00  0.00    +0.000 NA
ATOM     14  H   UNL     1       1.417  11.369  20.912  0.00  0.00    +0.000 HD
ENDBRANCH   9  13
ENDBRANCH   3   9
ENDBRANCH   1   7
BRANCH   1  15
ATOM     15  O   UNL     1       3.280   3.832  20.468  0.00  0.00    +0.000 OA
BRANCH  15  16
ATOM     16  C   UNL     1       3.367   2.510  19.912  0.00  0.00    +0.000 C 
BRANCH  16  17
ATOM     17  C   UNL     1       4.033   2.621  18.538  0.00  0.00    +0.000 C 
ATOM     18  O   UNL     1       3.877   1.742  17.690  0.00  0.00    +0.000 OA
ATOM     19  N   UNL     1       4.834   3.741  18.364  0.00  0.00    +0.000 N 
ATOM     20  H   UNL     1       5.116   4.269  19.184  0.00  0.00    +0.000 HD
BRANCH  19  21
ATOM     21  C   UNL     1       5.481   4.083  17.151  0.00  0.00    +0.000 A 
ATOM     22  C   UNL     1       4.863   3.988  15.902  0.00  0.00    +0.000 A 
ATOM     23  C   UNL     1       5.566   4.309  14.744  0.00  0.00    +0.000 A 
ATOM     24  F   UNL     1       4.957   4.199  13.556  0.00  0.00    +0.000 F 
ATOM     25  C   UNL     1       6.883   4.743  14.797  0.00  0.00    +0.000 A 
ATOM     26  C   UNL     1       7.509   4.870  16.037  0.00  0.00    +0.000 A 
ATOM     27  C   UNL     1       6.803   4.551  17.200  0.00  0.00    +0.000 A 
ATOM     28  F   UNL     1       7.422   4.667  18.385  0.00  0.00    +0.000 F 
ENDBRANCH  19  21
ENDBRANCH  16  17
ENDBRANCH  15  16
ENDBRANCH   1  15
TORSDOF 7
ENDMDL
