MODEL 1
REMARK VINA RESULT:      -7.0      0.000      0.000
REMARK  Name = 
REMARK  11 active torsions:
REMARK  status: ('A' for Active; 'I' for Inactive)
REMARK    1  A    between atoms: C_1  and  C_2
REMARK    2  A    between atoms: C_2  and  O_3
REMARK    3  A    between atoms: O_3  and  C_4
REMARK    4  A    between atoms: C_4  and  C_5
REMARK    5  A    between atoms: C_5  and  N_6
REMARK    6  A    between atoms: N_9  and  C_10
REMARK    7  A    between atoms: C_10  and  C_11
REMARK    8  A    between atoms: N_13  and  C_14
REMARK    9  A    between atoms: C_14  and  C_15
REMARK   10  A    between atoms: C_22  and  C_23
REMARK   11  A    between atoms: C_23  and  C_24
REMARK                            x       y       z     vdW  Elec       q    Type
REMARK                         _______ _______ _______ _____ _____    ______ ____
ROOT
ATOM      1  N   UNL     1       6.238   5.870  15.545  0.00  0.00    +0.000 NA
ATOM      2  C   UNL     1       5.095   5.236  16.231  0.00  0.00    +0.000 C 
ATOM      3  C   UNL     1       5.476   3.992  17.057  0.00  0.00    +0.000 C 
ATOM      4  N   UNL     1       6.519   4.218  18.085  0.00  0.00    +0.000 NA
ATOM      5  C   UNL     1       7.638   4.993  17.485  0.00  0.00    +0.000 C 
ATOM      6  C   UNL     1       7.284   6.208  16.550  0.00  0.00    +0.000 C 
ENDROOT
BRANCH   6   7
ATOM      7  C   UNL     1       6.905   7.465  17.376  0.00  0.00    +0.000 C 
ATOM      8  C   UNL     1       8.079   8.304  17.859  0.00  0.00    +0.000 C 
ENDBRANCH   6   7
BRANCH   1   9
ATOM      9  C   UNL     1       6.795   5.008  14.474  0.00  0.00    +0.000 C 
BRANCH   9  10
ATOM     10  C   UNL     1       5.753   4.102  13.796  0.00  0.00    +0.000 C 
BRANCH  10  11
ATOM     11  O   UNL     1       6.387   3.300  12.797  0.00  0.00    +0.000 OA
BRANCH  11  13
ATOM     12  C   UNL     1       5.882   1.507  11.302  0.00  0.00    +0.000 C 
ATOM     13  C   UNL     1       5.432   2.849  11.836  0.00  0.00    +0.000 C 
ENDBRANCH  11  13
ENDBRANCH  10  11
ENDBRANCH   9  10
ENDBRANCH   1   9
BRANCH   4  14
ATOM     14  C   UNL     1       5.968   4.882  19.289  0.00  0.00    +0.000 C 
BRANCH  14  15
ATOM     15  C   UNL     1       4.573   4.360  19.646  0.00  0.00    +0.000 C 
ATOM     16  O   UNL     1       4.338   3.157  19.740  0.00  0.00    +0.000 OA
ATOM     17  N   UNL     1       3.627   5.331  19.871  0.00  0.00    +0.000 N 
ATOM     18  H   UNL     1       3.909   6.286  19.665  0.00  0.00    +0.000 HD
BRANCH  17  19
ATOM     19  C   UNL     1       2.276   5.017  20.325  0.00  0.00    +0.000 C 
ATOM     20  C   UNL     1       2.312   4.073  21.558  0.00  0.00    +0.000 C 
ATOM     21  C   UNL     1       1.466   2.849  21.203  0.00  0.00    +0.000 C 
ATOM     22  C   UNL     1       0.562   3.313  20.077  0.00  0.00    +0.000 C 
ATOM     23  C   UNL     1       1.482   4.213  19.268  0.00  0.00    +0.000 C 
BRANCH  19  24
ATOM     24  C   UNL     1       1.547   6.258  20.689  0.00  0.00    +0.000 C 
ATOM     25  N   UNL     1       0.993   7.230  21.017  0.00  0.00    +0.000 NA
ENDBRANCH  19  24
ENDBRANCH  17  19
ENDBRANCH  14  15
ENDBRANCH   4  14
TORSDOF 9
ENDMDL
MODEL 2
REMARK VINA RESULT:      -6.7      1.004      1.073
REMARK  Name = 
REMARK  11 active torsions:
REMARK  status: ('A' for Active; 'I' for Inactive)
REMARK    1  A    between atoms: C_1  and  C_2
REMARK    2  A    between atoms: C_2  and  O_3
REMARK    3  A    between atoms: O_3  and  C_4
REMARK    4  A    between atoms: C_4  and  C_5
REMARK    5  A    between atoms: C_5  and  N_6
REMARK    6  A    between atoms: N_9  and  C_10
REMARK    7  A    between atoms: C_10  and  C_11
REMARK    8  A    between atoms: N_13  and  C_14
REMARK    9  A    between atoms: C_14  and  C_15
REMARK   10  A    between atoms: C_22  and  C_23
REMARK   11  A    between atoms: C_23  and  C_24
REMARK                            x       y       z     vdW  Elec       q    Type
REMARK                         _______ _______ _______ _____ _____    ______ ____
ROOT
ATOM      1  N   UNL     1       6.356   5.597  15.502  0.00  0.00    +0.000 NA
ATOM      2  C   UNL     1       5.128   5.199  16.220  0.00  0.00    +0.000 C 
ATOM      3  C   UNL     1       5.348   4.084  17.261  0.00  0.00    +0.000 C 
ATOM      4  N   UNL     1       6.368   4.382  18.292  0.00  0.00    +0.000 NA
ATOM      5  C   UNL     1       7.583   4.935  17.635  0.00  0.00    +0.000 C 
ATOM      6  C   UNL     1       7.391   6.001  16.493  0.00  0.00    +0.000 C 
ENDROOT
BRANCH   6   7
ATOM      7  C   UNL     1       7.110   7.410  17.077  0.00  0.00    +0.000 C 
ATOM      8  C   UNL     1       8.155   7.928  18.056  0.00  0.00    +0.000 C 
ENDBRANCH   6   7
BRANCH   1   9
ATOM      9  C   UNL     1       6.862   4.516  14.621  0.00  0.00    +0.000 C 
BRANCH   9  10
ATOM     10  C   UNL     1       5.836   4.017  13.591  0.00  0.00    +0.000 C 
BRANCH  10  11
ATOM     11  O   UNL     1       6.513   3.411  12.487  0.00  0.00    +0.000 OA
BRANCH  11  13
ATOM     12  C   UNL     1       6.475   1.458  11.113  0.00  0.00    +0.000 C 
ATOM     13  C   UNL     1       5.639   2.522  11.790  0.00  0.00    +0.000 C 
ENDBRANCH  11  13
ENDBRANCH  10  11
ENDBRANCH   9  10
ENDBRANCH   1   9
BRANCH   4  14
ATOM     14  C   UNL     1       5.842   5.291  19.338  0.00  0.00    +0.000 C 
BRANCH  14  15
ATOM     15  C   UNL     1       4.311   5.324  19.353  0.00  0.00    +0.000 C 
ATOM     16  O   UNL     1       3.681   6.275  18.894  0.00  0.00    +0.000 OA
ATOM     17  N   UNL     1       3.709   4.212  19.891  0.00  0.00    +0.000 N 
ATOM     18  H   UNL     1       4.329   3.536  20.330  0.00  0.00    +0.000 HD
BRANCH  17  19
ATOM     19  C   UNL     1       2.262   4.027  19.888  0.00  0.00    +0.000 C 
ATOM     20  C   UNL     1       1.865   2.757  20.689  0.00  0.00    +0.000 C 
ATOM     21  C   UNL     1       1.035   1.881  19.748  0.00  0.00    +0.000 C 
ATOM     22  C   UNL     1       0.526   2.830  18.680  0.00  0.00    +0.000 C 
ATOM     23  C   UNL     1       1.716   3.752  18.466  0.00  0.00    +0.000 C 
BRANCH  19  24
ATOM     24  C   UNL     1       1.583   5.206  20.485  0.00  0.00    +0.000 C 
ATOM     25  N   UNL     1       1.074   6.122  20.993  0.00  0.00    +0.000 NA
ENDBRANCH  19  24
ENDBRANCH  17  19
ENDBRANCH  14  15
ENDBRANCH   4  14
TORSDOF 9
ENDMDL
MODEL 3
REMARK VINA RESULT:      -6.7      1.499      1.889
REMARK  Name = 
REMARK  11 active torsions:
REMARK  status: ('A' for Active; 'I' for Inactive)
REMARK    1  A    between atoms: C_1  and  C_2
REMARK    2  A    between atoms: C_2  and  O_3
REMARK    3  A    between atoms: O_3  and  C_4
REMARK    4  A    between atoms: C_4  and  C_5
REMARK    5  A    between atoms: C_5  and  N_6
REMARK    6  A    between atoms: N_9  and  C_10
REMARK    7  A    between atoms: C_10  and  C_11
REMARK    8  A    between atoms: N_13  and  C_14
REMARK    9  A    between atoms: C_14  and  C_15
REMARK   10  A    between atoms: C_22  and  C_23
REMARK   11  A    between atoms: C_23  and  C_24
REMARK                            x       y       z     vdW  Elec       q    Type
REMARK                         _______ _______ _______ _____ _____    ______ ____
ROOT
ATOM      1  N   UNL     1       6.595   5.859  15.697  0.00  0.00    +0.000 NA
ATOM      2  C   UNL     1       5.292   5.391  16.209  0.00  0.00    +0.000 C 
ATOM      3  C   UNL     1       5.402   4.269  17.261  0.00  0.00    +0.000 C 
ATOM      4  N   UNL     1       6.233   4.597  18.442  0.00  0.00    +0.000 NA
ATOM      5  C   UNL     1       7.507   5.219  17.989  0.00  0.00    +0.000 C 
ATOM      6  C   UNL     1       7.442   6.294  16.842  0.00  0.00    +0.000 C 
ENDROOT
BRANCH   6   7
ATOM      7  C   UNL     1       7.004   7.678  17.389  0.00  0.00    +0.000 C 
ATOM      8  C   UNL     1       8.135   8.568  17.886  0.00  0.00    +0.000 C 
ENDBRANCH   6   7
BRANCH   1   9
ATOM      9  C   UNL     1       7.286   4.820  14.895  0.00  0.00    +0.000 C 
BRANCH   9  10
ATOM     10  C   UNL     1       6.813   4.741  13.434  0.00  0.00    +0.000 C 
BRANCH  10  11
ATOM     11  O   UNL     1       5.739   3.803  13.322  0.00  0.00    +0.000 OA
BRANCH  11  13
ATOM     12  C   UNL     1       4.340   3.224  11.476  0.00  0.00    +0.000 C 
ATOM     13  C   UNL     1       5.745   3.185  12.035  0.00  0.00    +0.000 C 
ENDBRANCH  11  13
ENDBRANCH  10  11
ENDBRANCH   9  10
ENDBRANCH   1   9
BRANCH   4  14
ATOM     14  C   UNL     1       5.506   5.461  19.402  0.00  0.00    +0.000 C 
BRANCH  14  15
ATOM     15  C   UNL     1       4.040   5.046  19.551  0.00  0.00    +0.000 C 
ATOM     16  O   UNL     1       3.119   5.817  19.285  0.00  0.00    +0.000 OA
ATOM     17  N   UNL     1       3.839   3.756  19.980  0.00  0.00    +0.000 N 
ATOM     18  H   UNL     1       4.671   3.246  20.266  0.00  0.00    +0.000 HD
BRANCH  17  19
ATOM     19  C   UNL     1       2.511   3.160  20.075  0.00  0.00    +0.000 C 
ATOM     20  C   UNL     1       2.411   1.887  19.191  0.00  0.00    +0.000 C 
ATOM     21  C   UNL     1       1.224   2.093  18.249  0.00  0.00    +0.000 C 
ATOM     22  C   UNL     1       0.372   3.152  18.923  0.00  0.00    +0.000 C 
ATOM     23  C   UNL     1       1.416   4.092  19.503  0.00  0.00    +0.000 C 
BRANCH  19  24
ATOM     24  C   UNL     1       2.201   2.797  21.481  0.00  0.00    +0.000 C 
ATOM     25  N   UNL     1       1.963   2.558  22.596  0.00  0.00    +0.000 NA
ENDBRANCH  19  24
ENDBRANCH  17  19
ENDBRANCH  14  15
ENDBRANCH   4  14
TORSDOF 9
ENDMDL
MODEL 4
REMARK VINA RESULT:      -6.6      1.469      2.557
REMARK  Name = 
REMARK  11 active torsions:
REMARK  status: ('A' for Active; 'I' for Inactive)
REMARK    1  A    between atoms: C_1  and  C_2
REMARK    2  A    between atoms: C_2  and  O_3
REMARK    3  A    between atoms: O_3  and  C_4
REMARK    4  A    between atoms: C_4  and  C_5
REMARK    5  A    between atoms: C_5  and  N_6
REMARK    6  A    between atoms: N_9  and  C_10
REMARK    7  A    between atoms: C_10  and  C_11
REMARK    8  A    between atoms: N_13  and  C_14
REMARK    9  A    between atoms: C_14  and  C_15
REMARK   10  A    between atoms: C_22  and  C_23
REMARK   11  A    between atoms: C_23  and  C_24
REMARK                            x       y       z     vdW  Elec       q    Type
REMARK                         _______ _______ _______ _____ _____    ______ ____
ROOT
ATOM      1  N   UNL     1       6.374   3.953  15.507  0.00  0.00    +0.000 NA
ATOM      2  C   UNL     1       7.322   4.526  16.483  0.00  0.00    +0.000 C 
ATOM      3  C   UNL     1       7.103   6.027  16.757  0.00  0.00    +0.000 C 
ATOM      4  N   UNL     1       5.743   6.388  17.220  0.00  0.00    +0.000 NA
ATOM      5  C   UNL     1       4.736   5.709  16.359  0.00  0.00    +0.000 C 
ATOM      6  C   UNL     1       4.982   4.204  15.973  0.00  0.00    +0.000 C 
ENDROOT
BRANCH   6   7
ATOM      7  C   UNL     1       4.581   3.251  17.129  0.00  0.00    +0.000 C 
ATOM      8  C   UNL     1       3.136   2.774  17.107  0.00  0.00    +0.000 C 
ENDBRANCH   6   7
BRANCH   1   9
ATOM      9  C   UNL     1       6.580   4.498  14.143  0.00  0.00    +0.000 C 
BRANCH   9  10
ATOM     10  C   UNL     1       6.286   3.493  13.017  0.00  0.00    +0.000 C 
BRANCH  10  11
ATOM     11  O   UNL     1       5.000   3.761  12.452  0.00  0.00    +0.000 OA
BRANCH  11  13
ATOM     12  C   UNL     1       3.451   3.300  10.695  0.00  0.00    +0.000 C 
ATOM     13  C   UNL     1       4.728   2.862  11.377  0.00  0.00    +0.000 C 
ENDBRANCH  11  13
ENDBRANCH  10  11
ENDBRANCH   9  10
ENDBRANCH   1   9
BRANCH   4  14
ATOM     14  C   UNL     1       5.549   6.071  18.654  0.00  0.00    +0.000 C 
BRANCH  14  15
ATOM     15  C   UNL     1       4.070   6.068  19.048  0.00  0.00    +0.000 C 
ATOM     16  O   UNL     1       3.260   6.830  18.523  0.00  0.00    +0.000 OA
ATOM     17  N   UNL     1       3.722   5.144  20.003  0.00  0.00    +0.000 N 
ATOM     18  H   UNL     1       4.490   4.639  20.437  0.00  0.00    +0.000 HD
BRANCH  17  19
ATOM     19  C   UNL     1       2.340   4.929  20.419  0.00  0.00    +0.000 C 
ATOM     20  C   UNL     1       2.268   3.934  21.609  0.00  0.00    +0.000 C 
ATOM     21  C   UNL     1       1.328   2.804  21.185  0.00  0.00    +0.000 C 
ATOM     22  C   UNL     1       0.492   3.392  20.065  0.00  0.00    +0.000 C 
ATOM     23  C   UNL     1       1.503   4.242  19.312  0.00  0.00    +0.000 C 
BRANCH  19  24
ATOM     24  C   UNL     1       1.711   6.212  20.824  0.00  0.00    +0.000 C 
ATOM     25  N   UNL     1       1.231   7.237  21.099  0.00  0.00    +0.000 NA
ENDBRANCH  19  24
ENDBRANCH  17  19
ENDBRANCH  14  15
ENDBRANCH   4  14
TORSDOF 9
ENDMDL
MODEL 5
REMARK VINA RESULT:      -6.4      3.491      5.476
REMARK  Name = 
REMARK  11 active torsions:
REMARK  status: ('A' for Active; 'I' for Inactive)
REMARK    1  A    between atoms: C_1  and  C_2
REMARK    2  A    between atoms: C_2  and  O_3
REMARK    3  A    between atoms: O_3  and  C_4
REMARK    4  A    between atoms: C_4  and  C_5
REMARK    5  A    between atoms: C_5  and  N_6
REMARK    6  A    between atoms: N_9  and  C_10
REMARK    7  A    between atoms: C_10  and  C_11
REMARK    8  A    between atoms: N_13  and  C_14
REMARK    9  A    between atoms: C_14  and  C_15
REMARK   10  A    between atoms: C_22  and  C_23
REMARK   11  A    between atoms: C_23  and  C_24
REMARK                            x       y       z     vdW  Elec       q    Type
REMARK                         _______ _______ _______ _____ _____    ______ ____
ROOT
ATOM      1  N   UNL     1       4.701   4.325  18.390  0.00  0.00    +0.000 NA
ATOM      2  C   UNL     1       5.059   5.714  18.739  0.00  0.00    +0.000 C 
ATOM      3  C   UNL     1       4.266   6.778  17.954  0.00  0.00    +0.000 C 
ATOM      4  N   UNL     1       2.793   6.674  18.070  0.00  0.00    +0.000 NA
ATOM      5  C   UNL     1       2.384   5.256  17.878  0.00  0.00    +0.000 C 
ATOM      6  C   UNL     1       3.235   4.135  18.581  0.00  0.00    +0.000 C 
ENDROOT
BRANCH   6   7
ATOM      7  C   UNL     1       2.864   4.001  20.081  0.00  0.00    +0.000 C 
ATOM      8  C   UNL     1       1.390   3.748  20.365  0.00  0.00    +0.000 C 
ENDBRANCH   6   7
BRANCH   1   9
ATOM      9  C   UNL     1       5.100   3.976  17.005  0.00  0.00    +0.000 C 
BRANCH   9  10
ATOM     10  C   UNL     1       6.584   4.241  16.697  0.00  0.00    +0.000 C 
BRANCH  10  11
ATOM     11  O   UNL     1       6.729   4.661  15.338  0.00  0.00    +0.000 OA
BRANCH  11  13
ATOM     12  C   UNL     1       6.097   3.742  13.226  0.00  0.00    +0.000 C 
ATOM     13  C   UNL     1       5.602   4.248  14.563  0.00  0.00    +0.000 C 
ENDBRANCH  11  13
ENDBRANCH  10  11
ENDBRANCH   9  10
ENDBRANCH   1   9
BRANCH   4  14
ATOM     14  C   UNL     1       2.304   7.222  19.358  0.00  0.00    +0.000 C 
BRANCH  14  15
ATOM     15  C   UNL     1       1.642   8.591  19.186  0.00  0.00    +0.000 C 
ATOM     16  O   UNL     1       1.577   9.145  18.089  0.00  0.00    +0.000 OA
ATOM     17  N   UNL     1       1.114   9.132  20.333  0.00  0.00    +0.000 N 
ATOM     18  H   UNL     1       1.316   8.634  21.196  0.00  0.00    +0.000 HD
BRANCH  17  19
ATOM     19  C   UNL     1       0.354  10.378  20.334  0.00  0.00    +0.000 C 
ATOM     20  C   UNL     1      -0.943  10.235  19.492  0.00  0.00    +0.000 C 
ATOM     21  C   UNL     1      -0.916  11.348  18.444  0.00  0.00    +0.000 C 
ATOM     22  C   UNL     1       0.041  12.385  19.002  0.00  0.00    +0.000 C 
ATOM     23  C   UNL     1       1.123  11.526  19.635  0.00  0.00    +0.000 C 
BRANCH  19  24
ATOM     24  C   UNL     1      -0.010  10.766  21.720  0.00  0.00    +0.000 C 
ATOM     25  N   UNL     1      -0.294  11.025  22.820  0.00  0.00    +0.000 NA
ENDBRANCH  19  24
ENDBRANCH  17  19
ENDBRANCH  14  15
ENDBRANCH   4  14
TORSDOF 9
ENDMDL
MODEL 6
REMARK VINA RESULT:      -6.4      3.300      5.954
REMARK  Name = 
REMARK  11 active torsions:
REMARK  status: ('A' for Active; 'I' for Inactive)
REMARK    1  A    between atoms: C_1  and  C_2
REMARK    2  A    between atoms: C_2  and  O_3
REMARK    3  A    between atoms: O_3  and  C_4
REMARK    4  A    between atoms: C_4  and  C_5
REMARK    5  A    between atoms: C_5  and  N_6
REMARK    6  A    between atoms: N_9  and  C_10
REMARK    7  A    between atoms: C_10  and  C_11
REMARK    8  A    between atoms: N_13  and  C_14
REMARK    9  A    between atoms: C_14  and  C_15
REMARK   10  A    between atoms: C_22  and  C_23
REMARK   11  A    between atoms: C_23  and  C_24
REMARK                            x       y       z     vdW  Elec       q    Type
REMARK                         _______ _______ _______ _____ _____    ______ ____
ROOT
ATOM      1  N   UNL     1       4.465   3.609  18.113  0.00  0.00    +0.000 NA
ATOM      2  C   UNL     1       3.572   4.207  17.099  0.00  0.00    +0.000 C 
ATOM      3  C   UNL     1       2.390   4.995  17.696  0.00  0.00    +0.000 C 
ATOM      4  N   UNL     1       2.769   6.083  18.627  0.00  0.00    +0.000 NA
ATOM      5  C   UNL     1       3.790   5.577  19.584  0.00  0.00    +0.000 C 
ATOM      6  C   UNL     1       4.955   4.681  19.024  0.00  0.00    +0.000 C 
ENDROOT
BRANCH   6   7
ATOM      7  C   UNL     1       6.060   5.542  18.358  0.00  0.00    +0.000 C 
ATOM      8  C   UNL     1       7.294   4.776  17.903  0.00  0.00    +0.000 C 
ENDBRANCH   6   7
BRANCH   1   9
ATOM      9  C   UNL     1       3.795   2.530  18.879  0.00  0.00    +0.000 C 
BRANCH   9  10
ATOM     10  C   UNL     1       4.280   2.404  20.333  0.00  0.00    +0.000 C 
BRANCH  10  11
ATOM     11  O   UNL     1       3.156   2.386  21.218  0.00  0.00    +0.000 OA
BRANCH  11  13
ATOM     12  C   UNL     1       1.126   3.610  20.931  0.00  0.00    +0.000 C 
ATOM     13  C   UNL     1       1.935   2.415  20.478  0.00  0.00    +0.000 C 
ENDBRANCH  11  13
ENDBRANCH  10  11
ENDBRANCH   9  10
ENDBRANCH   1   9
BRANCH   4  14
ATOM     14  C   UNL     1       3.239   7.287  17.901  0.00  0.00    +0.000 C 
BRANCH  14  15
ATOM     15  C   UNL     1       2.340   8.499  18.156  0.00  0.00    +0.000 C 
ATOM     16  O   UNL     1       2.049   9.288  17.259  0.00  0.00    +0.000 OA
ATOM     17  N   UNL     1       1.874   8.620  19.443  0.00  0.00    +0.000 N 
ATOM     18  H   UNL     1       2.261   7.969  20.121  0.00  0.00    +0.000 HD
BRANCH  17  19
ATOM     19  C   UNL     1       0.922   9.652  19.838  0.00  0.00    +0.000 C 
ATOM     20  C   UNL     1      -0.499   9.329  19.300  0.00  0.00    +0.000 C 
ATOM     21  C   UNL     1      -0.952  10.544  18.488  0.00  0.00    +0.000 C 
ATOM     22  C   UNL     1      -0.094  11.690  18.990  0.00  0.00    +0.000 C 
ATOM     23  C   UNL     1       1.255  11.022  19.199  0.00  0.00    +0.000 C 
BRANCH  19  24
ATOM     24  C   UNL     1       0.863   9.770  21.317  0.00  0.00    +0.000 C 
ATOM     25  N   UNL     1       0.792   9.903  22.472  0.00  0.00    +0.000 NA
ENDBRANCH  19  24
ENDBRANCH  17  19
ENDBRANCH  14  15
ENDBRANCH   4  14
TORSDOF 9
ENDMDL
MODEL 7
REMARK VINA RESULT:      -6.3      3.581      5.570
REMARK  Name = 
REMARK  11 active torsions:
REMARK  status: ('A' for Active; 'I' for Inactive)
REMARK    1  A    between atoms: C_1  and  C_2
REMARK    2  A    between atoms: C_2  and  O_3
REMARK    3  A    between atoms: O_3  and  C_4
REMARK    4  A    between atoms: C_4  and  C_5
REMARK    5  A    between atoms: C_5  and  N_6
REMARK    6  A    between atoms: N_9  and  C_10
REMARK    7  A    between atoms: C_10  and  C_11
REMARK    8  A    between atoms: N_13  and  C_14
REMARK    9  A    between atoms: C_14  and  C_15
REMARK   10  A    between atoms: C_22  and  C_23
REMARK   11  A    between atoms: C_23  and  C_24
REMARK                            x       y       z     vdW  Elec       q    Type
REMARK                         _______ _______ _______ _____ _____    ______ ____
ROOT
ATOM      1  N   UNL     1       4.537   4.327  18.272  0.00  0.00    +0.000 NA
ATOM      2  C   UNL     1       4.949   5.728  18.486  0.00  0.00    +0.000 C 
ATOM      3  C   UNL     1       4.103   6.753  17.706  0.00  0.00    +0.000 C 
ATOM      4  N   UNL     1       2.646   6.692  17.967  0.00  0.00    +0.000 NA
ATOM      5  C   UNL     1       2.198   5.274  17.916  0.00  0.00    +0.000 C 
ATOM      6  C   UNL     1       3.094   4.185  18.613  0.00  0.00    +0.000 C 
ENDROOT
BRANCH   6   7
ATOM      7  C   UNL     1       2.865   4.162  20.147  0.00  0.00    +0.000 C 
ATOM      8  C   UNL     1       1.425   3.933  20.586  0.00  0.00    +0.000 C 
ENDBRANCH   6   7
BRANCH   1   9
ATOM      9  C   UNL     1       4.797   3.874  16.883  0.00  0.00    +0.000 C 
BRANCH   9  10
ATOM     10  C   UNL     1       6.231   4.142  16.397  0.00  0.00    +0.000 C 
BRANCH  10  11
ATOM     11  O   UNL     1       6.419   3.563  15.104  0.00  0.00    +0.000 OA
BRANCH  11  13
ATOM     12  C   UNL     1       5.842   3.580  12.786  0.00  0.00    +0.000 C 
ATOM     13  C   UNL     1       5.606   4.225  14.134  0.00  0.00    +0.000 C 
ENDBRANCH  11  13
ENDBRANCH  10  11
ENDBRANCH   9  10
ENDBRANCH   1   9
BRANCH   4  14
ATOM     14  C   UNL     1       2.292   7.338  19.253  0.00  0.00    +0.000 C 
BRANCH  14  15
ATOM     15  C   UNL     1       1.626   8.701  19.047  0.00  0.00    +0.000 C 
ATOM     16  O   UNL     1       1.629   9.264  17.953  0.00  0.00    +0.000 OA
ATOM     17  N   UNL     1       1.014   9.225  20.160  0.00  0.00    +0.000 N 
ATOM     18  H   UNL     1       1.162   8.722  21.030  0.00  0.00    +0.000 HD
BRANCH  17  19
ATOM     19  C   UNL     1       0.240  10.462  20.119  0.00  0.00    +0.000 C 
ATOM     20  C   UNL     1       1.139  11.665  19.723  0.00  0.00    +0.000 C 
ATOM     21  C   UNL     1       0.989  12.712  20.829  0.00  0.00    +0.000 C 
ATOM     22  C   UNL     1      -0.321  12.371  21.513  0.00  0.00    +0.000 C 
ATOM     23  C   UNL     1      -0.304  10.851  21.515  0.00  0.00    +0.000 C 
BRANCH  19  24
ATOM     24  C   UNL     1      -0.873  10.349  19.142  0.00  0.00    +0.000 C 
ATOM     25  N   UNL     1      -1.725  10.221  18.357  0.00  0.00    +0.000 NA
ENDBRANCH  19  24
ENDBRANCH  17  19
ENDBRANCH  14  15
ENDBRANCH   4  14
TORSDOF 9
ENDMDL
MODEL 8
REMARK VINA RESULT:      -6.3      3.435      5.996
REMARK  Name = 
REMARK  11 active torsions:
REMARK  status: ('A' for Active; 'I' for Inactive)
REMARK    1  A    between atoms: C_1  and  C_2
REMARK    2  A    between atoms: C_2  and  O_3
REMARK    3  A    between atoms: O_3  and  C_4
REMARK    4  A    between atoms: C_4  and  C_5
REMARK    5  A    between atoms: C_5  and  N_6
REMARK    6  A    between atoms: N_9  and  C_10
REMARK    7  A    between atoms: C_10  and  C_11
REMARK    8  A    between atoms: N_13  and  C_14
REMARK    9  A    between atoms: C_14  and  C_15
REMARK   10  A    between atoms: C_22  and  C_23
REMARK   11  A    between atoms: C_23  and  C_24
REMARK                            x       y       z     vdW  Elec       q    Type
REMARK                         _______ _______ _______ _____ _____    ______ ____
ROOT
ATOM      1  N   UNL     1       4.502   3.959  18.207  0.00  0.00    +0.000 NA
ATOM      2  C   UNL     1       3.425   4.407  17.301  0.00  0.00    +0.000 C 
ATOM      3  C   UNL     1       2.341   5.255  17.994  0.00  0.00    +0.000 C 
ATOM      4  N   UNL     1       2.840   6.461  18.693  0.00  0.00    +0.000 NA
ATOM      5  C   UNL     1       4.030   6.099  19.509  0.00  0.00    +0.000 C 
ATOM      6  C   UNL     1       5.108   5.148  18.869  0.00  0.00    +0.000 C 
ENDROOT
BRANCH   6   7
ATOM      7  C   UNL     1       6.049   5.924  17.910  0.00  0.00    +0.000 C 
ATOM      8  C   UNL     1       7.227   5.127  17.370  0.00  0.00    +0.000 C 
ENDBRANCH   6   7
BRANCH   1   9
ATOM      9  C   UNL     1       4.016   2.985  19.215  0.00  0.00    +0.000 C 
BRANCH   9  10
ATOM     10  C   UNL     1       3.015   1.959  18.659  0.00  0.00    +0.000 C 
BRANCH  10  11
ATOM     11  O   UNL     1       1.908   1.829  19.554  0.00  0.00    +0.000 OA
BRANCH  11  13
ATOM     12  C   UNL     1       1.353   2.463  21.789  0.00  0.00    +0.000 C 
ATOM     13  C   UNL     1       1.848   2.945  20.443  0.00  0.00    +0.000 C 
ENDBRANCH  11  13
ENDBRANCH  10  11
ENDBRANCH   9  10
ENDBRANCH   1   9
BRANCH   4  14
ATOM     14  C   UNL     1       3.133   7.562  17.745  0.00  0.00    +0.000 C 
BRANCH  14  15
ATOM     15  C   UNL     1       2.258   8.791  18.004  0.00  0.00    +0.000 C 
ATOM     16  O   UNL     1       2.246   9.750  17.234  0.00  0.00    +0.000 OA
ATOM     17  N   UNL     1       1.482   8.728  19.136  0.00  0.00    +0.000 N 
ATOM     18  H   UNL     1       1.649   7.933  19.748  0.00  0.00    +0.000 HD
BRANCH  17  19
ATOM     19  C   UNL     1       0.511   9.761  19.479  0.00  0.00    +0.000 C 
ATOM     20  C   UNL     1       1.218  11.116  19.754  0.00  0.00    +0.000 C 
ATOM     21  C   UNL     1       0.785  11.566  21.151  0.00  0.00    +0.000 C 
ATOM     22  C   UNL     1      -0.502  10.812  21.422  0.00  0.00    +0.000 C 
ATOM     23  C   UNL     1      -0.220   9.450  20.809  0.00  0.00    +0.000 C 
BRANCH  19  24
ATOM     24  C   UNL     1      -0.470   9.942  18.379  0.00  0.00    +0.000 C 
ATOM     25  N   UNL     1      -1.272  10.065  17.544  0.00  0.00    +0.000 NA
ENDBRANCH  19  24
ENDBRANCH  17  19
ENDBRANCH  14  15
ENDBRANCH   4  14
TORSDOF 9
ENDMDL
MODEL 9
REMARK VINA RESULT:      -6.2      3.880      5.882
REMARK  Name = 
REMARK  11 active torsions:
REMARK  status: ('A' for Active; 'I' for Inactive)
REMARK    1  A    between atoms: C_1  and  C_2
REMARK    2  A    between atoms: C_2  and  O_3
REMARK    3  A    between atoms: O_3  and  C_4
REMARK    4  A    between atoms: C_4  and  C_5
REMARK    5  A    between atoms: C_5  and  N_6
REMARK    6  A    between atoms: N_9  and  C_10
REMARK    7  A    between atoms: C_10  and  C_11
REMARK    8  A    between atoms: N_13  and  C_14
REMARK    9  A    between atoms: C_14  and  C_15
REMARK   10  A    between atoms: C_22  and  C_23
REMARK   11  A    between atoms: C_23  and  C_24
REMARK                            x       y       z     vdW  Elec       q    Type
REMARK                         _______ _______ _______ _____ _____    ______ ____
ROOT
ATOM      1  N   UNL     1       3.903   4.112  18.933  0.00  0.00    +0.000 NA
ATOM      2  C   UNL     1       4.544   5.431  19.109  0.00  0.00    +0.000 C 
ATOM      3  C   UNL     1       4.093   6.485  18.078  0.00  0.00    +0.000 C 
ATOM      4  N   UNL     1       2.632   6.723  18.023  0.00  0.00    +0.000 NA
ATOM      5  C   UNL     1       1.922   5.416  18.000  0.00  0.00    +0.000 C 
ATOM      6  C   UNL     1       2.423   4.280  18.966  0.00  0.00    +0.000 C 
ENDROOT
BRANCH   6   7
ATOM      7  C   UNL     1       1.901   4.495  20.411  0.00  0.00    +0.000 C 
ATOM      8  C   UNL     1       2.281   3.410  21.408  0.00  0.00    +0.000 C 
ENDBRANCH   6   7
BRANCH   1   9
ATOM      9  C   UNL     1       4.330   3.446  17.678  0.00  0.00    +0.000 C 
BRANCH   9  10
ATOM     10  C   UNL     1       5.646   3.990  17.099  0.00  0.00    +0.000 C 
BRANCH  10  11
ATOM     11  O   UNL     1       5.873   3.430  15.803  0.00  0.00    +0.000 OA
BRANCH  11  13
ATOM     12  C   UNL     1       6.095   3.849  13.463  0.00  0.00    +0.000 C 
ATOM     13  C   UNL     1       5.603   4.394  14.785  0.00  0.00    +0.000 C 
ENDBRANCH  11  13
ENDBRANCH  10  11
ENDBRANCH   9  10
ENDBRANCH   1   9
BRANCH   4  14
ATOM     14  C   UNL     1       2.175   7.582  19.141  0.00  0.00    +0.000 C 
BRANCH  14  15
ATOM     15  C   UNL     1       1.701   8.954  18.656  0.00  0.00    +0.000 C 
ATOM     16  O   UNL     1       1.872   9.324  17.495  0.00  0.00    +0.000 OA
ATOM     17  N   UNL     1       1.059   9.718  19.601  0.00  0.00    +0.000 N 
ATOM     18  H   UNL     1       1.065   9.353  20.550  0.00  0.00    +0.000 HD
BRANCH  17  19
ATOM     19  C   UNL     1       0.448  11.005  19.285  0.00  0.00    +0.000 C 
ATOM     20  C   UNL     1      -0.205  11.632  20.546  0.00  0.00    +0.000 C 
ATOM     21  C   UNL     1      -1.667  11.912  20.196  0.00  0.00    +0.000 C 
ATOM     22  C   UNL     1      -1.702  11.963  18.680  0.00  0.00    +0.000 C 
ATOM     23  C   UNL     1      -0.732  10.857  18.294  0.00  0.00    +0.000 C 
BRANCH  19  24
ATOM     24  C   UNL     1       1.462  11.946  18.747  0.00  0.00    +0.000 C 
ATOM     25  N   UNL     1       2.288  12.672  18.360  0.00  0.00    +0.000 NA
ENDBRANCH  19  24
ENDBRANCH  17  19
ENDBRANCH  14  15
ENDBRANCH   4  14
TORSDOF 9
ENDMDL
