MODEL 1
REMARK VINA RESULT:      -8.1      0.000      0.000
REMARK  Name = 
REMARK  12 active torsions:
REMARK  status: ('A' for Active; 'I' for Inactive)
REMARK    1  A    between atoms: C_1  and  C_2
REMARK    2  A    between atoms: C_4  and  C_5
REMARK    3  A    between atoms: C_13  and  C_14
REMARK    4  A    between atoms: C_14  and  O_15
REMARK    5  A    between atoms: O_15  and  C_16
REMARK    6  A    between atoms: C_20  and  C_21
REMARK    7  A    between atoms: C_21  and  N_22
REMARK    8  A    between atoms: N_22  and  C_23
REMARK    9  A    between atoms: C_23  and  C_24
REMARK   10  A    between atoms: C_24  and  O_26
REMARK   11  A    between atoms: C_27  and  O_29
REMARK   12  A    between atoms: O_29  and  C_30
REMARK                            x       y       z     vdW  Elec       q    Type
REMARK                         _______ _______ _______ _____ _____    ______ ____
ROOT
ATOM      1  C   UNL     1       1.714   5.875  20.443  0.00  0.00    +0.000 A 
ATOM      2  C   UNL     1       1.228   4.589  20.697  0.00  0.00    +0.000 A 
ATOM      3  C   UNL     1       1.888   3.469  20.196  0.00  0.00    +0.000 A 
ATOM      4  C   UNL     1       3.078   3.623  19.482  0.00  0.00    +0.000 A 
ATOM      5  C   UNL     1       3.621   4.900  19.265  0.00  0.00    +0.000 A 
ATOM      6  C   UNL     1       2.895   6.033  19.703  0.00  0.00    +0.000 A 
ENDROOT
BRANCH   1   7
ATOM      7  O   UNL     1       1.031   6.861  21.102  0.00  0.00    +0.000 OA
BRANCH   7   8
ATOM      8  C   UNL     1       1.653   8.139  21.257  0.00  0.00    +0.000 C 
BRANCH   8  14
ATOM      9  C   UNL     1       1.098   9.567  18.198  0.00  0.00    +0.000 C 
ATOM     10  C   UNL     1       0.554   9.800  19.548  0.00  0.00    +0.000 A 
ATOM     11  O   UNL     1      -0.370  10.799  19.661  0.00  0.00    +0.000 OA
ATOM     12  C   UNL     1      -0.686  10.834  20.991  0.00  0.00    +0.000 A 
ATOM     13  N   UNL     1      -0.058   9.922  21.712  0.00  0.00    +0.000 NA
ATOM     14  C   UNL     1       0.751   9.253  20.803  0.00  0.00    +0.000 A 
BRANCH  12  15
ATOM     15  C   UNL     1      -1.613  11.885  21.408  0.00  0.00    +0.000 A 
ATOM     16  C   UNL     1      -1.841  12.170  22.768  0.00  0.00    +0.000 A 
ATOM     17  C   UNL     1      -2.773  13.147  23.150  0.00  0.00    +0.000 A 
ATOM     18  C   UNL     1      -3.481  13.844  22.176  0.00  0.00    +0.000 A 
ATOM     19 CL   UNL     1      -4.651  15.016  22.642  0.00  0.00    +0.000 Cl
ATOM     20  C   UNL     1      -3.260  13.585  20.825  0.00  0.00    +0.000 A 
ATOM     21  C   UNL     1      -2.330  12.610  20.444  0.00  0.00    +0.000 A 
ENDBRANCH  12  15
ENDBRANCH   8  14
ENDBRANCH   7   8
ENDBRANCH   1   7
BRANCH   5  22
ATOM     22  C   UNL     1       5.055   5.018  18.771  0.00  0.00    +0.000 C 
BRANCH  22  23
ATOM     23  N   UNL     1       5.237   5.474  17.401  0.00  0.00    +0.000 N 
ATOM     24  C   UNL     1       5.334   4.534  16.380  0.00  0.00    +0.000 C 
ATOM     25  O   UNL     1       4.994   3.363  16.483  0.00  0.00    +0.000 OA
BRANCH  23  26
ATOM     26  C   UNL     1       5.737   6.835  17.188  0.00  0.00    +0.000 C 
BRANCH  26  27
ATOM     27  C   UNL     1       7.230   7.039  17.455  0.00  0.00    +0.000 C 
ATOM     28  O   UNL     1       7.992   6.178  17.872  0.00  0.00    +0.000 OA
BRANCH  27  29
ATOM     29  O   UNL     1       7.702   8.273  17.187  0.00  0.00    +0.000 OA
ATOM     30  H   UNL     1       8.048   8.206  16.272  0.00  0.00    +0.000 HD
ENDBRANCH  27  29
ENDBRANCH  26  27
ENDBRANCH  23  26
BRANCH  24  31
ATOM     31  O   UNL     1       5.906   5.061  15.260  0.00  0.00    +0.000 OA
BRANCH  31  32
ATOM     32  C   UNL     1       6.381   4.147  14.264  0.00  0.00    +0.000 C 
ATOM     33  C   UNL     1       5.258   3.726  13.330  0.00  0.00    +0.000 C 
ATOM     34  C   UNL     1       5.973   3.301  12.056  0.00  0.00    +0.000 C 
ATOM     35  C   UNL     1       7.240   4.151  11.988  0.00  0.00    +0.000 C 
ATOM     36  C   UNL     1       7.339   4.879  13.326  0.00  0.00    +0.000 C 
ENDBRANCH  31  32
ENDBRANCH  24  31
ENDBRANCH  22  23
ENDBRANCH   5  22
TORSDOF 11
ENDMDL
MODEL 2
REMARK VINA RESULT:      -7.9      1.503      1.817
REMARK  Name = 
REMARK  12 active torsions:
REMARK  status: ('A' for Active; 'I' for Inactive)
REMARK    1  A    between atoms: C_1  and  C_2
REMARK    2  A    between atoms: C_4  and  C_5
REMARK    3  A    between atoms: C_13  and  C_14
REMARK    4  A    between atoms: C_14  and  O_15
REMARK    5  A    between atoms: O_15  and  C_16
REMARK    6  A    between atoms: C_20  and  C_21
REMARK    7  A    between atoms: C_21  and  N_22
REMARK    8  A    between atoms: N_22  and  C_23
REMARK    9  A    between atoms: C_23  and  C_24
REMARK   10  A    between atoms: C_24  and  O_26
REMARK   11  A    between atoms: C_27  and  O_29
REMARK   12  A    between atoms: O_29  and  C_30
REMARK                            x       y       z     vdW  Elec       q    Type
REMARK                         _______ _______ _______ _____ _____    ______ ____
ROOT
ATOM      1  C   UNL     1       2.594   6.152  19.909  0.00  0.00    +0.000 A 
ATOM      2  C   UNL     1       1.568   5.271  20.264  0.00  0.00    +0.000 A 
ATOM      3  C   UNL     1       1.668   3.913  19.973  0.00  0.00    +0.000 A 
ATOM      4  C   UNL     1       2.825   3.410  19.377  0.00  0.00    +0.000 A 
ATOM      5  C   UNL     1       3.897   4.264  19.065  0.00  0.00    +0.000 A 
ATOM      6  C   UNL     1       3.747   5.654  19.285  0.00  0.00    +0.000 A 
ENDROOT
BRANCH   1   7
ATOM      7  O   UNL     1       2.407   7.428  20.368  0.00  0.00    +0.000 OA
BRANCH   7   8
ATOM      8  C   UNL     1       1.142   7.772  20.940  0.00  0.00    +0.000 C 
BRANCH   8  14
ATOM      9  C   UNL     1       1.230   9.766  18.161  0.00  0.00    +0.000 C 
ATOM     10  C   UNL     1       0.857   9.992  19.569  0.00  0.00    +0.000 A 
ATOM     11  O   UNL     1       0.461  11.258  19.891  0.00  0.00    +0.000 OA
ATOM     12  C   UNL     1       0.205  11.214  21.234  0.00  0.00    +0.000 A 
ATOM     13  N   UNL     1       0.382  10.019  21.770  0.00  0.00    +0.000 NA
ATOM     14  C   UNL     1       0.810   9.222  20.717  0.00  0.00    +0.000 A 
BRANCH  12  15
ATOM     15  C   UNL     1      -0.166  12.480  21.864  0.00  0.00    +0.000 A 
ATOM     16  C   UNL     1      -1.109  12.535  22.908  0.00  0.00    +0.000 A 
ATOM     17  C   UNL     1      -1.492  13.765  23.465  0.00  0.00    +0.000 A 
ATOM     18  C   UNL     1      -0.935  14.944  22.981  0.00  0.00    +0.000 A 
ATOM     19 CL   UNL     1      -1.431  16.456  23.636  0.00  0.00    +0.000 Cl
ATOM     20  C   UNL     1       0.008  14.910  21.957  0.00  0.00    +0.000 A 
ATOM     21  C   UNL     1       0.390  13.682  21.402  0.00  0.00    +0.000 A 
ENDBRANCH  12  15
ENDBRANCH   8  14
ENDBRANCH   7   8
ENDBRANCH   1   7
BRANCH   5  22
ATOM     22  C   UNL     1       5.247   3.656  18.715  0.00  0.00    +0.000 C 
BRANCH  22  23
ATOM     23  N   UNL     1       6.079   4.408  17.787  0.00  0.00    +0.000 N 
ATOM     24  C   UNL     1       5.658   4.561  16.471  0.00  0.00    +0.000 C 
ATOM     25  O   UNL     1       4.513   4.370  16.082  0.00  0.00    +0.000 OA
BRANCH  23  26
ATOM     26  C   UNL     1       7.491   4.601  18.128  0.00  0.00    +0.000 C 
BRANCH  26  27
ATOM     27  C   UNL     1       7.796   5.807  19.019  0.00  0.00    +0.000 C 
ATOM     28  O   UNL     1       7.984   6.947  18.616  0.00  0.00    +0.000 OA
BRANCH  27  29
ATOM     29  O   UNL     1       7.841   5.552  20.342  0.00  0.00    +0.000 OA
ATOM     30  H   UNL     1       7.900   4.575  20.399  0.00  0.00    +0.000 HD
ENDBRANCH  27  29
ENDBRANCH  26  27
ENDBRANCH  23  26
BRANCH  24  31
ATOM     31  O   UNL     1       6.690   4.902  15.646  0.00  0.00    +0.000 OA
BRANCH  31  32
ATOM     32  C   UNL     1       6.425   4.957  14.240  0.00  0.00    +0.000 C 
ATOM     33  C   UNL     1       7.693   5.267  13.458  0.00  0.00    +0.000 C 
ATOM     34  C   UNL     1       7.418   4.710  12.069  0.00  0.00    +0.000 C 
ATOM     35  C   UNL     1       6.481   3.522  12.275  0.00  0.00    +0.000 C 
ATOM     36  C   UNL     1       6.060   3.559  13.742  0.00  0.00    +0.000 C 
ENDBRANCH  31  32
ENDBRANCH  24  31
ENDBRANCH  22  23
ENDBRANCH   5  22
TORSDOF 11
ENDMDL
MODEL 3
REMARK VINA RESULT:      -7.9      4.045      9.846
REMARK  Name = 
REMARK  12 active torsions:
REMARK  status: ('A' for Active; 'I' for Inactive)
REMARK    1  A    between atoms: C_1  and  C_2
REMARK    2  A    between atoms: C_4  and  C_5
REMARK    3  A    between atoms: C_13  and  C_14
REMARK    4  A    between atoms: C_14  and  O_15
REMARK    5  A    between atoms: O_15  and  C_16
REMARK    6  A    between atoms: C_20  and  C_21
REMARK    7  A    between atoms: C_21  and  N_22
REMARK    8  A    between atoms: N_22  and  C_23
REMARK    9  A    between atoms: C_23  and  C_24
REMARK   10  A    between atoms: C_24  and  O_26
REMARK   11  A    between atoms: C_27  and  O_29
REMARK   12  A    between atoms: O_29  and  C_30
REMARK                            x       y       z     vdW  Elec       q    Type
REMARK                         _______ _______ _______ _____ _____    ______ ____
ROOT
ATOM      1  C   UNL     1       0.796   9.170  21.194  0.00  0.00    +0.000 A 
ATOM      2  C   UNL     1      -0.009   8.713  22.242  0.00  0.00    +0.000 A 
ATOM      3  C   UNL     1      -0.772   9.606  22.991  0.00  0.00    +0.000 A 
ATOM      4  C   UNL     1      -0.785  10.961  22.659  0.00  0.00    +0.000 A 
ATOM      5  C   UNL     1      -0.034  11.438  21.573  0.00  0.00    +0.000 A 
ATOM      6  C   UNL     1       0.806  10.536  20.876  0.00  0.00    +0.000 A 
ENDROOT
BRANCH   1   7
ATOM      7  O   UNL     1       1.388   8.166  20.477  0.00  0.00    +0.000 OA
BRANCH   7   8
ATOM      8  C   UNL     1       1.376   6.841  21.015  0.00  0.00    +0.000 C 
BRANCH   8  14
ATOM      9  C   UNL     1       2.210   3.543  21.388  0.00  0.00    +0.000 C 
ATOM     10  C   UNL     1       2.492   4.558  20.357  0.00  0.00    +0.000 A 
ATOM     11  O   UNL     1       3.258   4.149  19.303  0.00  0.00    +0.000 OA
ATOM     12  C   UNL     1       3.398   5.262  18.520  0.00  0.00    +0.000 A 
ATOM     13  N   UNL     1       2.762   6.324  18.984  0.00  0.00    +0.000 NA
ATOM     14  C   UNL     1       2.181   5.893  20.169  0.00  0.00    +0.000 A 
BRANCH  12  15
ATOM     15  C   UNL     1       4.256   5.122  17.344  0.00  0.00    +0.000 A 
ATOM     16  C   UNL     1       4.643   3.858  16.860  0.00  0.00    +0.000 A 
ATOM     17  C   UNL     1       5.509   3.745  15.761  0.00  0.00    +0.000 A 
ATOM     18  C   UNL     1       5.991   4.893  15.142  0.00  0.00    +0.000 A 
ATOM     19 CL   UNL     1       7.083   4.757  13.819  0.00  0.00    +0.000 Cl
ATOM     20  C   UNL     1       5.610   6.153  15.599  0.00  0.00    +0.000 A 
ATOM     21  C   UNL     1       4.746   6.265  16.695  0.00  0.00    +0.000 A 
ENDBRANCH  12  15
ENDBRANCH   8  14
ENDBRANCH   7   8
ENDBRANCH   1   7
BRANCH   5  22
ATOM     22  C   UNL     1      -0.308  12.838  21.043  0.00  0.00    +0.000 C 
BRANCH  22  23
ATOM     23  N   UNL     1      -0.693  12.941  19.643  0.00  0.00    +0.000 N 
ATOM     24  C   UNL     1      -1.946  12.482  19.249  0.00  0.00    +0.000 C 
ATOM     25  O   UNL     1      -2.875  12.262  20.015  0.00  0.00    +0.000 OA
BRANCH  23  26
ATOM     26  C   UNL     1       0.368  13.107  18.647  0.00  0.00    +0.000 C 
BRANCH  26  27
ATOM     27  C   UNL     1       1.454  14.126  19.002  0.00  0.00    +0.000 C 
ATOM     28  O   UNL     1       1.281  15.335  19.084  0.00  0.00    +0.000 OA
BRANCH  27  29
ATOM     29  O   UNL     1       2.674  13.609  19.248  0.00  0.00    +0.000 OA
ATOM     30  H   UNL     1       2.514  12.925  19.932  0.00  0.00    +0.000 HD
ENDBRANCH  27  29
ENDBRANCH  26  27
ENDBRANCH  23  26
BRANCH  24  31
ATOM     31  O   UNL     1      -2.002  12.256  17.906  0.00  0.00    +0.000 OA
BRANCH  31  32
ATOM     32  C   UNL     1      -2.805  11.160  17.450  0.00  0.00    +0.000 C 
ATOM     33  C   UNL     1      -3.515  11.508  16.151  0.00  0.00    +0.000 C 
ATOM     34  C   UNL     1      -3.794  10.157  15.507  0.00  0.00    +0.000 C 
ATOM     35  C   UNL     1      -2.665   9.237  15.966  0.00  0.00    +0.000 C 
ATOM     36  C   UNL     1      -1.893  10.007  17.034  0.00  0.00    +0.000 C 
ENDBRANCH  31  32
ENDBRANCH  24  31
ENDBRANCH  22  23
ENDBRANCH   5  22
TORSDOF 11
ENDMDL
MODEL 4
REMARK VINA RESULT:      -7.9      1.504      1.947
REMARK  Name = 
REMARK  12 active torsions:
REMARK  status: ('A' for Active; 'I' for Inactive)
REMARK    1  A    between atoms: C_1  and  C_2
REMARK    2  A    between atoms: C_4  and  C_5
REMARK    3  A    between atoms: C_13  and  C_14
REMARK    4  A    between atoms: C_14  and  O_15
REMARK    5  A    between atoms: O_15  and  C_16
REMARK    6  A    between atoms: C_20  and  C_21
REMARK    7  A    between atoms: C_21  and  N_22
REMARK    8  A    between atoms: N_22  and  C_23
REMARK    9  A    between atoms: C_23  and  C_24
REMARK   10  A    between atoms: C_24  and  O_26
REMARK   11  A    between atoms: C_27  and  O_29
REMARK   12  A    between atoms: O_29  and  C_30
REMARK                            x       y       z     vdW  Elec       q    Type
REMARK                         _______ _______ _______ _____ _____    ______ ____
ROOT
ATOM      1  C   UNL     1       1.631   5.195  20.327  0.00  0.00    +0.000 A 
ATOM      2  C   UNL     1       1.216   4.051  21.013  0.00  0.00    +0.000 A 
ATOM      3  C   UNL     1       1.919   2.855  20.887  0.00  0.00    +0.000 A 
ATOM      4  C   UNL     1       3.082   2.807  20.118  0.00  0.00    +0.000 A 
ATOM      5  C   UNL     1       3.556   3.958  19.466  0.00  0.00    +0.000 A 
ATOM      6  C   UNL     1       2.785   5.144  19.531  0.00  0.00    +0.000 A 
ENDROOT
BRANCH   1   7
ATOM      7  O   UNL     1       0.916   6.318  20.646  0.00  0.00    +0.000 OA
BRANCH   7   8
ATOM      8  C   UNL     1       1.622   7.469  21.117  0.00  0.00    +0.000 C 
BRANCH   8  14
ATOM      9  C   UNL     1       2.254   8.284  17.855  0.00  0.00    +0.000 C 
ATOM     10  C   UNL     1       1.580   8.975  18.969  0.00  0.00    +0.000 A 
ATOM     11  O   UNL     1       1.091  10.221  18.696  0.00  0.00    +0.000 OA
ATOM     12  C   UNL     1       0.553  10.651  19.877  0.00  0.00    +0.000 A 
ATOM     13  N   UNL     1       0.642   9.768  20.857  0.00  0.00    +0.000 NA
ATOM     14  C   UNL     1       1.307   8.687  20.293  0.00  0.00    +0.000 A 
BRANCH  12  15
ATOM     15  C   UNL     1       0.022  12.014  19.888  0.00  0.00    +0.000 A 
ATOM     16  C   UNL     1       0.210  12.887  18.801  0.00  0.00    +0.000 A 
ATOM     17  C   UNL     1      -0.263  14.208  18.851  0.00  0.00    +0.000 A 
ATOM     18  C   UNL     1      -0.924  14.661  19.987  0.00  0.00    +0.000 A 
ATOM     19 CL   UNL     1      -1.471  16.291  20.067  0.00  0.00    +0.000 Cl
ATOM     20  C   UNL     1      -1.130  13.808  21.069  0.00  0.00    +0.000 A 
ATOM     21  C   UNL     1      -0.659  12.491  21.018  0.00  0.00    +0.000 A 
ENDBRANCH  12  15
ENDBRANCH   8  14
ENDBRANCH   7   8
ENDBRANCH   1   7
BRANCH   5  22
ATOM     22  C   UNL     1       4.970   3.959  18.906  0.00  0.00    +0.000 C 
BRANCH  22  23
ATOM     23  N   UNL     1       5.192   4.743  17.700  0.00  0.00    +0.000 N 
ATOM     24  C   UNL     1       4.862   4.196  16.465  0.00  0.00    +0.000 C 
ATOM     25  O   UNL     1       4.133   3.226  16.310  0.00  0.00    +0.000 OA
BRANCH  23  26
ATOM     26  C   UNL     1       6.129   5.868  17.772  0.00  0.00    +0.000 C 
BRANCH  26  27
ATOM     27  C   UNL     1       7.579   5.500  18.096  0.00  0.00    +0.000 C 
ATOM     28  O   UNL     1       8.289   6.087  18.900  0.00  0.00    +0.000 OA
BRANCH  27  29
ATOM     29  O   UNL     1       8.067   4.434  17.430  0.00  0.00    +0.000 OA
ATOM     30  H   UNL     1       7.471   3.697  17.683  0.00  0.00    +0.000 HD
ENDBRANCH  27  29
ENDBRANCH  26  27
ENDBRANCH  23  26
BRANCH  24  31
ATOM     31  O   UNL     1       5.492   4.841  15.442  0.00  0.00    +0.000 OA
BRANCH  31  32
ATOM     32  C   UNL     1       6.144   4.037  14.452  0.00  0.00    +0.000 C 
ATOM     33  C   UNL     1       5.195   3.695  13.314  0.00  0.00    +0.000 C 
ATOM     34  C   UNL     1       6.114   3.407  12.136  0.00  0.00    +0.000 C 
ATOM     35  C   UNL     1       7.349   4.278  12.352  0.00  0.00    +0.000 C 
ATOM     36  C   UNL     1       7.216   4.871  13.752  0.00  0.00    +0.000 C 
ENDBRANCH  31  32
ENDBRANCH  24  31
ENDBRANCH  22  23
ENDBRANCH   5  22
TORSDOF 11
ENDMDL
MODEL 5
REMARK VINA RESULT:      -7.9      4.311     10.810
REMARK  Name = 
REMARK  12 active torsions:
REMARK  status: ('A' for Active; 'I' for Inactive)
REMARK    1  A    between atoms: C_1  and  C_2
REMARK    2  A    between atoms: C_4  and  C_5
REMARK    3  A    between atoms: C_13  and  C_14
REMARK    4  A    between atoms: C_14  and  O_15
REMARK    5  A    between atoms: O_15  and  C_16
REMARK    6  A    between atoms: C_20  and  C_21
REMARK    7  A    between atoms: C_21  and  N_22
REMARK    8  A    between atoms: N_22  and  C_23
REMARK    9  A    between atoms: C_23  and  C_24
REMARK   10  A    between atoms: C_24  and  O_26
REMARK   11  A    between atoms: C_27  and  O_29
REMARK   12  A    between atoms: O_29  and  C_30
REMARK                            x       y       z     vdW  Elec       q    Type
REMARK                         _______ _______ _______ _____ _____    ______ ____
ROOT
ATOM      1  C   UNL     1       0.881   9.298  21.250  0.00  0.00    +0.000 A 
ATOM      2  C   UNL     1       0.495   9.033  22.567  0.00  0.00    +0.000 A 
ATOM      3  C   UNL     1      -0.376   9.889  23.237  0.00  0.00    +0.000 A 
ATOM      4  C   UNL     1      -0.920  10.989  22.573  0.00  0.00    +0.000 A 
ATOM      5  C   UNL     1      -0.598  11.245  21.230  0.00  0.00    +0.000 A 
ATOM      6  C   UNL     1       0.356  10.419  20.589  0.00  0.00    +0.000 A 
ENDROOT
BRANCH   1   7
ATOM      7  O   UNL     1       1.639   8.307  20.688  0.00  0.00    +0.000 OA
BRANCH   7   8
ATOM      8  C   UNL     1       1.381   6.951  21.063  0.00  0.00    +0.000 C 
BRANCH   8  14
ATOM      9  C   UNL     1       1.153   3.553  20.732  0.00  0.00    +0.000 C 
ATOM     10  C   UNL     1       1.856   4.608  19.980  0.00  0.00    +0.000 A 
ATOM     11  O   UNL     1       2.602   4.193  18.914  0.00  0.00    +0.000 OA
ATOM     12  C   UNL     1       3.166   5.334  18.416  0.00  0.00    +0.000 A 
ATOM     13  N   UNL     1       2.813   6.430  19.065  0.00  0.00    +0.000 NA
ATOM     14  C   UNL     1       1.978   5.982  20.079  0.00  0.00    +0.000 A 
BRANCH  12  15
ATOM     15  C   UNL     1       4.094   5.163  17.298  0.00  0.00    +0.000 A 
ATOM     16  C   UNL     1       4.543   3.890  16.901  0.00  0.00    +0.000 A 
ATOM     17  C   UNL     1       5.474   3.750  15.860  0.00  0.00    +0.000 A 
ATOM     18  C   UNL     1       5.960   4.881  15.212  0.00  0.00    +0.000 A 
ATOM     19 CL   UNL     1       7.130   4.714  13.962  0.00  0.00    +0.000 Cl
ATOM     20  C   UNL     1       5.519   6.149  15.584  0.00  0.00    +0.000 A 
ATOM     21  C   UNL     1       4.590   6.288  16.622  0.00  0.00    +0.000 A 
ENDBRANCH  12  15
ENDBRANCH   8  14
ENDBRANCH   7   8
ENDBRANCH   1   7
BRANCH   5  22
ATOM     22  C   UNL     1      -1.434  12.247  20.448  0.00  0.00    +0.000 C 
BRANCH  22  23
ATOM     23  N   UNL     1      -0.725  13.076  19.485  0.00  0.00    +0.000 N 
ATOM     24  C   UNL     1      -0.297  14.343  19.867  0.00  0.00    +0.000 C 
ATOM     25  O   UNL     1      -0.204  14.724  21.026  0.00  0.00    +0.000 OA
BRANCH  23  26
ATOM     26  C   UNL     1      -0.860  12.751  18.063  0.00  0.00    +0.000 C 
BRANCH  26  27
ATOM     27  C   UNL     1      -1.841  11.622  17.735  0.00  0.00    +0.000 C 
ATOM     28  O   UNL     1      -3.060  11.713  17.791  0.00  0.00    +0.000 OA
BRANCH  27  29
ATOM     29  O   UNL     1      -1.277  10.460  17.347  0.00  0.00    +0.000 OA
ATOM     30  H   UNL     1      -0.325  10.573  17.555  0.00  0.00    +0.000 HD
ENDBRANCH  27  29
ENDBRANCH  26  27
ENDBRANCH  23  26
BRANCH  24  31
ATOM     31  O   UNL     1      -0.040  15.137  18.787  0.00  0.00    +0.000 OA
BRANCH  31  32
ATOM     32  C   UNL     1      -0.025  16.554  18.994  0.00  0.00    +0.000 C 
ATOM     33  C   UNL     1       1.365  17.125  18.763  0.00  0.00    +0.000 C 
ATOM     34  C   UNL     1       1.116  18.586  18.420  0.00  0.00    +0.000 C 
ATOM     35  C   UNL     1      -0.248  18.624  17.734  0.00  0.00    +0.000 C 
ATOM     36  C   UNL     1      -0.849  17.231  17.899  0.00  0.00    +0.000 C 
ENDBRANCH  31  32
ENDBRANCH  24  31
ENDBRANCH  22  23
ENDBRANCH   5  22
TORSDOF 11
ENDMDL
MODEL 6
REMARK VINA RESULT:      -7.8      2.331      3.362
REMARK  Name = 
REMARK  12 active torsions:
REMARK  status: ('A' for Active; 'I' for Inactive)
REMARK    1  A    between atoms: C_1  and  C_2
REMARK    2  A    between atoms: C_4  and  C_5
REMARK    3  A    between atoms: C_13  and  C_14
REMARK    4  A    between atoms: C_14  and  O_15
REMARK    5  A    between atoms: O_15  and  C_16
REMARK    6  A    between atoms: C_20  and  C_21
REMARK    7  A    between atoms: C_21  and  N_22
REMARK    8  A    between atoms: N_22  and  C_23
REMARK    9  A    between atoms: C_23  and  C_24
REMARK   10  A    between atoms: C_24  and  O_26
REMARK   11  A    between atoms: C_27  and  O_29
REMARK   12  A    between atoms: O_29  and  C_30
REMARK                            x       y       z     vdW  Elec       q    Type
REMARK                         _______ _______ _______ _____ _____    ______ ____
ROOT
ATOM      1  C   UNL     1       2.228   7.168  19.469  0.00  0.00    +0.000 A 
ATOM      2  C   UNL     1       1.485   6.651  20.535  0.00  0.00    +0.000 A 
ATOM      3  C   UNL     1       1.718   5.360  21.002  0.00  0.00    +0.000 A 
ATOM      4  C   UNL     1       2.741   4.591  20.446  0.00  0.00    +0.000 A 
ATOM      5  C   UNL     1       3.544   5.108  19.415  0.00  0.00    +0.000 A 
ATOM      6  C   UNL     1       3.239   6.388  18.890  0.00  0.00    +0.000 A 
ENDROOT
BRANCH   1   7
ATOM      7  O   UNL     1       1.969   8.486  19.206  0.00  0.00    +0.000 OA
BRANCH   7   8
ATOM      8  C   UNL     1       1.207   9.238  20.154  0.00  0.00    +0.000 C 
BRANCH   8  14
ATOM      9  C   UNL     1       1.862  12.254  18.677  0.00  0.00    +0.000 C 
ATOM     10  C   UNL     1       0.635  11.464  18.887  0.00  0.00    +0.000 A 
ATOM     11  O   UNL     1      -0.523  12.014  18.418  0.00  0.00    +0.000 OA
ATOM     12  C   UNL     1      -1.499  11.119  18.759  0.00  0.00    +0.000 A 
ATOM     13  N   UNL     1      -1.043  10.044  19.378  0.00  0.00    +0.000 NA
ATOM     14  C   UNL     1       0.326  10.252  19.477  0.00  0.00    +0.000 A 
BRANCH  12  15
ATOM     15  C   UNL     1      -2.872  11.506  18.440  0.00  0.00    +0.000 A 
ATOM     16  C   UNL     1      -3.704  12.126  19.391  0.00  0.00    +0.000 A 
ATOM     17  C   UNL     1      -5.036  12.442  19.082  0.00  0.00    +0.000 A 
ATOM     18  C   UNL     1      -5.543  12.140  17.822  0.00  0.00    +0.000 A 
ATOM     19 CL   UNL     1      -7.186  12.492  17.454  0.00  0.00    +0.000 Cl
ATOM     20  C   UNL     1      -4.732  11.537  16.863  0.00  0.00    +0.000 A 
ATOM     21  C   UNL     1      -3.403  11.222  17.172  0.00  0.00    +0.000 A 
ENDBRANCH  12  15
ENDBRANCH   8  14
ENDBRANCH   7   8
ENDBRANCH   1   7
BRANCH   5  22
ATOM     22  C   UNL     1       4.833   4.387  19.051  0.00  0.00    +0.000 C 
BRANCH  22  23
ATOM     23  N   UNL     1       4.938   3.891  17.686  0.00  0.00    +0.000 N 
ATOM     24  C   UNL     1       5.332   4.763  16.677  0.00  0.00    +0.000 C 
ATOM     25  O   UNL     1       5.880   5.841  16.867  0.00  0.00    +0.000 OA
BRANCH  23  26
ATOM     26  C   UNL     1       4.229   2.655  17.345  0.00  0.00    +0.000 C 
BRANCH  26  27
ATOM     27  C   UNL     1       2.703   2.718  17.449  0.00  0.00    +0.000 C 
ATOM     28  O   UNL     1       1.995   3.540  16.883  0.00  0.00    +0.000 OA
BRANCH  27  29
ATOM     29  O   UNL     1       2.136   1.771  18.222  0.00  0.00    +0.000 OA
ATOM     30  H   UNL     1       2.385   0.926  17.791  0.00  0.00    +0.000 HD
ENDBRANCH  27  29
ENDBRANCH  26  27
ENDBRANCH  23  26
BRANCH  24  31
ATOM     31  O   UNL     1       4.988   4.296  15.442  0.00  0.00    +0.000 OA
BRANCH  31  32
ATOM     32  C   UNL     1       6.046   3.893  14.565  0.00  0.00    +0.000 C 
ATOM     33  C   UNL     1       5.510   3.546  13.186  0.00  0.00    +0.000 C 
ATOM     34  C   UNL     1       6.705   3.738  12.263  0.00  0.00    +0.000 C 
ATOM     35  C   UNL     1       7.550   4.837  12.902  0.00  0.00    +0.000 C 
ATOM     36  C   UNL     1       6.948   5.093  14.281  0.00  0.00    +0.000 C 
ENDBRANCH  31  32
ENDBRANCH  24  31
ENDBRANCH  22  23
ENDBRANCH   5  22
TORSDOF 11
ENDMDL
MODEL 7
REMARK VINA RESULT:      -7.8      1.302      1.473
REMARK  Name = 
REMARK  12 active torsions:
REMARK  status: ('A' for Active; 'I' for Inactive)
REMARK    1  A    between atoms: C_1  and  C_2
REMARK    2  A    between atoms: C_4  and  C_5
REMARK    3  A    between atoms: C_13  and  C_14
REMARK    4  A    between atoms: C_14  and  O_15
REMARK    5  A    between atoms: O_15  and  C_16
REMARK    6  A    between atoms: C_20  and  C_21
REMARK    7  A    between atoms: C_21  and  N_22
REMARK    8  A    between atoms: N_22  and  C_23
REMARK    9  A    between atoms: C_23  and  C_24
REMARK   10  A    between atoms: C_24  and  O_26
REMARK   11  A    between atoms: C_27  and  O_29
REMARK   12  A    between atoms: O_29  and  C_30
REMARK                            x       y       z     vdW  Elec       q    Type
REMARK                         _______ _______ _______ _____ _____    ______ ____
ROOT
ATOM      1  C   UNL     1       2.449   6.294  19.881  0.00  0.00    +0.000 A 
ATOM      2  C   UNL     1       1.740   5.295  20.554  0.00  0.00    +0.000 A 
ATOM      3  C   UNL     1       2.168   3.970  20.509  0.00  0.00    +0.000 A 
ATOM      4  C   UNL     1       3.346   3.639  19.838  0.00  0.00    +0.000 A 
ATOM      5  C   UNL     1       4.110   4.633  19.205  0.00  0.00    +0.000 A 
ATOM      6  C   UNL     1       3.619   5.961  19.183  0.00  0.00    +0.000 A 
ENDROOT
BRANCH   1   7
ATOM      7  O   UNL     1       1.978   7.557  20.119  0.00  0.00    +0.000 OA
BRANCH   7   8
ATOM      8  C   UNL     1       1.837   8.455  19.014  0.00  0.00    +0.000 C 
BRANCH   8  14
ATOM      9  C   UNL     1       2.398  11.626  17.859  0.00  0.00    +0.000 C 
ATOM     10  C   UNL     1       1.588  11.067  18.956  0.00  0.00    +0.000 A 
ATOM     11  O   UNL     1       0.898  11.968  19.715  0.00  0.00    +0.000 OA
ATOM     12  C   UNL     1       0.265  11.214  20.664  0.00  0.00    +0.000 A 
ATOM     13  N   UNL     1       0.481   9.915  20.544  0.00  0.00    +0.000 NA
ATOM     14  C   UNL     1       1.337   9.802  19.457  0.00  0.00    +0.000 A 
BRANCH  12  15
ATOM     15  C   UNL     1      -0.495  11.949  21.675  0.00  0.00    +0.000 A 
ATOM     16  C   UNL     1      -1.449  11.311  22.489  0.00  0.00    +0.000 A 
ATOM     17  C   UNL     1      -2.206  12.044  23.417  0.00  0.00    +0.000 A 
ATOM     18  C   UNL     1      -2.012  13.416  23.535  0.00  0.00    +0.000 A 
ATOM     19 CL   UNL     1      -2.965  14.322  24.644  0.00  0.00    +0.000 Cl
ATOM     20  C   UNL     1      -1.064  14.064  22.746  0.00  0.00    +0.000 A 
ATOM     21  C   UNL     1      -0.310  13.333  21.821  0.00  0.00    +0.000 A 
ENDBRANCH  12  15
ENDBRANCH   8  14
ENDBRANCH   7   8
ENDBRANCH   1   7
BRANCH   5  22
ATOM     22  C   UNL     1       5.528   4.304  18.762  0.00  0.00    +0.000 C 
BRANCH  22  23
ATOM     23  N   UNL     1       6.014   4.988  17.572  0.00  0.00    +0.000 N 
ATOM     24  C   UNL     1       5.356   4.794  16.363  0.00  0.00    +0.000 C 
ATOM     25  O   UNL     1       4.229   4.329  16.254  0.00  0.00    +0.000 OA
BRANCH  23  26
ATOM     26  C   UNL     1       7.390   5.492  17.581  0.00  0.00    +0.000 C 
BRANCH  26  27
ATOM     27  C   UNL     1       7.541   6.993  17.840  0.00  0.00    +0.000 C 
ATOM     28  O   UNL     1       6.955   7.874  17.225  0.00  0.00    +0.000 OA
BRANCH  27  29
ATOM     29  O   UNL     1       8.385   7.326  18.837  0.00  0.00    +0.000 OA
ATOM     30  H   UNL     1       8.741   6.466  19.149  0.00  0.00    +0.000 HD
ENDBRANCH  27  29
ENDBRANCH  26  27
ENDBRANCH  23  26
BRANCH  24  31
ATOM     31  O   UNL     1       6.138   5.139  15.300  0.00  0.00    +0.000 OA
BRANCH  31  32
ATOM     32  C   UNL     1       6.415   4.128  14.324  0.00  0.00    +0.000 C 
ATOM     33  C   UNL     1       5.185   3.833  13.479  0.00  0.00    +0.000 C 
ATOM     34  C   UNL     1       5.749   3.260  12.188  0.00  0.00    +0.000 C 
ATOM     35  C   UNL     1       7.114   3.919  12.002  0.00  0.00    +0.000 C 
ATOM     36  C   UNL     1       7.402   4.678  13.295  0.00  0.00    +0.000 C 
ENDBRANCH  31  32
ENDBRANCH  24  31
ENDBRANCH  22  23
ENDBRANCH   5  22
TORSDOF 11
ENDMDL
MODEL 8
REMARK VINA RESULT:      -7.8      2.009      3.900
REMARK  Name = 
REMARK  12 active torsions:
REMARK  status: ('A' for Active; 'I' for Inactive)
REMARK    1  A    between atoms: C_1  and  C_2
REMARK    2  A    between atoms: C_4  and  C_5
REMARK    3  A    between atoms: C_13  and  C_14
REMARK    4  A    between atoms: C_14  and  O_15
REMARK    5  A    between atoms: O_15  and  C_16
REMARK    6  A    between atoms: C_20  and  C_21
REMARK    7  A    between atoms: C_21  and  N_22
REMARK    8  A    between atoms: N_22  and  C_23
REMARK    9  A    between atoms: C_23  and  C_24
REMARK   10  A    between atoms: C_24  and  O_26
REMARK   11  A    between atoms: C_27  and  O_29
REMARK   12  A    between atoms: O_29  and  C_30
REMARK                            x       y       z     vdW  Elec       q    Type
REMARK                         _______ _______ _______ _____ _____    ______ ____
ROOT
ATOM      1  C   UNL     1       1.357   8.862  19.735  0.00  0.00    +0.000 A 
ATOM      2  C   UNL     1       1.618   9.069  18.377  0.00  0.00    +0.000 A 
ATOM      3  C   UNL     1       2.418   8.179  17.665  0.00  0.00    +0.000 A 
ATOM      4  C   UNL     1       2.919   7.037  18.290  0.00  0.00    +0.000 A 
ATOM      5  C   UNL     1       2.622   6.772  19.638  0.00  0.00    +0.000 A 
ATOM      6  C   UNL     1       1.881   7.728  20.373  0.00  0.00    +0.000 A 
ENDROOT
BRANCH   1   7
ATOM      7  O   UNL     1       0.460   9.748  20.265  0.00  0.00    +0.000 OA
BRANCH   7   8
ATOM      8  C   UNL     1       0.380  11.061  19.703  0.00  0.00    +0.000 C 
BRANCH   8  14
ATOM      9  C   UNL     1      -2.167  11.269  17.427  0.00  0.00    +0.000 C 
ATOM     10  C   UNL     1      -2.020  11.676  18.836  0.00  0.00    +0.000 A 
ATOM     11  O   UNL     1      -3.104  12.282  19.404  0.00  0.00    +0.000 OA
ATOM     12  C   UNL     1      -2.708  12.585  20.678  0.00  0.00    +0.000 A 
ATOM     13  N   UNL     1      -1.477  12.193  20.960  0.00  0.00    +0.000 NA
ATOM     14  C   UNL     1      -1.016  11.615  19.785  0.00  0.00    +0.000 A 
BRANCH  12  15
ATOM     15  C   UNL     1      -3.668  13.324  21.496  0.00  0.00    +0.000 A 
ATOM     16  C   UNL     1      -4.994  13.531  21.070  0.00  0.00    +0.000 A 
ATOM     17  C   UNL     1      -5.886  14.288  21.845  0.00  0.00    +0.000 A 
ATOM     18  C   UNL     1      -5.458  14.842  23.047  0.00  0.00    +0.000 A 
ATOM     19 CL   UNL     1      -6.539  15.803  23.980  0.00  0.00    +0.000 Cl
ATOM     20  C   UNL     1      -4.153  14.639  23.491  0.00  0.00    +0.000 A 
ATOM     21  C   UNL     1      -3.264  13.883  22.718  0.00  0.00    +0.000 A 
ENDBRANCH  12  15
ENDBRANCH   8  14
ENDBRANCH   7   8
ENDBRANCH   1   7
BRANCH   5  22
ATOM     22  C   UNL     1       2.907   5.386  20.198  0.00  0.00    +0.000 C 
BRANCH  22  23
ATOM     23  N   UNL     1       3.619   4.465  19.324  0.00  0.00    +0.000 N 
ATOM     24  C   UNL     1       4.977   4.660  19.095  0.00  0.00    +0.000 C 
ATOM     25  O   UNL     1       5.702   5.365  19.785  0.00  0.00    +0.000 OA
BRANCH  23  26
ATOM     26  C   UNL     1       2.833   3.651  18.393  0.00  0.00    +0.000 C 
BRANCH  26  27
ATOM     27  C   UNL     1       2.347   2.307  18.940  0.00  0.00    +0.000 C 
ATOM     28  O   UNL     1       1.523   2.169  19.834  0.00  0.00    +0.000 OA
BRANCH  27  29
ATOM     29  O   UNL     1       2.884   1.216  18.357  0.00  0.00    +0.000 OA
ATOM     30  H   UNL     1       2.639   0.477  18.954  0.00  0.00    +0.000 HD
ENDBRANCH  27  29
ENDBRANCH  26  27
ENDBRANCH  23  26
BRANCH  24  31
ATOM     31  O   UNL     1       5.399   4.010  17.972  0.00  0.00    +0.000 OA
BRANCH  31  32
ATOM     32  C   UNL     1       5.802   4.810  16.854  0.00  0.00    +0.000 C 
ATOM     33  C   UNL     1       7.151   4.357  16.318  0.00  0.00    +0.000 C 
ATOM     34  C   UNL     1       7.154   4.831  14.872  0.00  0.00    +0.000 C 
ATOM     35  C   UNL     1       5.695   4.805  14.423  0.00  0.00    +0.000 C 
ATOM     36  C   UNL     1       4.867   4.537  15.677  0.00  0.00    +0.000 C 
ENDBRANCH  31  32
ENDBRANCH  24  31
ENDBRANCH  22  23
ENDBRANCH   5  22
TORSDOF 11
ENDMDL
MODEL 9
REMARK VINA RESULT:      -7.8      4.027      9.949
REMARK  Name = 
REMARK  12 active torsions:
REMARK  status: ('A' for Active; 'I' for Inactive)
REMARK    1  A    between atoms: C_1  and  C_2
REMARK    2  A    between atoms: C_4  and  C_5
REMARK    3  A    between atoms: C_13  and  C_14
REMARK    4  A    between atoms: C_14  and  O_15
REMARK    5  A    between atoms: O_15  and  C_16
REMARK    6  A    between atoms: C_20  and  C_21
REMARK    7  A    between atoms: C_21  and  N_22
REMARK    8  A    between atoms: N_22  and  C_23
REMARK    9  A    between atoms: C_23  and  C_24
REMARK   10  A    between atoms: C_24  and  O_26
REMARK   11  A    between atoms: C_27  and  O_29
REMARK   12  A    between atoms: O_29  and  C_30
REMARK                            x       y       z     vdW  Elec       q    Type
REMARK                         _______ _______ _______ _____ _____    ______ ____
ROOT
ATOM      1  C   UNL     1       3.888   7.108  17.563  0.00  0.00    +0.000 A 
ATOM      2  C   UNL     1       3.908   5.984  18.394  0.00  0.00    +0.000 A 
ATOM      3  C   UNL     1       3.076   5.911  19.509  0.00  0.00    +0.000 A 
ATOM      4  C   UNL     1       2.170   6.939  19.771  0.00  0.00    +0.000 A 
ATOM      5  C   UNL     1       2.086   8.052  18.918  0.00  0.00    +0.000 A 
ATOM      6  C   UNL     1       2.997   8.155  17.839  0.00  0.00    +0.000 A 
ENDROOT
BRANCH   1   7
ATOM      7  O   UNL     1       4.668   6.980  16.446  0.00  0.00    +0.000 OA
BRANCH   7   8
ATOM      8  C   UNL     1       5.894   6.250  16.545  0.00  0.00    +0.000 C 
BRANCH   8  14
ATOM      9  C   UNL     1       7.932   5.295  19.122  0.00  0.00    +0.000 C 
ATOM     10  C   UNL     1       7.723   6.564  18.400  0.00  0.00    +0.000 A 
ATOM     11  O   UNL     1       8.476   7.624  18.817  0.00  0.00    +0.000 OA
ATOM     12  C   UNL     1       8.080   8.666  18.025  0.00  0.00    +0.000 A 
ATOM     13  N   UNL     1       7.163   8.338  17.132  0.00  0.00    +0.000 NA
ATOM     14  C   UNL     1       6.915   6.992  17.364  0.00  0.00    +0.000 A 
BRANCH  12  15
ATOM     15  C   UNL     1       8.681   9.967  18.318  0.00  0.00    +0.000 A 
ATOM     16  C   UNL     1       9.566  10.143  19.398  0.00  0.00    +0.000 A 
ATOM     17  C   UNL     1      10.092  11.410  19.695  0.00  0.00    +0.000 A 
ATOM     18  C   UNL     1       9.736  12.506  18.916  0.00  0.00    +0.000 A 
ATOM     19 CL   UNL     1      10.349  14.066  19.301  0.00  0.00    +0.000 Cl
ATOM     20  C   UNL     1       8.870  12.349  17.835  0.00  0.00    +0.000 A 
ATOM     21  C   UNL     1       8.346  11.085  17.539  0.00  0.00    +0.000 A 
ENDBRANCH  12  15
ENDBRANCH   8  14
ENDBRANCH   7   8
ENDBRANCH   1   7
BRANCH   5  22
ATOM     22  C   UNL     1       0.893   8.989  19.042  0.00  0.00    +0.000 C 
BRANCH  22  23
ATOM     23  N   UNL     1       0.943   9.967  20.118  0.00  0.00    +0.000 N 
ATOM     24  C   UNL     1       1.063  11.316  19.804  0.00  0.00    +0.000 C 
ATOM     25  O   UNL     1       0.843  11.792  18.698  0.00  0.00    +0.000 OA
BRANCH  23  26
ATOM     26  C   UNL     1       1.297   9.497  21.460  0.00  0.00    +0.000 C 
BRANCH  26  27
ATOM     27  C   UNL     1       0.117   9.197  22.388  0.00  0.00    +0.000 C 
ATOM     28  O   UNL     1      -0.785   8.408  22.141  0.00  0.00    +0.000 OA
BRANCH  27  29
ATOM     29  O   UNL     1       0.117   9.864  23.559  0.00  0.00    +0.000 OA
ATOM     30  H   UNL     1      -0.828  10.078  23.716  0.00  0.00    +0.000 HD
ENDBRANCH  27  29
ENDBRANCH  26  27
ENDBRANCH  23  26
BRANCH  24  31
ATOM     31  O   UNL     1       1.510  12.046  20.866  0.00  0.00    +0.000 OA
BRANCH  31  32
ATOM     32  C   UNL     1       1.334  13.466  20.818  0.00  0.00    +0.000 C 
ATOM     33  C   UNL     1       0.360  13.932  21.889  0.00  0.00    +0.000 C 
ATOM     34  C   UNL     1       0.728  15.391  22.117  0.00  0.00    +0.000 C 
ATOM     35  C   UNL     1       2.224  15.491  21.830  0.00  0.00    +0.000 C 
ATOM     36  C   UNL     1       2.637  14.150  21.231  0.00  0.00    +0.000 C 
ENDBRANCH  31  32
ENDBRANCH  24  31
ENDBRANCH  22  23
ENDBRANCH   5  22
TORSDOF 11
ENDMDL
