MODEL 1
REMARK VINA RESULT:      -7.9      0.000      0.000
REMARK  Name = 
REMARK  1 active torsions:
REMARK  status: ('A' for Active; 'I' for Inactive)
REMARK    1  A    between atoms: N_10  and  C_11
REMARK                            x       y       z     vdW  Elec       q    Type
REMARK                         _______ _______ _______ _____ _____    ______ ____
ROOT
ATOM      1  N   UNL     1       8.011   4.541  18.333  0.00  0.00    +0.000 N 
ATOM      2  C   UNL     1       7.178   4.542  17.249  0.00  0.00    +0.000 C 
ATOM      3  N   UNL     1       7.571   4.748  16.039  0.00  0.00    +0.000 NA
ATOM      4  S   UNL     1       6.511   4.789  14.806  0.00  0.00    +0.000 S 
ATOM      5  O   UNL     1       6.274   6.176  14.466  0.00  0.00    +0.000 OA
ATOM      6  O   UNL     1       6.974   3.871  13.788  0.00  0.00    +0.000 OA
ATOM      7  N   UNL     1       5.016   4.199  15.288  0.00  0.00    +0.000 N 
ATOM      8  C   UNL     1       4.797   4.102  16.637  0.00  0.00    +0.000 A 
ATOM      9  N   UNL     1       3.638   3.813  17.216  0.00  0.00    +0.000 NA
ATOM     10  N   UNL     1       3.994   3.779  18.538  0.00  0.00    +0.000 N 
ATOM     11  N   UNL     1       5.309   4.044  18.813  0.00  0.00    +0.000 NA
ATOM     12  C   UNL     1       5.803   4.254  17.587  0.00  0.00    +0.000 A 
ATOM     13  H   UNL     1       8.992   4.387  18.139  0.00  0.00    +0.000 HD
ATOM     14  H   UNL     1       7.652   4.094  19.175  0.00  0.00    +0.000 HD
ATOM     15  H   UNL     1       4.236   4.366  14.660  0.00  0.00    +0.000 HD
ENDROOT
BRANCH  10  16
ATOM     16  C   UNL     1       3.077   3.452  19.570  0.00  0.00    +0.000 A 
ATOM     17  C   UNL     1       3.482   2.675  20.663  0.00  0.00    +0.000 A 
ATOM     18  C   UNL     1       2.570   2.385  21.682  0.00  0.00    +0.000 A 
ATOM     19  C   UNL     1       1.259   2.856  21.607  0.00  0.00    +0.000 A 
ATOM     20  C   UNL     1       0.851   3.622  20.516  0.00  0.00    +0.000 A 
ATOM     21  C   UNL     1       1.757   3.925  19.501  0.00  0.00    +0.000 A 
ENDBRANCH  10  16
TORSDOF 1
ENDMDL
MODEL 2
REMARK VINA RESULT:      -7.8      0.035      1.142
REMARK  Name = 
REMARK  1 active torsions:
REMARK  status: ('A' for Active; 'I' for Inactive)
REMARK    1  A    between atoms: N_10  and  C_11
REMARK                            x       y       z     vdW  Elec       q    Type
REMARK                         _______ _______ _______ _____ _____    ______ ____
ROOT
ATOM      1  N   UNL     1       8.025   4.532  18.311  0.00  0.00    +0.000 N 
ATOM      2  C   UNL     1       7.191   4.535  17.227  0.00  0.00    +0.000 C 
ATOM      3  N   UNL     1       7.586   4.730  16.015  0.00  0.00    +0.000 NA
ATOM      4  S   UNL     1       6.525   4.774  14.783  0.00  0.00    +0.000 S 
ATOM      5  O   UNL     1       6.303   6.161  14.436  0.00  0.00    +0.000 OA
ATOM      6  O   UNL     1       6.978   3.845  13.771  0.00  0.00    +0.000 OA
ATOM      7  N   UNL     1       5.024   4.202  15.270  0.00  0.00    +0.000 N 
ATOM      8  C   UNL     1       4.805   4.116  16.619  0.00  0.00    +0.000 A 
ATOM      9  N   UNL     1       3.644   3.842  17.201  0.00  0.00    +0.000 NA
ATOM     10  N   UNL     1       4.000   3.812  18.523  0.00  0.00    +0.000 N 
ATOM     11  N   UNL     1       5.318   4.066  18.795  0.00  0.00    +0.000 NA
ATOM     12  C   UNL     1       5.813   4.263  17.568  0.00  0.00    +0.000 A 
ATOM     13  H   UNL     1       9.004   4.367  18.117  0.00  0.00    +0.000 HD
ATOM     14  H   UNL     1       7.662   4.094  19.156  0.00  0.00    +0.000 HD
ATOM     15  H   UNL     1       4.246   4.374  14.641  0.00  0.00    +0.000 HD
ENDROOT
BRANCH  10  16
ATOM     16  C   UNL     1       3.080   3.501  19.557  0.00  0.00    +0.000 A 
ATOM     17  C   UNL     1       1.763   3.975  19.506  0.00  0.00    +0.000 A 
ATOM     18  C   UNL     1       0.866   3.636  20.523  0.00  0.00    +0.000 A 
ATOM     19  C   UNL     1       1.281   2.840  21.590  0.00  0.00    +0.000 A 
ATOM     20  C   UNL     1       2.594   2.373  21.648  0.00  0.00    +0.000 A 
ATOM     21  C   UNL     1       3.492   2.698  20.633  0.00  0.00    +0.000 A 
ENDBRANCH  10  16
TORSDOF 1
ENDMDL
MODEL 3
REMARK VINA RESULT:      -7.7      4.999      7.375
REMARK  Name = 
REMARK  1 active torsions:
REMARK  status: ('A' for Active; 'I' for Inactive)
REMARK    1  A    between atoms: N_10  and  C_11
REMARK                            x       y       z     vdW  Elec       q    Type
REMARK                         _______ _______ _______ _____ _____    ______ ____
ROOT
ATOM      1  N   UNL     1       8.409   5.318  20.264  0.00  0.00    +0.000 N 
ATOM      2  C   UNL     1       7.885   5.537  19.020  0.00  0.00    +0.000 C 
ATOM      3  N   UNL     1       7.283   4.636  18.323  0.00  0.00    +0.000 NA
ATOM      4  S   UNL     1       6.734   4.958  16.825  0.00  0.00    +0.000 S 
ATOM      5  O   UNL     1       7.671   4.396  15.877  0.00  0.00    +0.000 OA
ATOM      6  O   UNL     1       5.340   4.575  16.770  0.00  0.00    +0.000 OA
ATOM      7  N   UNL     1       6.753   6.609  16.529  0.00  0.00    +0.000 N 
ATOM      8  C   UNL     1       7.499   7.381  17.380  0.00  0.00    +0.000 A 
ATOM      9  N   UNL     1       7.769   8.671  17.223  0.00  0.00    +0.000 NA
ATOM     10  N   UNL     1       8.471   8.945  18.366  0.00  0.00    +0.000 N 
ATOM     11  N   UNL     1       8.665   7.891  19.219  0.00  0.00    +0.000 NA
ATOM     12  C   UNL     1       8.042   6.901  18.568  0.00  0.00    +0.000 A 
ATOM     13  H   UNL     1       8.038   4.523  20.768  0.00  0.00    +0.000 HD
ATOM     14  H   UNL     1       8.598   6.147  20.825  0.00  0.00    +0.000 HD
ATOM     15  H   UNL     1       6.623   6.900  15.565  0.00  0.00    +0.000 HD
ENDROOT
BRANCH  10  16
ATOM     16  C   UNL     1       8.944  10.245  18.682  0.00  0.00    +0.000 A 
ATOM     17  C   UNL     1       8.743  11.311  17.796  0.00  0.00    +0.000 A 
ATOM     18  C   UNL     1       9.194  12.589  18.138  0.00  0.00    +0.000 A 
ATOM     19  C   UNL     1       9.853  12.802  19.348  0.00  0.00    +0.000 A 
ATOM     20  C   UNL     1      10.062  11.741  20.228  0.00  0.00    +0.000 A 
ATOM     21  C   UNL     1       9.606  10.465  19.900  0.00  0.00    +0.000 A 
ENDBRANCH  10  16
TORSDOF 1
ENDMDL
MODEL 4
REMARK VINA RESULT:      -7.7      5.022      7.329
REMARK  Name = 
REMARK  1 active torsions:
REMARK  status: ('A' for Active; 'I' for Inactive)
REMARK    1  A    between atoms: N_10  and  C_11
REMARK                            x       y       z     vdW  Elec       q    Type
REMARK                         _______ _______ _______ _____ _____    ______ ____
ROOT
ATOM      1  N   UNL     1       8.419   5.295  20.172  0.00  0.00    +0.000 N 
ATOM      2  C   UNL     1       7.860   5.562  18.953  0.00  0.00    +0.000 C 
ATOM      3  N   UNL     1       7.223   4.692  18.246  0.00  0.00    +0.000 NA
ATOM      4  S   UNL     1       6.633   5.071  16.778  0.00  0.00    +0.000 S 
ATOM      5  O   UNL     1       7.532   4.527  15.783  0.00  0.00    +0.000 OA
ATOM      6  O   UNL     1       5.232   4.709  16.754  0.00  0.00    +0.000 OA
ATOM      7  N   UNL     1       6.667   6.731  16.534  0.00  0.00    +0.000 N 
ATOM      8  C   UNL     1       7.451   7.463  17.385  0.00  0.00    +0.000 A 
ATOM      9  N   UNL     1       7.735   8.754  17.261  0.00  0.00    +0.000 NA
ATOM     10  N   UNL     1       8.477   8.981  18.390  0.00  0.00    +0.000 N 
ATOM     11  N   UNL     1       8.681   7.897  19.202  0.00  0.00    +0.000 NA
ATOM     12  C   UNL     1       8.024   6.937  18.540  0.00  0.00    +0.000 A 
ATOM     13  H   UNL     1       8.052   4.489  20.662  0.00  0.00    +0.000 HD
ATOM     14  H   UNL     1       8.637   6.103  20.753  0.00  0.00    +0.000 HD
ATOM     15  H   UNL     1       6.511   7.054  15.585  0.00  0.00    +0.000 HD
ENDROOT
BRANCH  10  16
ATOM     16  C   UNL     1       8.978  10.263  18.733  0.00  0.00    +0.000 A 
ATOM     17  C   UNL     1       9.613  10.474  19.964  0.00  0.00    +0.000 A 
ATOM     18  C   UNL     1      10.123  11.739  20.271  0.00  0.00    +0.000 A 
ATOM     19  C   UNL     1       9.991  12.790  19.365  0.00  0.00    +0.000 A 
ATOM     20  C   UNL     1       9.352  12.585  18.142  0.00  0.00    +0.000 A 
ATOM     21  C   UNL     1       8.850  11.324  17.822  0.00  0.00    +0.000 A 
ENDBRANCH  10  16
TORSDOF 1
ENDMDL
MODEL 5
REMARK VINA RESULT:      -7.5      3.290      4.003
REMARK  Name = 
REMARK  1 active torsions:
REMARK  status: ('A' for Active; 'I' for Inactive)
REMARK    1  A    between atoms: N_10  and  C_11
REMARK                            x       y       z     vdW  Elec       q    Type
REMARK                         _______ _______ _______ _____ _____    ______ ____
ROOT
ATOM      1  N   UNL     1       3.783   2.852  17.465  0.00  0.00    +0.000 N 
ATOM      2  C   UNL     1       4.625   3.768  16.897  0.00  0.00    +0.000 C 
ATOM      3  N   UNL     1       5.618   3.459  16.135  0.00  0.00    +0.000 NA
ATOM      4  S   UNL     1       6.609   4.604  15.540  0.00  0.00    +0.000 S 
ATOM      5  O   UNL     1       7.821   4.599  16.330  0.00  0.00    +0.000 OA
ATOM      6  O   UNL     1       6.686   4.426  14.106  0.00  0.00    +0.000 OA
ATOM      7  N   UNL     1       5.951   6.132  15.762  0.00  0.00    +0.000 N 
ATOM      8  C   UNL     1       4.921   6.236  16.659  0.00  0.00    +0.000 A 
ATOM      9  N   UNL     1       4.379   7.369  17.089  0.00  0.00    +0.000 NA
ATOM     10  N   UNL     1       3.374   6.903  17.894  0.00  0.00    +0.000 N 
ATOM     11  N   UNL     1       3.271   5.541  17.998  0.00  0.00    +0.000 NA
ATOM     12  C   UNL     1       4.271   5.134  17.207  0.00  0.00    +0.000 A 
ATOM     13  H   UNL     1       3.755   1.942  17.023  0.00  0.00    +0.000 HD
ATOM     14  H   UNL     1       2.890   3.208  17.800  0.00  0.00    +0.000 HD
ATOM     15  H   UNL     1       6.572   6.921  15.611  0.00  0.00    +0.000 HD
ENDROOT
BRANCH  10  16
ATOM     16  C   UNL     1       2.461   7.763  18.557  0.00  0.00    +0.000 A 
ATOM     17  C   UNL     1       2.122   7.544  19.898  0.00  0.00    +0.000 A 
ATOM     18  C   UNL     1       1.240   8.419  20.540  0.00  0.00    +0.000 A 
ATOM     19  C   UNL     1       0.690   9.497  19.848  0.00  0.00    +0.000 A 
ATOM     20  C   UNL     1       1.020   9.712  18.510  0.00  0.00    +0.000 A 
ATOM     21  C   UNL     1       1.906   8.851  17.865  0.00  0.00    +0.000 A 
ENDBRANCH  10  16
TORSDOF 1
ENDMDL
MODEL 6
REMARK VINA RESULT:      -7.5      3.289      4.114
REMARK  Name = 
REMARK  1 active torsions:
REMARK  status: ('A' for Active; 'I' for Inactive)
REMARK    1  A    between atoms: N_10  and  C_11
REMARK                            x       y       z     vdW  Elec       q    Type
REMARK                         _______ _______ _______ _____ _____    ______ ____
ROOT
ATOM      1  N   UNL     1       3.824   2.854  17.591  0.00  0.00    +0.000 N 
ATOM      2  C   UNL     1       4.633   3.753  16.953  0.00  0.00    +0.000 C 
ATOM      3  N   UNL     1       5.599   3.422  16.166  0.00  0.00    +0.000 NA
ATOM      4  S   UNL     1       6.554   4.550  15.486  0.00  0.00    +0.000 S 
ATOM      5  O   UNL     1       7.796   4.588  16.228  0.00  0.00    +0.000 OA
ATOM      6  O   UNL     1       6.577   4.313  14.059  0.00  0.00    +0.000 OA
ATOM      7  N   UNL     1       5.890   6.080  15.672  0.00  0.00    +0.000 N 
ATOM      8  C   UNL     1       4.895   6.212  16.604  0.00  0.00    +0.000 A 
ATOM      9  N   UNL     1       4.359   7.356  17.009  0.00  0.00    +0.000 NA
ATOM     10  N   UNL     1       3.391   6.915  17.871  0.00  0.00    +0.000 N 
ATOM     11  N   UNL     1       3.306   5.558  18.034  0.00  0.00    +0.000 NA
ATOM     12  C   UNL     1       4.278   5.128  17.222  0.00  0.00    +0.000 A 
ATOM     13  H   UNL     1       3.787   1.926  17.188  0.00  0.00    +0.000 HD
ATOM     14  H   UNL     1       2.941   3.216  17.946  0.00  0.00    +0.000 HD
ATOM     15  H   UNL     1       6.497   6.867  15.464  0.00  0.00    +0.000 HD
ENDROOT
BRANCH  10  16
ATOM     16  C   UNL     1       2.496   7.794  18.534  0.00  0.00    +0.000 A 
ATOM     17  C   UNL     1       1.957   8.901  17.864  0.00  0.00    +0.000 A 
ATOM     18  C   UNL     1       1.058   9.740  18.527  0.00  0.00    +0.000 A 
ATOM     19  C   UNL     1       0.706   9.487  19.853  0.00  0.00    +0.000 A 
ATOM     20  C   UNL     1       1.247   8.391  20.524  0.00  0.00    +0.000 A 
ATOM     21  C   UNL     1       2.137   7.542  19.867  0.00  0.00    +0.000 A 
ENDBRANCH  10  16
TORSDOF 1
ENDMDL
MODEL 7
REMARK VINA RESULT:      -7.4      5.474      7.162
REMARK  Name = 
REMARK  1 active torsions:
REMARK  status: ('A' for Active; 'I' for Inactive)
REMARK    1  A    between atoms: N_10  and  C_11
REMARK                            x       y       z     vdW  Elec       q    Type
REMARK                         _______ _______ _______ _____ _____    ______ ____
ROOT
ATOM      1  N   UNL     1       1.128  10.216  17.850  0.00  0.00    +0.000 N 
ATOM      2  C   UNL     1       1.196   9.489  19.005  0.00  0.00    +0.000 C 
ATOM      3  N   UNL     1       0.574   9.800  20.091  0.00  0.00    +0.000 NA
ATOM      4  S   UNL     1       0.749   8.913  21.443  0.00  0.00    +0.000 S 
ATOM      5  O   UNL     1       1.662   9.613  22.321  0.00  0.00    +0.000 OA
ATOM      6  O   UNL     1      -0.571   8.557  21.917  0.00  0.00    +0.000 OA
ATOM      7  N   UNL     1       1.507   7.455  21.103  0.00  0.00    +0.000 N 
ATOM      8  C   UNL     1       2.149   7.359  19.897  0.00  0.00    +0.000 A 
ATOM      9  N   UNL     1       2.933   6.359  19.513  0.00  0.00    +0.000 NA
ATOM     10  N   UNL     1       3.242   6.732  18.232  0.00  0.00    +0.000 N 
ATOM     11  N   UNL     1       2.704   7.917  17.805  0.00  0.00    +0.000 NA
ATOM     12  C   UNL     1       2.015   8.304  18.884  0.00  0.00    +0.000 A 
ATOM     13  H   UNL     1       0.328  10.830  17.758  0.00  0.00    +0.000 HD
ATOM     14  H   UNL     1       1.416   9.737  16.998  0.00  0.00    +0.000 HD
ATOM     15  H   UNL     1       1.842   6.920  21.899  0.00  0.00    +0.000 HD
ENDROOT
BRANCH  10  16
ATOM     16  C   UNL     1       4.040   5.932  17.373  0.00  0.00    +0.000 A 
ATOM     17  C   UNL     1       4.005   4.535  17.465  0.00  0.00    +0.000 A 
ATOM     18  C   UNL     1       4.779   3.765  16.592  0.00  0.00    +0.000 A 
ATOM     19  C   UNL     1       5.592   4.382  15.642  0.00  0.00    +0.000 A 
ATOM     20  C   UNL     1       5.635   5.774  15.554  0.00  0.00    +0.000 A 
ATOM     21  C   UNL     1       4.858   6.549  16.413  0.00  0.00    +0.000 A 
ENDBRANCH  10  16
TORSDOF 1
ENDMDL
MODEL 8
REMARK VINA RESULT:      -7.4      5.489      7.204
REMARK  Name = 
REMARK  1 active torsions:
REMARK  status: ('A' for Active; 'I' for Inactive)
REMARK    1  A    between atoms: N_10  and  C_11
REMARK                            x       y       z     vdW  Elec       q    Type
REMARK                         _______ _______ _______ _____ _____    ______ ____
ROOT
ATOM      1  N   UNL     1       1.090  10.233  17.853  0.00  0.00    +0.000 N 
ATOM      2  C   UNL     1       1.170   9.507  19.010  0.00  0.00    +0.000 C 
ATOM      3  N   UNL     1       0.556   9.819  20.099  0.00  0.00    +0.000 NA
ATOM      4  S   UNL     1       0.744   8.935  21.453  0.00  0.00    +0.000 S 
ATOM      5  O   UNL     1       1.661   9.641  22.322  0.00  0.00    +0.000 OA
ATOM      6  O   UNL     1      -0.571   8.576  21.937  0.00  0.00    +0.000 OA
ATOM      7  N   UNL     1       1.504   7.479  21.110  0.00  0.00    +0.000 N 
ATOM      8  C   UNL     1       2.137   7.383  19.899  0.00  0.00    +0.000 A 
ATOM      9  N   UNL     1       2.921   6.385  19.510  0.00  0.00    +0.000 NA
ATOM     10  N   UNL     1       3.219   6.756  18.226  0.00  0.00    +0.000 N 
ATOM     11  N   UNL     1       2.674   7.938  17.801  0.00  0.00    +0.000 NA
ATOM     12  C   UNL     1       1.992   8.325  18.885  0.00  0.00    +0.000 A 
ATOM     13  H   UNL     1       0.288  10.844  17.767  0.00  0.00    +0.000 HD
ATOM     14  H   UNL     1       1.373   9.752  17.001  0.00  0.00    +0.000 HD
ATOM     15  H   UNL     1       1.847   6.947  21.904  0.00  0.00    +0.000 HD
ENDROOT
BRANCH  10  16
ATOM     16  C   UNL     1       4.013   5.957  17.362  0.00  0.00    +0.000 A 
ATOM     17  C   UNL     1       4.892   6.553  16.449  0.00  0.00    +0.000 A 
ATOM     18  C   UNL     1       5.683   5.748  15.625  0.00  0.00    +0.000 A 
ATOM     19  C   UNL     1       5.591   4.358  15.700  0.00  0.00    +0.000 A 
ATOM     20  C   UNL     1       4.710   3.763  16.604  0.00  0.00    +0.000 A 
ATOM     21  C   UNL     1       3.925   4.558  17.437  0.00  0.00    +0.000 A 
ENDBRANCH  10  16
TORSDOF 1
ENDMDL
MODEL 9
REMARK VINA RESULT:      -7.4      1.390      1.791
REMARK  Name = 
REMARK  1 active torsions:
REMARK  status: ('A' for Active; 'I' for Inactive)
REMARK    1  A    between atoms: N_10  and  C_11
REMARK                            x       y       z     vdW  Elec       q    Type
REMARK                         _______ _______ _______ _____ _____    ______ ____
ROOT
ATOM      1  N   UNL     1       4.429   7.471  16.631  0.00  0.00    +0.000 N 
ATOM      2  C   UNL     1       4.974   6.283  16.229  0.00  0.00    +0.000 C 
ATOM      3  N   UNL     1       5.827   6.169  15.270  0.00  0.00    +0.000 NA
ATOM      4  S   UNL     1       6.389   4.711  14.814  0.00  0.00    +0.000 S 
ATOM      5  O   UNL     1       5.689   4.322  13.608  0.00  0.00    +0.000 OA
ATOM      6  O   UNL     1       7.834   4.770  14.817  0.00  0.00    +0.000 OA
ATOM      7  N   UNL     1       5.989   3.540  15.946  0.00  0.00    +0.000 N 
ATOM      8  C   UNL     1       5.017   3.865  16.854  0.00  0.00    +0.000 A 
ATOM      9  N   UNL     1       4.453   3.031  17.719  0.00  0.00    +0.000 NA
ATOM     10  N   UNL     1       3.623   3.874  18.410  0.00  0.00    +0.000 N 
ATOM     11  N   UNL     1       3.630   5.184  18.011  0.00  0.00    +0.000 NA
ATOM     12  C   UNL     1       4.522   5.156  17.013  0.00  0.00    +0.000 A 
ATOM     13  H   UNL     1       4.945   8.304  16.376  0.00  0.00    +0.000 HD
ATOM     14  H   UNL     1       4.003   7.481  17.555  0.00  0.00    +0.000 HD
ATOM     15  H   UNL     1       6.115   2.573  15.664  0.00  0.00    +0.000 HD
ENDROOT
BRANCH  10  16
ATOM     16  C   UNL     1       2.825   3.440  19.500  0.00  0.00    +0.000 A 
ATOM     17  C   UNL     1       3.411   2.804  20.603  0.00  0.00    +0.000 A 
ATOM     18  C   UNL     1       2.611   2.407  21.678  0.00  0.00    +0.000 A 
ATOM     19  C   UNL     1       1.234   2.631  21.651  0.00  0.00    +0.000 A 
ATOM     20  C   UNL     1       0.648   3.256  20.551  0.00  0.00    +0.000 A 
ATOM     21  C   UNL     1       1.440   3.665  19.478  0.00  0.00    +0.000 A 
ENDBRANCH  10  16
TORSDOF 1
ENDMDL
