MODEL 1
REMARK VINA RESULT:      -8.3      0.000      0.000
REMARK  Name = 
REMARK  6 active torsions:
REMARK  status: ('A' for Active; 'I' for Inactive)
REMARK    1  A    between atoms: C_1  and  C_2
REMARK    2  A    between atoms: C_2  and  O_3
REMARK    3  A    between atoms: O_3  and  C_4
REMARK    4  A    between atoms: C_4  and  C_6
REMARK    5  A    between atoms: C_14  and  N_15
REMARK    6  A    between atoms: C_16  and  C_18
REMARK                            x       y       z     vdW  Elec       q    Type
REMARK                         _______ _______ _______ _____ _____    ______ ____
ROOT
ATOM      1  C   UNL     1       6.854   5.724  16.231  0.00  0.00    +0.000 A 
ATOM      2  N   UNL     1       7.664   5.610  15.127  0.00  0.00    +0.000 N 
ATOM      3  C   UNL     1       7.045   4.902  14.130  0.00  0.00    +0.000 A 
ATOM      4  C   UNL     1       7.508   4.577  12.847  0.00  0.00    +0.000 A 
ATOM      5  C   UNL     1       6.670   3.826  12.020  0.00  0.00    +0.000 A 
ATOM      6  C   UNL     1       5.430   3.398  12.472  0.00  0.00    +0.000 A 
ATOM      7  C   UNL     1       4.993   3.725  13.761  0.00  0.00    +0.000 A 
ATOM      8  C   UNL     1       5.791   4.522  14.614  0.00  0.00    +0.000 A 
ATOM      9  C   UNL     1       5.662   5.073  15.937  0.00  0.00    +0.000 A 
ATOM     10  H   UNL     1       8.582   6.028  15.054  0.00  0.00    +0.000 HD
ENDROOT
BRANCH   9  11
ATOM     11  N   UNL     1       4.608   5.041  16.853  0.00  0.00    +0.000 N 
ATOM     12  C   UNL     1       4.501   4.187  17.925  0.00  0.00    +0.000 C 
ATOM     13  O   UNL     1       5.233   3.225  18.149  0.00  0.00    +0.000 OA
ATOM     14  H   UNL     1       3.808   5.630  16.621  0.00  0.00    +0.000 HD
BRANCH  12  15
ATOM     15  C   UNL     1       3.353   4.368  18.858  0.00  0.00    +0.000 A 
ATOM     16  C   UNL     1       3.152   5.689  19.311  0.00  0.00    +0.000 A 
ATOM     17  C   UNL     1       2.039   6.023  20.076  0.00  0.00    +0.000 A 
ATOM     18 CL   UNL     1       1.800   7.650  20.575  0.00  0.00    +0.000 Cl
ATOM     19  C   UNL     1       1.110   5.047  20.416  0.00  0.00    +0.000 A 
ATOM     20  C   UNL     1       1.309   3.730  19.998  0.00  0.00    +0.000 A 
ATOM     21  C   UNL     1       2.426   3.382  19.223  0.00  0.00    +0.000 A 
ATOM     22 CL   UNL     1       2.532   1.731  18.726  0.00  0.00    +0.000 Cl
ENDBRANCH  12  15
ENDBRANCH   9  11
BRANCH   1  23
ATOM     23  C   UNL     1       7.202   6.490  17.401  0.00  0.00    +0.000 C 
ATOM     24  O   UNL     1       6.877   6.211  18.547  0.00  0.00    +0.000 OA
BRANCH  23  25
ATOM     25  O   UNL     1       7.853   7.624  17.015  0.00  0.00    +0.000 OA
BRANCH  25  27
ATOM     26  C   UNL     1       8.652   9.451  18.331  0.00  0.00    +0.000 C 
ATOM     27  C   UNL     1       7.433   8.827  17.672  0.00  0.00    +0.000 C 
ENDBRANCH  25  27
ENDBRANCH  23  25
ENDBRANCH   1  23
TORSDOF 5
ENDMDL
MODEL 2
REMARK VINA RESULT:      -8.2      0.945      1.838
REMARK  Name = 
REMARK  6 active torsions:
REMARK  status: ('A' for Active; 'I' for Inactive)
REMARK    1  A    between atoms: C_1  and  C_2
REMARK    2  A    between atoms: C_2  and  O_3
REMARK    3  A    between atoms: O_3  and  C_4
REMARK    4  A    between atoms: C_4  and  C_6
REMARK    5  A    between atoms: C_14  and  N_15
REMARK    6  A    between atoms: C_16  and  C_18
REMARK                            x       y       z     vdW  Elec       q    Type
REMARK                         _______ _______ _______ _____ _____    ______ ____
ROOT
ATOM      1  C   UNL     1       6.948   5.648  16.135  0.00  0.00    +0.000 A 
ATOM      2  N   UNL     1       7.712   5.400  15.020  0.00  0.00    +0.000 N 
ATOM      3  C   UNL     1       6.984   4.753  14.055  0.00  0.00    +0.000 A 
ATOM      4  C   UNL     1       7.372   4.336  12.774  0.00  0.00    +0.000 A 
ATOM      5  C   UNL     1       6.426   3.679  11.985  0.00  0.00    +0.000 A 
ATOM      6  C   UNL     1       5.151   3.428  12.472  0.00  0.00    +0.000 A 
ATOM      7  C   UNL     1       4.789   3.843  13.759  0.00  0.00    +0.000 A 
ATOM      8  C   UNL     1       5.703   4.552  14.574  0.00  0.00    +0.000 A 
ATOM      9  C   UNL     1       5.676   5.150  15.883  0.00  0.00    +0.000 A 
ATOM     10  H   UNL     1       8.675   5.693  14.918  0.00  0.00    +0.000 HD
ENDROOT
BRANCH   9  11
ATOM     11  N   UNL     1       4.647   5.279  16.818  0.00  0.00    +0.000 N 
ATOM     12  C   UNL     1       4.199   4.290  17.662  0.00  0.00    +0.000 C 
ATOM     13  O   UNL     1       4.527   3.106  17.613  0.00  0.00    +0.000 OA
ATOM     14  H   UNL     1       4.123   6.153  16.774  0.00  0.00    +0.000 HD
BRANCH  12  15
ATOM     15  C   UNL     1       3.160   4.642  18.671  0.00  0.00    +0.000 A 
ATOM     16  C   UNL     1       2.761   3.583  19.513  0.00  0.00    +0.000 A 
ATOM     17  C   UNL     1       1.900   3.804  20.584  0.00  0.00    +0.000 A 
ATOM     18 CL   UNL     1       1.468   2.502  21.618  0.00  0.00    +0.000 Cl
ATOM     19  C   UNL     1       1.411   5.081  20.830  0.00  0.00    +0.000 A 
ATOM     20  C   UNL     1       1.776   6.135  19.989  0.00  0.00    +0.000 A 
ATOM     21  C   UNL     1       2.646   5.924  18.909  0.00  0.00    +0.000 A 
ATOM     22 CL   UNL     1       3.061   7.316  17.974  0.00  0.00    +0.000 Cl
ENDBRANCH  12  15
ENDBRANCH   9  11
BRANCH   1  23
ATOM     23  C   UNL     1       7.419   6.392  17.275  0.00  0.00    +0.000 C 
ATOM     24  O   UNL     1       7.350   6.018  18.438  0.00  0.00    +0.000 OA
BRANCH  23  25
ATOM     25  O   UNL     1       7.850   7.618  16.861  0.00  0.00    +0.000 OA
BRANCH  25  27
ATOM     26  C   UNL     1       8.582   9.394  18.282  0.00  0.00    +0.000 C 
ATOM     27  C   UNL     1       7.378   8.729  17.636  0.00  0.00    +0.000 C 
ENDBRANCH  25  27
ENDBRANCH  23  25
ENDBRANCH   1  23
TORSDOF 5
ENDMDL
MODEL 3
REMARK VINA RESULT:      -8.2      1.000      2.213
REMARK  Name = 
REMARK  6 active torsions:
REMARK  status: ('A' for Active; 'I' for Inactive)
REMARK    1  A    between atoms: C_1  and  C_2
REMARK    2  A    between atoms: C_2  and  O_3
REMARK    3  A    between atoms: O_3  and  C_4
REMARK    4  A    between atoms: C_4  and  C_6
REMARK    5  A    between atoms: C_14  and  N_15
REMARK    6  A    between atoms: C_16  and  C_18
REMARK                            x       y       z     vdW  Elec       q    Type
REMARK                         _______ _______ _______ _____ _____    ______ ____
ROOT
ATOM      1  C   UNL     1       6.908   5.599  16.372  0.00  0.00    +0.000 A 
ATOM      2  N   UNL     1       7.683   5.677  15.239  0.00  0.00    +0.000 N 
ATOM      3  C   UNL     1       7.117   4.979  14.204  0.00  0.00    +0.000 A 
ATOM      4  C   UNL     1       7.567   4.819  12.886  0.00  0.00    +0.000 A 
ATOM      5  C   UNL     1       6.797   4.037  12.022  0.00  0.00    +0.000 A 
ATOM      6  C   UNL     1       5.637   3.421  12.472  0.00  0.00    +0.000 A 
ATOM      7  C   UNL     1       5.214   3.586  13.795  0.00  0.00    +0.000 A 
ATOM      8  C   UNL     1       5.940   4.406  14.690  0.00  0.00    +0.000 A 
ATOM      9  C   UNL     1       5.795   4.829  16.058  0.00  0.00    +0.000 A 
ATOM     10  H   UNL     1       8.539   6.212  15.176  0.00  0.00    +0.000 HD
ENDROOT
BRANCH   9  11
ATOM     11  N   UNL     1       4.789   4.591  16.997  0.00  0.00    +0.000 N 
ATOM     12  C   UNL     1       3.825   5.490  17.387  0.00  0.00    +0.000 C 
ATOM     13  O   UNL     1       3.796   6.682  17.087  0.00  0.00    +0.000 OA
ATOM     14  H   UNL     1       4.866   3.711  17.507  0.00  0.00    +0.000 HD
BRANCH  12  15
ATOM     15  C   UNL     1       2.766   5.024  18.327  0.00  0.00    +0.000 A 
ATOM     16  C   UNL     1       2.372   3.679  18.165  0.00  0.00    +0.000 A 
ATOM     17  C   UNL     1       1.493   3.078  19.061  0.00  0.00    +0.000 A 
ATOM     18 CL   UNL     1       1.066   1.425  18.862  0.00  0.00    +0.000 Cl
ATOM     19  C   UNL     1       0.980   3.806  20.127  0.00  0.00    +0.000 A 
ATOM     20  C   UNL     1       1.340   5.146  20.285  0.00  0.00    +0.000 A 
ATOM     21  C   UNL     1       2.228   5.762  19.390  0.00  0.00    +0.000 A 
ATOM     22 CL   UNL     1       2.635   7.407  19.723  0.00  0.00    +0.000 Cl
ENDBRANCH  12  15
ENDBRANCH   9  11
BRANCH   1  23
ATOM     23  C   UNL     1       7.204   6.307  17.591  0.00  0.00    +0.000 C 
ATOM     24  O   UNL     1       7.049   5.860  18.720  0.00  0.00    +0.000 OA
BRANCH  23  25
ATOM     25  O   UNL     1       7.579   7.583  17.288  0.00  0.00    +0.000 OA
BRANCH  25  27
ATOM     26  C   UNL     1       8.408   9.731  17.925  0.00  0.00    +0.000 C 
ATOM     27  C   UNL     1       8.323   8.263  18.308  0.00  0.00    +0.000 C 
ENDBRANCH  25  27
ENDBRANCH  23  25
ENDBRANCH   1  23
TORSDOF 5
ENDMDL
MODEL 4
REMARK VINA RESULT:      -7.9      1.630      2.104
REMARK  Name = 
REMARK  6 active torsions:
REMARK  status: ('A' for Active; 'I' for Inactive)
REMARK    1  A    between atoms: C_1  and  C_2
REMARK    2  A    between atoms: C_2  and  O_3
REMARK    3  A    between atoms: O_3  and  C_4
REMARK    4  A    between atoms: C_4  and  C_6
REMARK    5  A    between atoms: C_14  and  N_15
REMARK    6  A    between atoms: C_16  and  C_18
REMARK                            x       y       z     vdW  Elec       q    Type
REMARK                         _______ _______ _______ _____ _____    ______ ____
ROOT
ATOM      1  C   UNL     1       7.161   5.287  15.992  0.00  0.00    +0.000 A 
ATOM      2  N   UNL     1       7.743   5.589  14.784  0.00  0.00    +0.000 N 
ATOM      3  C   UNL     1       7.198   4.845  13.771  0.00  0.00    +0.000 A 
ATOM      4  C   UNL     1       7.489   4.856  12.400  0.00  0.00    +0.000 A 
ATOM      5  C   UNL     1       6.786   3.976  11.574  0.00  0.00    +0.000 A 
ATOM      6  C   UNL     1       5.848   3.104  12.108  0.00  0.00    +0.000 A 
ATOM      7  C   UNL     1       5.582   3.102  13.483  0.00  0.00    +0.000 A 
ATOM      8  C   UNL     1       6.239   4.008  14.347  0.00  0.00    +0.000 A 
ATOM      9  C   UNL     1       6.196   4.315  15.753  0.00  0.00    +0.000 A 
ATOM     10  H   UNL     1       8.455   6.297  14.662  0.00  0.00    +0.000 HD
ENDROOT
BRANCH   9  11
ATOM     11  N   UNL     1       5.397   3.817  16.783  0.00  0.00    +0.000 N 
ATOM     12  C   UNL     1       4.290   4.438  17.312  0.00  0.00    +0.000 C 
ATOM     13  O   UNL     1       3.929   5.588  17.067  0.00  0.00    +0.000 OA
ATOM     14  H   UNL     1       5.749   2.979  17.244  0.00  0.00    +0.000 HD
BRANCH  12  15
ATOM     15  C   UNL     1       3.495   3.706  18.339  0.00  0.00    +0.000 A 
ATOM     16  C   UNL     1       4.256   2.963  19.267  0.00  0.00    +0.000 A 
ATOM     17  C   UNL     1       3.651   2.344  20.357  0.00  0.00    +0.000 A 
ATOM     18 CL   UNL     1       4.611   1.484  21.493  0.00  0.00    +0.000 Cl
ATOM     19  C   UNL     1       2.277   2.443  20.539  0.00  0.00    +0.000 A 
ATOM     20  C   UNL     1       1.508   3.153  19.615  0.00  0.00    +0.000 A 
ATOM     21  C   UNL     1       2.107   3.784  18.514  0.00  0.00    +0.000 A 
ATOM     22 CL   UNL     1       1.054   4.673  17.472  0.00  0.00    +0.000 Cl
ENDBRANCH  12  15
ENDBRANCH   9  11
BRANCH   1  23
ATOM     23  C   UNL     1       7.468   5.973  17.220  0.00  0.00    +0.000 C 
ATOM     24  O   UNL     1       7.248   5.539  18.343  0.00  0.00    +0.000 OA
BRANCH  23  25
ATOM     25  O   UNL     1       7.938   7.220  16.930  0.00  0.00    +0.000 OA
BRANCH  25  27
ATOM     26  C   UNL     1       8.388   9.221  18.156  0.00  0.00    +0.000 C 
ATOM     27  C   UNL     1       7.302   8.296  17.634  0.00  0.00    +0.000 C 
ENDBRANCH  25  27
ENDBRANCH  23  25
ENDBRANCH   1  23
TORSDOF 5
ENDMDL
MODEL 5
REMARK VINA RESULT:      -7.8      3.353      5.540
REMARK  Name = 
REMARK  6 active torsions:
REMARK  status: ('A' for Active; 'I' for Inactive)
REMARK    1  A    between atoms: C_1  and  C_2
REMARK    2  A    between atoms: C_2  and  O_3
REMARK    3  A    between atoms: O_3  and  C_4
REMARK    4  A    between atoms: C_4  and  C_6
REMARK    5  A    between atoms: C_14  and  N_15
REMARK    6  A    between atoms: C_16  and  C_18
REMARK                            x       y       z     vdW  Elec       q    Type
REMARK                         _______ _______ _______ _____ _____    ______ ____
ROOT
ATOM      1  C   UNL     1       2.997   4.485  17.547  0.00  0.00    +0.000 A 
ATOM      2  N   UNL     1       4.054   3.736  17.088  0.00  0.00    +0.000 N 
ATOM      3  C   UNL     1       5.195   4.491  17.003  0.00  0.00    +0.000 A 
ATOM      4  C   UNL     1       6.485   4.115  16.603  0.00  0.00    +0.000 A 
ATOM      5  C   UNL     1       7.479   5.095  16.596  0.00  0.00    +0.000 A 
ATOM      6  C   UNL     1       7.184   6.404  16.952  0.00  0.00    +0.000 A 
ATOM      7  C   UNL     1       5.886   6.759  17.337  0.00  0.00    +0.000 A 
ATOM      8  C   UNL     1       4.860   5.787  17.401  0.00  0.00    +0.000 A 
ATOM      9  C   UNL     1       3.470   5.771  17.776  0.00  0.00    +0.000 A 
ATOM     10  H   UNL     1       3.997   2.748  16.877  0.00  0.00    +0.000 HD
ENDROOT
BRANCH   9  11
ATOM     11  N   UNL     1       2.639   6.770  18.286  0.00  0.00    +0.000 N 
ATOM     12  C   UNL     1       2.395   7.011  19.617  0.00  0.00    +0.000 C 
ATOM     13  O   UNL     1       2.745   6.290  20.550  0.00  0.00    +0.000 OA
ATOM     14  H   UNL     1       2.089   7.277  17.593  0.00  0.00    +0.000 HD
BRANCH  12  15
ATOM     15  C   UNL     1       1.560   8.192  19.978  0.00  0.00    +0.000 A 
ATOM     16  C   UNL     1       1.093   8.210  21.310  0.00  0.00    +0.000 A 
ATOM     17  C   UNL     1       0.418   9.316  21.817  0.00  0.00    +0.000 A 
ATOM     18 CL   UNL     1      -0.099   9.325  23.455  0.00  0.00    +0.000 Cl
ATOM     19  C   UNL     1       0.185  10.421  21.007  0.00  0.00    +0.000 A 
ATOM     20  C   UNL     1       0.618  10.407  19.679  0.00  0.00    +0.000 A 
ATOM     21  C   UNL     1       1.302   9.298  19.158  0.00  0.00    +0.000 A 
ATOM     22 CL   UNL     1       1.830   9.424  17.518  0.00  0.00    +0.000 Cl
ENDBRANCH  12  15
ENDBRANCH   9  11
BRANCH   1  23
ATOM     23  C   UNL     1       1.692   3.939  17.823  0.00  0.00    +0.000 C 
ATOM     24  O   UNL     1       0.667   4.225  17.219  0.00  0.00    +0.000 OA
BRANCH  23  25
ATOM     25  O   UNL     1       1.766   3.141  18.927  0.00  0.00    +0.000 OA
BRANCH  25  27
ATOM     26  C   UNL     1       1.473   2.974  21.292  0.00  0.00    +0.000 C 
ATOM     27  C   UNL     1       0.871   3.485  19.993  0.00  0.00    +0.000 C 
ENDBRANCH  25  27
ENDBRANCH  23  25
ENDBRANCH   1  23
TORSDOF 5
ENDMDL
MODEL 6
REMARK VINA RESULT:      -7.8      2.776      6.413
REMARK  Name = 
REMARK  6 active torsions:
REMARK  status: ('A' for Active; 'I' for Inactive)
REMARK    1  A    between atoms: C_1  and  C_2
REMARK    2  A    between atoms: C_2  and  O_3
REMARK    3  A    between atoms: O_3  and  C_4
REMARK    4  A    between atoms: C_4  and  C_6
REMARK    5  A    between atoms: C_14  and  N_15
REMARK    6  A    between atoms: C_16  and  C_18
REMARK                            x       y       z     vdW  Elec       q    Type
REMARK                         _______ _______ _______ _____ _____    ______ ____
ROOT
ATOM      1  C   UNL     1       5.738   4.983  18.458  0.00  0.00    +0.000 A 
ATOM      2  N   UNL     1       5.064   5.164  19.642  0.00  0.00    +0.000 N 
ATOM      3  C   UNL     1       3.752   4.783  19.528  0.00  0.00    +0.000 A 
ATOM      4  C   UNL     1       2.735   4.787  20.493  0.00  0.00    +0.000 A 
ATOM      5  C   UNL     1       1.466   4.351  20.107  0.00  0.00    +0.000 A 
ATOM      6  C   UNL     1       1.223   3.952  18.801  0.00  0.00    +0.000 A 
ATOM      7  C   UNL     1       2.251   3.967  17.851  0.00  0.00    +0.000 A 
ATOM      8  C   UNL     1       3.561   4.358  18.211  0.00  0.00    +0.000 A 
ATOM      9  C   UNL     1       4.833   4.458  17.544  0.00  0.00    +0.000 A 
ATOM     10  H   UNL     1       5.496   5.502  20.492  0.00  0.00    +0.000 HD
ENDROOT
BRANCH   9  11
ATOM     11  N   UNL     1       5.223   4.126  16.245  0.00  0.00    +0.000 N 
ATOM     12  C   UNL     1       5.474   5.018  15.229  0.00  0.00    +0.000 C 
ATOM     13  O   UNL     1       5.242   6.225  15.264  0.00  0.00    +0.000 OA
ATOM     14  H   UNL     1       5.203   3.131  16.022  0.00  0.00    +0.000 HD
BRANCH  12  15
ATOM     15  C   UNL     1       5.984   4.485  13.933  0.00  0.00    +0.000 A 
ATOM     16  C   UNL     1       5.058   3.718  13.196  0.00  0.00    +0.000 A 
ATOM     17  C   UNL     1       5.358   3.276  11.911  0.00  0.00    +0.000 A 
ATOM     18 CL   UNL     1       4.192   2.380  11.020  0.00  0.00    +0.000 Cl
ATOM     19  C   UNL     1       6.588   3.578  11.339  0.00  0.00    +0.000 A 
ATOM     20  C   UNL     1       7.524   4.314  12.068  0.00  0.00    +0.000 A 
ATOM     21  C   UNL     1       7.232   4.769  13.363  0.00  0.00    +0.000 A 
ATOM     22 CL   UNL     1       8.453   5.712  14.139  0.00  0.00    +0.000 Cl
ENDBRANCH  12  15
ENDBRANCH   9  11
BRANCH   1  23
ATOM     23  C   UNL     1       7.151   5.214  18.301  0.00  0.00    +0.000 C 
ATOM     24  O   UNL     1       7.979   4.355  18.025  0.00  0.00    +0.000 OA
BRANCH  23  25
ATOM     25  O   UNL     1       7.430   6.512  18.614  0.00  0.00    +0.000 OA
BRANCH  25  27
ATOM     26  C   UNL     1       8.183   8.685  17.967  0.00  0.00    +0.000 C 
ATOM     27  C   UNL     1       7.501   7.411  17.499  0.00  0.00    +0.000 C 
ENDBRANCH  25  27
ENDBRANCH  23  25
ENDBRANCH   1  23
TORSDOF 5
ENDMDL
MODEL 7
REMARK VINA RESULT:      -7.8      1.022      1.386
REMARK  Name = 
REMARK  6 active torsions:
REMARK  status: ('A' for Active; 'I' for Inactive)
REMARK    1  A    between atoms: C_1  and  C_2
REMARK    2  A    between atoms: C_2  and  O_3
REMARK    3  A    between atoms: O_3  and  C_4
REMARK    4  A    between atoms: C_4  and  C_6
REMARK    5  A    between atoms: C_14  and  N_15
REMARK    6  A    between atoms: C_16  and  C_18
REMARK                            x       y       z     vdW  Elec       q    Type
REMARK                         _______ _______ _______ _____ _____    ______ ____
ROOT
ATOM      1  C   UNL     1       6.902   5.689  15.882  0.00  0.00    +0.000 A 
ATOM      2  N   UNL     1       7.692   5.516  14.771  0.00  0.00    +0.000 N 
ATOM      3  C   UNL     1       7.040   4.788  13.809  0.00  0.00    +0.000 A 
ATOM      4  C   UNL     1       7.475   4.406  12.533  0.00  0.00    +0.000 A 
ATOM      5  C   UNL     1       6.607   3.646  11.746  0.00  0.00    +0.000 A 
ATOM      6  C   UNL     1       5.364   3.265  12.232  0.00  0.00    +0.000 A 
ATOM      7  C   UNL     1       4.956   3.648  13.515  0.00  0.00    +0.000 A 
ATOM      8  C   UNL     1       5.786   4.456  14.326  0.00  0.00    +0.000 A 
ATOM      9  C   UNL     1       5.691   5.058  15.630  0.00  0.00    +0.000 A 
ATOM     10  H   UNL     1       8.618   5.909  14.669  0.00  0.00    +0.000 HD
ENDROOT
BRANCH   9  11
ATOM     11  N   UNL     1       4.651   5.084  16.562  0.00  0.00    +0.000 N 
ATOM     12  C   UNL     1       4.222   4.018  17.317  0.00  0.00    +0.000 C 
ATOM     13  O   UNL     1       4.580   2.850  17.174  0.00  0.00    +0.000 OA
ATOM     14  H   UNL     1       4.105   5.945  16.584  0.00  0.00    +0.000 HD
BRANCH  12  15
ATOM     15  C   UNL     1       3.164   4.259  18.340  0.00  0.00    +0.000 A 
ATOM     16  C   UNL     1       3.103   5.578  18.837  0.00  0.00    +0.000 A 
ATOM     17  C   UNL     1       2.079   5.973  19.693  0.00  0.00    +0.000 A 
ATOM     18 CL   UNL     1       2.007   7.598  20.247  0.00  0.00    +0.000 Cl
ATOM     19  C   UNL     1       1.104   5.062  20.079  0.00  0.00    +0.000 A 
ATOM     20  C   UNL     1       1.167   3.746  19.616  0.00  0.00    +0.000 A 
ATOM     21  C   UNL     1       2.192   3.337  18.750  0.00  0.00    +0.000 A 
ATOM     22 CL   UNL     1       2.130   1.698  18.207  0.00  0.00    +0.000 Cl
ENDBRANCH  12  15
ENDBRANCH   9  11
BRANCH   1  23
ATOM     23  C   UNL     1       7.287   6.488  17.018  0.00  0.00    +0.000 C 
ATOM     24  O   UNL     1       7.034   7.677  17.161  0.00  0.00    +0.000 OA
BRANCH  23  25
ATOM     25  O   UNL     1       8.066   5.737  17.849  0.00  0.00    +0.000 OA
BRANCH  25  27
ATOM     26  C   UNL     1       6.548   5.268  19.633  0.00  0.00    +0.000 C 
ATOM     27  C   UNL     1       7.851   5.950  19.250  0.00  0.00    +0.000 C 
ENDBRANCH  25  27
ENDBRANCH  23  25
ENDBRANCH   1  23
TORSDOF 5
ENDMDL
MODEL 8
REMARK VINA RESULT:      -7.8      3.203      5.674
REMARK  Name = 
REMARK  6 active torsions:
REMARK  status: ('A' for Active; 'I' for Inactive)
REMARK    1  A    between atoms: C_1  and  C_2
REMARK    2  A    between atoms: C_2  and  O_3
REMARK    3  A    between atoms: O_3  and  C_4
REMARK    4  A    between atoms: C_4  and  C_6
REMARK    5  A    between atoms: C_14  and  N_15
REMARK    6  A    between atoms: C_16  and  C_18
REMARK                            x       y       z     vdW  Elec       q    Type
REMARK                         _______ _______ _______ _____ _____    ______ ____
ROOT
ATOM      1  C   UNL     1       2.916   4.791  17.818  0.00  0.00    +0.000 A 
ATOM      2  N   UNL     1       3.860   4.031  17.170  0.00  0.00    +0.000 N 
ATOM      3  C   UNL     1       5.024   4.732  16.993  0.00  0.00    +0.000 A 
ATOM      4  C   UNL     1       6.229   4.327  16.401  0.00  0.00    +0.000 A 
ATOM      5  C   UNL     1       7.271   5.254  16.338  0.00  0.00    +0.000 A 
ATOM      6  C   UNL     1       7.102   6.542  16.827  0.00  0.00    +0.000 A 
ATOM      7  C   UNL     1       5.887   6.928  17.404  0.00  0.00    +0.000 A 
ATOM      8  C   UNL     1       4.821   6.007  17.528  0.00  0.00    +0.000 A 
ATOM      9  C   UNL     1       3.491   6.029  18.080  0.00  0.00    +0.000 A 
ATOM     10  H   UNL     1       3.718   3.068  16.895  0.00  0.00    +0.000 HD
ENDROOT
BRANCH   9  11
ATOM     11  N   UNL     1       2.793   7.023  18.767  0.00  0.00    +0.000 N 
ATOM     12  C   UNL     1       2.330   8.199  18.226  0.00  0.00    +0.000 C 
ATOM     13  O   UNL     1       2.594   8.623  17.103  0.00  0.00    +0.000 OA
ATOM     14  H   UNL     1       2.733   6.898  19.777  0.00  0.00    +0.000 HD
BRANCH  12  15
ATOM     15  C   UNL     1       1.510   9.097  19.089  0.00  0.00    +0.000 A 
ATOM     16  C   UNL     1       1.152  10.329  18.502  0.00  0.00    +0.000 A 
ATOM     17  C   UNL     1       0.277  11.201  19.143  0.00  0.00    +0.000 A 
ATOM     18 CL   UNL     1      -0.174  12.673  18.381  0.00  0.00    +0.000 Cl
ATOM     19  C   UNL     1      -0.249  10.869  20.385  0.00  0.00    +0.000 A 
ATOM     20  C   UNL     1       0.117   9.666  20.992  0.00  0.00    +0.000 A 
ATOM     21  C   UNL     1       0.995   8.777  20.353  0.00  0.00    +0.000 A 
ATOM     22 CL   UNL     1       1.330   7.299  21.182  0.00  0.00    +0.000 Cl
ENDBRANCH  12  15
ENDBRANCH   9  11
BRANCH   1  23
ATOM     23  C   UNL     1       1.627   4.290  18.220  0.00  0.00    +0.000 C 
ATOM     24  O   UNL     1       0.783   3.830  17.463  0.00  0.00    +0.000 OA
BRANCH  23  25
ATOM     25  O   UNL     1       1.458   4.511  19.556  0.00  0.00    +0.000 OA
BRANCH  25  27
ATOM     26  C   UNL     1       2.002   3.140  21.435  0.00  0.00    +0.000 C 
ATOM     27  C   UNL     1       1.006   3.380  20.313  0.00  0.00    +0.000 C 
ENDBRANCH  25  27
ENDBRANCH  23  25
ENDBRANCH   1  23
TORSDOF 5
ENDMDL
MODEL 9
REMARK VINA RESULT:      -7.7      1.337      1.664
REMARK  Name = 
REMARK  6 active torsions:
REMARK  status: ('A' for Active; 'I' for Inactive)
REMARK    1  A    between atoms: C_1  and  C_2
REMARK    2  A    between atoms: C_2  and  O_3
REMARK    3  A    between atoms: O_3  and  C_4
REMARK    4  A    between atoms: C_4  and  C_6
REMARK    5  A    between atoms: C_14  and  N_15
REMARK    6  A    between atoms: C_16  and  C_18
REMARK                            x       y       z     vdW  Elec       q    Type
REMARK                         _______ _______ _______ _____ _____    ______ ____
ROOT
ATOM      1  C   UNL     1       7.060   5.479  15.903  0.00  0.00    +0.000 A 
ATOM      2  N   UNL     1       7.724   5.503  14.700  0.00  0.00    +0.000 N 
ATOM      3  C   UNL     1       7.052   4.779  13.749  0.00  0.00    +0.000 A 
ATOM      4  C   UNL     1       7.372   4.564  12.401  0.00  0.00    +0.000 A 
ATOM      5  C   UNL     1       6.512   3.766  11.644  0.00  0.00    +0.000 A 
ATOM      6  C   UNL     1       5.391   3.188  12.224  0.00  0.00    +0.000 A 
ATOM      7  C   UNL     1       5.098   3.407  13.575  0.00  0.00    +0.000 A 
ATOM      8  C   UNL     1       5.918   4.245  14.365  0.00  0.00    +0.000 A 
ATOM      9  C   UNL     1       5.911   4.719  15.725  0.00  0.00    +0.000 A 
ATOM     10  H   UNL     1       8.578   6.020  14.536  0.00  0.00    +0.000 HD
ENDROOT
BRANCH   9  11
ATOM     11  N   UNL     1       4.996   4.532  16.763  0.00  0.00    +0.000 N 
ATOM     12  C   UNL     1       4.106   5.472  17.228  0.00  0.00    +0.000 C 
ATOM     13  O   UNL     1       4.088   6.659  16.909  0.00  0.00    +0.000 OA
ATOM     14  H   UNL     1       5.092   3.658  17.280  0.00  0.00    +0.000 HD
BRANCH  12  15
ATOM     15  C   UNL     1       3.130   5.059  18.277  0.00  0.00    +0.000 A 
ATOM     16  C   UNL     1       2.778   6.070  19.197  0.00  0.00    +0.000 A 
ATOM     17  C   UNL     1       1.778   5.861  20.141  0.00  0.00    +0.000 A 
ATOM     18 CL   UNL     1       1.341   7.126  21.219  0.00  0.00    +0.000 Cl
ATOM     19  C   UNL     1       1.117   4.640  20.196  0.00  0.00    +0.000 A 
ATOM     20  C   UNL     1       1.473   3.621  19.310  0.00  0.00    +0.000 A 
ATOM     21  C   UNL     1       2.478   3.821  18.351  0.00  0.00    +0.000 A 
ATOM     22 CL   UNL     1       2.790   2.503  17.280  0.00  0.00    +0.000 Cl
ENDBRANCH  12  15
ENDBRANCH   9  11
BRANCH   1  23
ATOM     23  C   UNL     1       7.481   6.223  17.062  0.00  0.00    +0.000 C 
ATOM     24  O   UNL     1       7.626   7.438  17.105  0.00  0.00    +0.000 OA
BRANCH  23  25
ATOM     25  O   UNL     1       7.794   5.352  18.063  0.00  0.00    +0.000 OA
BRANCH  25  27
ATOM     26  C   UNL     1       8.323   5.481  20.389  0.00  0.00    +0.000 C 
ATOM     27  C   UNL     1       7.234   5.662  19.346  0.00  0.00    +0.000 C 
ENDBRANCH  25  27
ENDBRANCH  23  25
ENDBRANCH   1  23
TORSDOF 5
ENDMDL
