MODEL 1
REMARK VINA RESULT:      -7.3      0.000      0.000
REMARK  Name = 
REMARK  5 active torsions:
REMARK  status: ('A' for Active; 'I' for Inactive)
REMARK    1  A    between atoms: C_1  and  N_2
REMARK    2  A    between atoms: N_2  and  C_3
REMARK    3  A    between atoms: N_2  and  C_4
REMARK    4  A    between atoms: C_12  and  C_14
REMARK    5  A    between atoms: C_19  and  C_20
REMARK                            x       y       z     vdW  Elec       q    Type
REMARK                         _______ _______ _______ _____ _____    ______ ____
ROOT
ATOM      1  C   UNL     1       5.587   5.164  16.263  0.00  0.00    +0.000 A 
ATOM      2  C   UNL     1       5.757   4.336  17.401  0.00  0.00    +0.000 A 
ATOM      3  C   UNL     1       5.031   4.514  18.588  0.00  0.00    +0.000 A 
ATOM      4  C   UNL     1       4.105   5.536  18.646  0.00  0.00    +0.000 A 
ATOM      5  C   UNL     1       3.931   6.382  17.555  0.00  0.00    +0.000 A 
ATOM      6  C   UNL     1       4.661   6.218  16.384  0.00  0.00    +0.000 A 
ATOM      7  C   UNL     1       2.897   7.412  17.857  0.00  0.00    +0.000 C 
ATOM      8  N   UNL     1       2.450   7.074  19.210  0.00  0.00    +0.000 N 
ATOM      9  C   UNL     1       1.747   7.922  20.050  0.00  0.00    +0.000 C 
ATOM     10  O   UNL     1       1.579   7.654  21.240  0.00  0.00    +0.000 OA
ATOM     11  C   UNL     1       3.164   5.916  19.761  0.00  0.00    +0.000 C 
ENDROOT
BRANCH   9  12
ATOM     12  C   UNL     1       1.251   9.191  19.490  0.00  0.00    +0.000 A 
ATOM     13  C   UNL     1       0.979   9.417  18.154  0.00  0.00    +0.000 A 
ATOM     14  N   UNL     1       0.485  10.688  18.082  0.00  0.00    +0.000 N 
ATOM     15  C   UNL     1       0.502  11.208  19.343  0.00  0.00    +0.000 A 
ATOM     16  N   UNL     1       0.953  10.337  20.215  0.00  0.00    +0.000 NA
ATOM     17  H   UNL     1       0.159  11.160  17.249  0.00  0.00    +0.000 HD
ENDBRANCH   9  12
BRANCH  11  18
ATOM     18  C   UNL     1       2.238   4.807  20.098  0.00  0.00    +0.000 A 
ATOM     19  C   UNL     1       1.312   4.058  19.407  0.00  0.00    +0.000 A 
ATOM     20  N   UNL     1       0.781   3.089  20.222  0.00  0.00    +0.000 NA
ATOM     21  C   UNL     1       1.391   3.290  21.368  0.00  0.00    +0.000 A 
ATOM     22  O   UNL     1       2.292   4.309  21.376  0.00  0.00    +0.000 OA
ENDBRANCH  11  18
BRANCH   1  24
ATOM     23  C   UNL     1       5.780   4.087  14.038  0.00  0.00    +0.000 C 
ATOM     24  N   UNL     1       6.311   4.950  15.089  0.00  0.00    +0.000 N 
ATOM     25  C   UNL     1       7.740   5.241  15.055  0.00  0.00    +0.000 C 
ENDBRANCH   1  24
TORSDOF 3
ENDMDL
MODEL 2
REMARK VINA RESULT:      -7.3      0.639      1.059
REMARK  Name = 
REMARK  5 active torsions:
REMARK  status: ('A' for Active; 'I' for Inactive)
REMARK    1  A    between atoms: C_1  and  N_2
REMARK    2  A    between atoms: N_2  and  C_3
REMARK    3  A    between atoms: N_2  and  C_4
REMARK    4  A    between atoms: C_12  and  C_14
REMARK    5  A    between atoms: C_19  and  C_20
REMARK                            x       y       z     vdW  Elec       q    Type
REMARK                         _______ _______ _______ _____ _____    ______ ____
ROOT
ATOM      1  C   UNL     1       5.693   4.889  16.318  0.00  0.00    +0.000 A 
ATOM      2  C   UNL     1       5.890   4.126  17.495  0.00  0.00    +0.000 A 
ATOM      3  C   UNL     1       5.176   4.358  18.681  0.00  0.00    +0.000 A 
ATOM      4  C   UNL     1       4.237   5.369  18.697  0.00  0.00    +0.000 A 
ATOM      5  C   UNL     1       4.037   6.152  17.565  0.00  0.00    +0.000 A 
ATOM      6  C   UNL     1       4.754   5.936  16.395  0.00  0.00    +0.000 A 
ATOM      7  C   UNL     1       2.992   7.183  17.824  0.00  0.00    +0.000 C 
ATOM      8  N   UNL     1       2.567   6.912  19.200  0.00  0.00    +0.000 N 
ATOM      9  C   UNL     1       1.863   7.795  20.002  0.00  0.00    +0.000 C 
ATOM     10  O   UNL     1       1.714   7.589  21.208  0.00  0.00    +0.000 OA
ATOM     11  C   UNL     1       3.304   5.796  19.803  0.00  0.00    +0.000 C 
ENDROOT
BRANCH   9  12
ATOM     12  C   UNL     1       1.342   9.025  19.383  0.00  0.00    +0.000 A 
ATOM     13  C   UNL     1       1.344   9.293  18.027  0.00  0.00    +0.000 A 
ATOM     14  N   UNL     1       0.717  10.498  17.881  0.00  0.00    +0.000 N 
ATOM     15  C   UNL     1       0.388  10.942  19.128  0.00  0.00    +0.000 A 
ATOM     16  N   UNL     1       0.744  10.083  20.054  0.00  0.00    +0.000 NA
ATOM     17  H   UNL     1       0.524  10.974  17.010  0.00  0.00    +0.000 HD
ENDBRANCH   9  12
BRANCH  11  18
ATOM     18  C   UNL     1       2.399   4.694  20.211  0.00  0.00    +0.000 A 
ATOM     19  C   UNL     1       2.170   3.992  21.374  0.00  0.00    +0.000 A 
ATOM     20  N   UNL     1       1.137   3.106  21.199  0.00  0.00    +0.000 NA
ATOM     21  C   UNL     1       0.787   3.293  19.946  0.00  0.00    +0.000 A 
ATOM     22  O   UNL     1       1.499   4.241  19.279  0.00  0.00    +0.000 OA
ENDBRANCH  11  18
BRANCH   1  24
ATOM     23  C   UNL     1       7.658   5.316  14.868  0.00  0.00    +0.000 C 
ATOM     24  N   UNL     1       6.405   4.622  15.147  0.00  0.00    +0.000 N 
ATOM     25  C   UNL     1       5.738   3.972  14.025  0.00  0.00    +0.000 C 
ENDBRANCH   1  24
TORSDOF 3
ENDMDL
MODEL 3
REMARK VINA RESULT:      -7.0      4.042      7.421
REMARK  Name = 
REMARK  5 active torsions:
REMARK  status: ('A' for Active; 'I' for Inactive)
REMARK    1  A    between atoms: C_1  and  N_2
REMARK    2  A    between atoms: N_2  and  C_3
REMARK    3  A    between atoms: N_2  and  C_4
REMARK    4  A    between atoms: C_12  and  C_14
REMARK    5  A    between atoms: C_19  and  C_20
REMARK                            x       y       z     vdW  Elec       q    Type
REMARK                         _______ _______ _______ _____ _____    ______ ____
ROOT
ATOM      1  C   UNL     1       2.984   3.303  19.221  0.00  0.00    +0.000 A 
ATOM      2  C   UNL     1       4.116   3.797  19.917  0.00  0.00    +0.000 A 
ATOM      3  C   UNL     1       5.274   4.248  19.266  0.00  0.00    +0.000 A 
ATOM      4  C   UNL     1       5.307   4.215  17.886  0.00  0.00    +0.000 A 
ATOM      5  C   UNL     1       4.223   3.714  17.174  0.00  0.00    +0.000 A 
ATOM      6  C   UNL     1       3.082   3.251  17.817  0.00  0.00    +0.000 A 
ATOM      7  C   UNL     1       4.496   3.764  15.709  0.00  0.00    +0.000 C 
ATOM      8  N   UNL     1       5.824   4.376  15.622  0.00  0.00    +0.000 N 
ATOM      9  C   UNL     1       6.645   4.333  14.507  0.00  0.00    +0.000 C 
ATOM     10  O   UNL     1       7.824   4.688  14.564  0.00  0.00    +0.000 OA
ATOM     11  C   UNL     1       6.388   4.680  16.942  0.00  0.00    +0.000 C 
ENDROOT
BRANCH   9  12
ATOM     12  C   UNL     1       6.085   3.795  13.256  0.00  0.00    +0.000 A 
ATOM     13  C   UNL     1       6.789   3.057  12.323  0.00  0.00    +0.000 A 
ATOM     14  N   UNL     1       5.885   2.706  11.362  0.00  0.00    +0.000 N 
ATOM     15  C   UNL     1       4.686   3.257  11.705  0.00  0.00    +0.000 A 
ATOM     16  N   UNL     1       4.766   3.916  12.838  0.00  0.00    +0.000 NA
ATOM     17  H   UNL     1       6.066   2.137  10.546  0.00  0.00    +0.000 HD
ENDBRANCH   9  12
BRANCH  11  18
ATOM     18  C   UNL     1       6.669   6.128  17.101  0.00  0.00    +0.000 A 
ATOM     19  C   UNL     1       5.944   7.290  16.955  0.00  0.00    +0.000 A 
ATOM     20  N   UNL     1       6.707   8.373  17.312  0.00  0.00    +0.000 NA
ATOM     21  C   UNL     1       7.858   7.836  17.648  0.00  0.00    +0.000 A 
ATOM     22  O   UNL     1       7.916   6.480  17.552  0.00  0.00    +0.000 OA
ENDBRANCH  11  18
BRANCH   1  24
ATOM     23  C   UNL     1       0.632   2.522  19.158  0.00  0.00    +0.000 C 
ATOM     24  N   UNL     1       1.839   2.879  19.897  0.00  0.00    +0.000 N 
ATOM     25  C   UNL     1       1.691   3.161  21.320  0.00  0.00    +0.000 C 
ENDBRANCH   1  24
TORSDOF 3
ENDMDL
MODEL 4
REMARK VINA RESULT:      -6.8      3.396      6.843
REMARK  Name = 
REMARK  5 active torsions:
REMARK  status: ('A' for Active; 'I' for Inactive)
REMARK    1  A    between atoms: C_1  and  N_2
REMARK    2  A    between atoms: N_2  and  C_3
REMARK    3  A    between atoms: N_2  and  C_4
REMARK    4  A    between atoms: C_12  and  C_14
REMARK    5  A    between atoms: C_19  and  C_20
REMARK                            x       y       z     vdW  Elec       q    Type
REMARK                         _______ _______ _______ _____ _____    ______ ____
ROOT
ATOM      1  C   UNL     1       2.145   7.610  19.428  0.00  0.00    +0.000 A 
ATOM      2  C   UNL     1       2.485   8.327  18.254  0.00  0.00    +0.000 A 
ATOM      3  C   UNL     1       2.022   9.625  17.994  0.00  0.00    +0.000 A 
ATOM      4  C   UNL     1       1.207  10.232  18.927  0.00  0.00    +0.000 A 
ATOM      5  C   UNL     1       0.835   9.547  20.079  0.00  0.00    +0.000 A 
ATOM      6  C   UNL     1       1.278   8.254  20.331  0.00  0.00    +0.000 A 
ATOM      7  C   UNL     1      -0.056  10.393  20.922  0.00  0.00    +0.000 C 
ATOM      8  N   UNL     1      -0.145  11.654  20.182  0.00  0.00    +0.000 N 
ATOM      9  C   UNL     1      -1.110  12.628  20.384  0.00  0.00    +0.000 C 
ATOM     10  O   UNL     1      -1.251  13.566  19.597  0.00  0.00    +0.000 OA
ATOM     11  C   UNL     1       0.617  11.621  18.928  0.00  0.00    +0.000 C 
ENDROOT
BRANCH   9  12
ATOM     12  C   UNL     1      -2.007  12.480  21.543  0.00  0.00    +0.000 A 
ATOM     13  C   UNL     1      -3.381  12.619  21.505  0.00  0.00    +0.000 A 
ATOM     14  N   UNL     1      -3.822  12.340  22.767  0.00  0.00    +0.000 N 
ATOM     15  C   UNL     1      -2.725  12.080  23.536  0.00  0.00    +0.000 A 
ATOM     16  N   UNL     1      -1.618  12.152  22.834  0.00  0.00    +0.000 NA
ATOM     17  H   UNL     1      -4.784  12.322  23.078  0.00  0.00    +0.000 HD
ENDBRANCH   9  12
BRANCH  11  18
ATOM     18  C   UNL     1       1.671  12.664  18.896  0.00  0.00    +0.000 A 
ATOM     19  C   UNL     1       2.285  13.408  17.913  0.00  0.00    +0.000 A 
ATOM     20  N   UNL     1       3.163  14.302  18.473  0.00  0.00    +0.000 NA
ATOM     21  C   UNL     1       3.059  14.062  19.761  0.00  0.00    +0.000 A 
ATOM     22  O   UNL     1       2.173  13.088  20.101  0.00  0.00    +0.000 OA
ENDBRANCH  11  18
BRANCH   1  24
ATOM     23  C   UNL     1       3.655   5.748  18.796  0.00  0.00    +0.000 C 
ATOM     24  N   UNL     1       2.637   6.325  19.668  0.00  0.00    +0.000 N 
ATOM     25  C   UNL     1       1.885   5.407  20.515  0.00  0.00    +0.000 C 
ENDBRANCH   1  24
TORSDOF 3
ENDMDL
MODEL 5
REMARK VINA RESULT:      -6.7      6.358      7.951
REMARK  Name = 
REMARK  5 active torsions:
REMARK  status: ('A' for Active; 'I' for Inactive)
REMARK    1  A    between atoms: C_1  and  N_2
REMARK    2  A    between atoms: N_2  and  C_3
REMARK    3  A    between atoms: N_2  and  C_4
REMARK    4  A    between atoms: C_12  and  C_14
REMARK    5  A    between atoms: C_19  and  C_20
REMARK                            x       y       z     vdW  Elec       q    Type
REMARK                         _______ _______ _______ _____ _____    ______ ____
ROOT
ATOM      1  C   UNL     1      -2.298  10.908  17.145  0.00  0.00    +0.000 A 
ATOM      2  C   UNL     1      -1.606   9.782  17.655  0.00  0.00    +0.000 A 
ATOM      3  C   UNL     1      -0.577   9.885  18.603  0.00  0.00    +0.000 A 
ATOM      4  C   UNL     1      -0.231  11.139  19.065  0.00  0.00    +0.000 A 
ATOM      5  C   UNL     1      -0.875  12.267  18.567  0.00  0.00    +0.000 A 
ATOM      6  C   UNL     1      -1.882  12.169  17.615  0.00  0.00    +0.000 A 
ATOM      7  C   UNL     1      -0.324  13.500  19.198  0.00  0.00    +0.000 C 
ATOM      8  N   UNL     1       0.677  12.994  20.140  0.00  0.00    +0.000 N 
ATOM      9  C   UNL     1       1.682  13.754  20.716  0.00  0.00    +0.000 C 
ATOM     10  O   UNL     1       2.608  13.230  21.338  0.00  0.00    +0.000 OA
ATOM     11  C   UNL     1       0.787  11.531  20.106  0.00  0.00    +0.000 C 
ENDROOT
BRANCH   9  12
ATOM     12  C   UNL     1       1.644  15.213  20.516  0.00  0.00    +0.000 A 
ATOM     13  C   UNL     1       1.016  16.113  21.356  0.00  0.00    +0.000 A 
ATOM     14  N   UNL     1       1.278  17.350  20.843  0.00  0.00    +0.000 N 
ATOM     15  C   UNL     1       2.013  17.177  19.707  0.00  0.00    +0.000 A 
ATOM     16  N   UNL     1       2.255  15.907  19.481  0.00  0.00    +0.000 NA
ATOM     17  H   UNL     1       0.988  18.237  21.234  0.00  0.00    +0.000 HD
ENDBRANCH   9  12
BRANCH  11  18
ATOM     18  C   UNL     1       0.482  10.925  21.426  0.00  0.00    +0.000 A 
ATOM     19  C   UNL     1      -0.467  11.128  22.403  0.00  0.00    +0.000 A 
ATOM     20  N   UNL     1      -0.318  10.206  23.409  0.00  0.00    +0.000 NA
ATOM     21  C   UNL     1       0.712   9.492  23.014  0.00  0.00    +0.000 A 
ATOM     22  O   UNL     1       1.251   9.859  21.821  0.00  0.00    +0.000 OA
ENDBRANCH  11  18
BRANCH   1  24
ATOM     23  C   UNL     1      -3.039  10.409  14.832  0.00  0.00    +0.000 C 
ATOM     24  N   UNL     1      -3.331  10.772  16.215  0.00  0.00    +0.000 N 
ATOM     25  C   UNL     1      -4.635  11.363  16.489  0.00  0.00    +0.000 C 
ENDBRANCH   1  24
TORSDOF 3
ENDMDL
MODEL 6
REMARK VINA RESULT:      -6.7      1.216      1.293
REMARK  Name = 
REMARK  5 active torsions:
REMARK  status: ('A' for Active; 'I' for Inactive)
REMARK    1  A    between atoms: C_1  and  N_2
REMARK    2  A    between atoms: N_2  and  C_3
REMARK    3  A    between atoms: N_2  and  C_4
REMARK    4  A    between atoms: C_12  and  C_14
REMARK    5  A    between atoms: C_19  and  C_20
REMARK                            x       y       z     vdW  Elec       q    Type
REMARK                         _______ _______ _______ _____ _____    ______ ____
ROOT
ATOM      1  C   UNL     1       5.914   4.875  15.114  0.00  0.00    +0.000 A 
ATOM      2  C   UNL     1       6.032   3.865  16.101  0.00  0.00    +0.000 A 
ATOM      3  C   UNL     1       5.327   3.899  17.313  0.00  0.00    +0.000 A 
ATOM      4  C   UNL     1       4.475   4.960  17.549  0.00  0.00    +0.000 A 
ATOM      5  C   UNL     1       4.355   5.980  16.611  0.00  0.00    +0.000 A 
ATOM      6  C   UNL     1       5.066   5.957  15.418  0.00  0.00    +0.000 A 
ATOM      7  C   UNL     1       3.398   7.016  17.091  0.00  0.00    +0.000 C 
ATOM      8  N   UNL     1       2.935   6.496  18.380  0.00  0.00    +0.000 N 
ATOM      9  C   UNL     1       2.298   7.245  19.356  0.00  0.00    +0.000 C 
ATOM     10  O   UNL     1       2.118   6.800  20.491  0.00  0.00    +0.000 OA
ATOM     11  C   UNL     1       3.569   5.219  18.727  0.00  0.00    +0.000 C 
ENDROOT
BRANCH   9  12
ATOM     12  C   UNL     1       1.890   8.618  19.016  0.00  0.00    +0.000 A 
ATOM     13  C   UNL     1       2.214   9.275  17.844  0.00  0.00    +0.000 A 
ATOM     14  N   UNL     1       1.588  10.486  17.908  0.00  0.00    +0.000 N 
ATOM     15  C   UNL     1       0.940  10.552  19.106  0.00  0.00    +0.000 A 
ATOM     16  N   UNL     1       1.096   9.447  19.798  0.00  0.00    +0.000 NA
ATOM     17  H   UNL     1       1.594  11.205  17.196  0.00  0.00    +0.000 HD
ENDBRANCH   9  12
BRANCH  11  18
ATOM     18  C   UNL     1       2.569   4.136  18.897  0.00  0.00    +0.000 A 
ATOM     19  C   UNL     1       1.391   3.782  18.278  0.00  0.00    +0.000 A 
ATOM     20  N   UNL     1       0.905   2.615  18.812  0.00  0.00    +0.000 NA
ATOM     21  C   UNL     1       1.792   2.312  19.733  0.00  0.00    +0.000 A 
ATOM     22  O   UNL     1       2.833   3.180  19.846  0.00  0.00    +0.000 OA
ENDBRANCH  11  18
BRANCH   1  24
ATOM     23  C   UNL     1       6.312   3.759  12.936  0.00  0.00    +0.000 C 
ATOM     24  N   UNL     1       6.615   4.804  13.909  0.00  0.00    +0.000 N 
ATOM     25  C   UNL     1       7.894   5.492  13.772  0.00  0.00    +0.000 C 
ENDBRANCH   1  24
TORSDOF 3
ENDMDL
MODEL 7
REMARK VINA RESULT:      -6.6      6.745      8.883
REMARK  Name = 
REMARK  5 active torsions:
REMARK  status: ('A' for Active; 'I' for Inactive)
REMARK    1  A    between atoms: C_1  and  N_2
REMARK    2  A    between atoms: N_2  and  C_3
REMARK    3  A    between atoms: N_2  and  C_4
REMARK    4  A    between atoms: C_12  and  C_14
REMARK    5  A    between atoms: C_19  and  C_20
REMARK                            x       y       z     vdW  Elec       q    Type
REMARK                         _______ _______ _______ _____ _____    ______ ____
ROOT
ATOM      1  C   UNL     1      -2.781  11.213  17.780  0.00  0.00    +0.000 A 
ATOM      2  C   UNL     1      -1.420  10.847  17.926  0.00  0.00    +0.000 A 
ATOM      3  C   UNL     1      -0.662  11.170  19.062  0.00  0.00    +0.000 A 
ATOM      4  C   UNL     1      -1.274  11.868  20.083  0.00  0.00    +0.000 A 
ATOM      5  C   UNL     1      -2.601  12.263  19.961  0.00  0.00    +0.000 A 
ATOM      6  C   UNL     1      -3.349  11.959  18.830  0.00  0.00    +0.000 A 
ATOM      7  C   UNL     1      -3.034  13.013  21.174  0.00  0.00    +0.000 C 
ATOM      8  N   UNL     1      -1.853  12.991  22.039  0.00  0.00    +0.000 N 
ATOM      9  C   UNL     1      -1.647  13.828  23.124  0.00  0.00    +0.000 C 
ATOM     10  O   UNL     1      -0.551  13.897  23.684  0.00  0.00    +0.000 OA
ATOM     11  C   UNL     1      -0.719  12.295  21.420  0.00  0.00    +0.000 C 
ENDROOT
BRANCH   9  12
ATOM     12  C   UNL     1      -2.765  14.683  23.559  0.00  0.00    +0.000 A 
ATOM     13  C   UNL     1      -3.736  14.316  24.471  0.00  0.00    +0.000 A 
ATOM     14  N   UNL     1      -4.532  15.413  24.633  0.00  0.00    +0.000 N 
ATOM     15  C   UNL     1      -4.059  16.389  23.806  0.00  0.00    +0.000 A 
ATOM     16  N   UNL     1      -2.997  15.988  23.147  0.00  0.00    +0.000 NA
ATOM     17  H   UNL     1      -5.325  15.494  25.256  0.00  0.00    +0.000 HD
ENDBRANCH   9  12
BRANCH  11  18
ATOM     18  C   UNL     1      -0.278  11.131  22.227  0.00  0.00    +0.000 A 
ATOM     19  C   UNL     1      -0.843  10.348  23.209  0.00  0.00    +0.000 A 
ATOM     20  N   UNL     1       0.014   9.336  23.561  0.00  0.00    +0.000 NA
ATOM     21  C   UNL     1       1.061   9.545  22.795  0.00  0.00    +0.000 A 
ATOM     22  O   UNL     1       0.962  10.611  21.955  0.00  0.00    +0.000 OA
ENDBRANCH  11  18
BRANCH   1  24
ATOM     23  C   UNL     1      -2.851  10.261  15.491  0.00  0.00    +0.000 C 
ATOM     24  N   UNL     1      -3.514  10.860  16.645  0.00  0.00    +0.000 N 
ATOM     25  C   UNL     1      -4.839  11.432  16.432  0.00  0.00    +0.000 C 
ENDBRANCH   1  24
TORSDOF 3
ENDMDL
MODEL 8
REMARK VINA RESULT:      -6.6      3.289      5.083
REMARK  Name = 
REMARK  5 active torsions:
REMARK  status: ('A' for Active; 'I' for Inactive)
REMARK    1  A    between atoms: C_1  and  N_2
REMARK    2  A    between atoms: N_2  and  C_3
REMARK    3  A    between atoms: N_2  and  C_4
REMARK    4  A    between atoms: C_12  and  C_14
REMARK    5  A    between atoms: C_19  and  C_20
REMARK                            x       y       z     vdW  Elec       q    Type
REMARK                         _______ _______ _______ _____ _____    ______ ____
ROOT
ATOM      1  C   UNL     1       6.069   4.016  13.673  0.00  0.00    +0.000 A 
ATOM      2  C   UNL     1       6.725   5.211  14.060  0.00  0.00    +0.000 A 
ATOM      3  C   UNL     1       6.472   5.859  15.278  0.00  0.00    +0.000 A 
ATOM      4  C   UNL     1       5.550   5.302  16.140  0.00  0.00    +0.000 A 
ATOM      5  C   UNL     1       4.870   4.143  15.781  0.00  0.00    +0.000 A 
ATOM      6  C   UNL     1       5.106   3.509  14.567  0.00  0.00    +0.000 A 
ATOM      7  C   UNL     1       3.920   3.743  16.857  0.00  0.00    +0.000 C 
ATOM      8  N   UNL     1       4.128   4.750  17.900  0.00  0.00    +0.000 N 
ATOM      9  C   UNL     1       3.255   5.002  18.946  0.00  0.00    +0.000 C 
ATOM     10  O   UNL     1       3.387   5.992  19.668  0.00  0.00    +0.000 OA
ATOM     11  C   UNL     1       5.129   5.753  17.517  0.00  0.00    +0.000 C 
ENDROOT
BRANCH   9  12
ATOM     12  C   UNL     1       2.123   4.080  19.138  0.00  0.00    +0.000 A 
ATOM     13  C   UNL     1       1.492   3.839  20.343  0.00  0.00    +0.000 A 
ATOM     14  N   UNL     1       0.468   2.980  20.066  0.00  0.00    +0.000 N 
ATOM     15  C   UNL     1       0.520   2.696  18.732  0.00  0.00    +0.000 A 
ATOM     16  N   UNL     1       1.499   3.340  18.142  0.00  0.00    +0.000 NA
ATOM     17  H   UNL     1      -0.212   2.622  20.723  0.00  0.00    +0.000 HD
ENDBRANCH   9  12
BRANCH  11  18
ATOM     18  C   UNL     1       6.274   5.776  18.460  0.00  0.00    +0.000 A 
ATOM     19  C   UNL     1       6.659   5.034  19.554  0.00  0.00    +0.000 A 
ATOM     20  N   UNL     1       7.879   5.463  20.013  0.00  0.00    +0.000 NA
ATOM     21  C   UNL     1       8.182   6.446  19.195  0.00  0.00    +0.000 A 
ATOM     22  O   UNL     1       7.264   6.697  18.224  0.00  0.00    +0.000 OA
ENDBRANCH  11  18
BRANCH   1  24
ATOM     23  C   UNL     1       7.413   3.892  11.594  0.00  0.00    +0.000 C 
ATOM     24  N   UNL     1       6.355   3.384  12.462  0.00  0.00    +0.000 N 
ATOM     25  C   UNL     1       5.376   2.485  11.864  0.00  0.00    +0.000 C 
ENDBRANCH   1  24
TORSDOF 3
ENDMDL
MODEL 9
REMARK VINA RESULT:      -6.6      4.891      8.533
REMARK  Name = 
REMARK  5 active torsions:
REMARK  status: ('A' for Active; 'I' for Inactive)
REMARK    1  A    between atoms: C_1  and  N_2
REMARK    2  A    between atoms: N_2  and  C_3
REMARK    3  A    between atoms: N_2  and  C_4
REMARK    4  A    between atoms: C_12  and  C_14
REMARK    5  A    between atoms: C_19  and  C_20
REMARK                            x       y       z     vdW  Elec       q    Type
REMARK                         _______ _______ _______ _____ _____    ______ ____
ROOT
ATOM      1  C   UNL     1      -4.348  11.140  18.206  0.00  0.00    +0.000 A 
ATOM      2  C   UNL     1      -3.520  10.193  17.553  0.00  0.00    +0.000 A 
ATOM      3  C   UNL     1      -2.127  10.154  17.722  0.00  0.00    +0.000 A 
ATOM      4  C   UNL     1      -1.541  11.074  18.568  0.00  0.00    +0.000 A 
ATOM      5  C   UNL     1      -2.323  12.032  19.205  0.00  0.00    +0.000 A 
ATOM      6  C   UNL     1      -3.700  12.084  19.026  0.00  0.00    +0.000 A 
ATOM      7  C   UNL     1      -1.472  12.919  20.048  0.00  0.00    +0.000 C 
ATOM      8  N   UNL     1      -0.123  12.374  19.879  0.00  0.00    +0.000 N 
ATOM      9  C   UNL     1       1.049  13.044  20.191  0.00  0.00    +0.000 C 
ATOM     10  O   UNL     1       2.148  12.612  19.839  0.00  0.00    +0.000 OA
ATOM     11  C   UNL     1      -0.095  11.224  18.968  0.00  0.00    +0.000 C 
ENDROOT
BRANCH   9  12
ATOM     12  C   UNL     1       0.942  14.324  20.911  0.00  0.00    +0.000 A 
ATOM     13  C   UNL     1       0.910  15.570  20.313  0.00  0.00    +0.000 A 
ATOM     14  N   UNL     1       0.741  16.468  21.327  0.00  0.00    +0.000 N 
ATOM     15  C   UNL     1       0.710  15.767  22.497  0.00  0.00    +0.000 A 
ATOM     16  N   UNL     1       0.825  14.476  22.286  0.00  0.00    +0.000 NA
ATOM     17  H   UNL     1       0.648  17.471  21.233  0.00  0.00    +0.000 HD
ENDBRANCH   9  12
BRANCH  11  18
ATOM     18  C   UNL     1       0.418  10.003  19.637  0.00  0.00    +0.000 A 
ATOM     19  C   UNL     1       1.385   9.063  19.357  0.00  0.00    +0.000 A 
ATOM     20  N   UNL     1       1.487   8.165  20.389  0.00  0.00    +0.000 NA
ATOM     21  C   UNL     1       0.582   8.582  21.245  0.00  0.00    +0.000 A 
ATOM     22  O   UNL     1      -0.107   9.692  20.867  0.00  0.00    +0.000 OA
ENDBRANCH  11  18
BRANCH   1  24
ATOM     23  C   UNL     1      -6.395  12.263  17.374  0.00  0.00    +0.000 C 
ATOM     24  N   UNL     1      -5.733  11.141  18.032  0.00  0.00    +0.000 N 
ATOM     25  C   UNL     1      -6.565  10.251  18.833  0.00  0.00    +0.000 C 
ENDBRANCH   1  24
TORSDOF 3
ENDMDL
