MODEL 1
REMARK VINA RESULT:      -9.6      0.000      0.000
REMARK  Name = 
REMARK  4 active torsions:
REMARK  status: ('A' for Active; 'I' for Inactive)
REMARK    1  A    between atoms: C_4  and  C_5
REMARK    2  A    between atoms: C_5  and  C_18
REMARK    3  A    between atoms: N_6  and  N_7
REMARK    4  A    between atoms: N_7  and  C_8
REMARK                            x       y       z     vdW  Elec       q    Type
REMARK                         _______ _______ _______ _____ _____    ______ ____
ROOT
ATOM      1  C   UNL     1       6.150   4.370  15.920  0.00  0.00    +0.000 C 
ATOM      2  N   UNL     1       5.224   3.489  16.217  0.00  0.00    +0.000 NA
ENDROOT
BRANCH   1   6
ATOM      3  C   UNL     1       8.019   7.068  18.615  0.00  0.00    +0.000 A 
ATOM      4  C   UNL     1       8.123   5.709  18.876  0.00  0.00    +0.000 A 
ATOM      5  C   UNL     1       7.562   4.798  17.985  0.00  0.00    +0.000 A 
ATOM      6  C   UNL     1       6.862   5.280  16.882  0.00  0.00    +0.000 A 
ATOM      7  N   UNL     1       6.726   6.609  16.631  0.00  0.00    +0.000 NA
ATOM      8  C   UNL     1       7.334   7.465  17.480  0.00  0.00    +0.000 A 
ENDBRANCH   1   6
BRANCH   1   9
ATOM      9  C   UNL     1       6.556   4.451  14.476  0.00  0.00    +0.000 A 
ATOM     10  C   UNL     1       5.952   3.616  13.537  0.00  0.00    +0.000 A 
ATOM     11  C   UNL     1       6.398   3.663  12.218  0.00  0.00    +0.000 A 
ATOM     12  C   UNL     1       7.429   4.531  11.879  0.00  0.00    +0.000 A 
ATOM     13  C   UNL     1       7.989   5.309  12.880  0.00  0.00    +0.000 A 
ATOM     14  N   UNL     1       7.592   5.273  14.172  0.00  0.00    +0.000 NA
ENDBRANCH   1   9
BRANCH   2  15
ATOM     15  N   UNL     1       4.867   3.320  17.512  0.00  0.00    +0.000 N 
ATOM     16  H   UNL     1       5.403   3.827  18.219  0.00  0.00    +0.000 HD
BRANCH  15  17
ATOM     17  C   UNL     1       3.501   3.396  17.877  0.00  0.00    +0.000 A 
ATOM     18  N   UNL     1       2.676   3.855  16.901  0.00  0.00    +0.000 NA
ATOM     19  N   UNL     1       1.342   4.018  17.126  0.00  0.00    +0.000 NA
ATOM     20  C   UNL     1       0.843   3.716  18.338  0.00  0.00    +0.000 A 
ATOM     21  C   UNL     1       1.624   3.256  19.392  0.00  0.00    +0.000 A 
ATOM     22  C   UNL     1       1.051   2.958  20.646  0.00  0.00    +0.000 A 
ATOM     23  C   UNL     1       1.840   2.518  21.707  0.00  0.00    +0.000 A 
ATOM     24  C   UNL     1       3.208   2.389  21.533  0.00  0.00    +0.000 A 
ATOM     25  C   UNL     1       3.779   2.689  20.297  0.00  0.00    +0.000 A 
ATOM     26  C   UNL     1       3.007   3.106  19.178  0.00  0.00    +0.000 A 
ENDBRANCH  15  17
ENDBRANCH   2  15
TORSDOF 4
ENDMDL
MODEL 2
REMARK VINA RESULT:      -9.4      0.973      1.248
REMARK  Name = 
REMARK  4 active torsions:
REMARK  status: ('A' for Active; 'I' for Inactive)
REMARK    1  A    between atoms: C_4  and  C_5
REMARK    2  A    between atoms: C_5  and  C_18
REMARK    3  A    between atoms: N_6  and  N_7
REMARK    4  A    between atoms: N_7  and  C_8
REMARK                            x       y       z     vdW  Elec       q    Type
REMARK                         _______ _______ _______ _____ _____    ______ ____
ROOT
ATOM      1  C   UNL     1       6.214   4.433  16.059  0.00  0.00    +0.000 C 
ATOM      2  N   UNL     1       5.338   3.507  16.364  0.00  0.00    +0.000 NA
ENDROOT
BRANCH   1   6
ATOM      3  C   UNL     1       8.226   6.995  18.785  0.00  0.00    +0.000 A 
ATOM      4  C   UNL     1       7.622   7.569  17.675  0.00  0.00    +0.000 A 
ATOM      5  C   UNL     1       6.914   6.761  16.789  0.00  0.00    +0.000 A 
ATOM      6  C   UNL     1       6.879   5.387  17.013  0.00  0.00    +0.000 A 
ATOM      7  N   UNL     1       7.491   4.809  18.079  0.00  0.00    +0.000 NA
ATOM      8  C   UNL     1       8.117   5.626  18.953  0.00  0.00    +0.000 A 
ENDBRANCH   1   6
BRANCH   1   9
ATOM      9  C   UNL     1       6.613   4.527  14.613  0.00  0.00    +0.000 A 
ATOM     10  C   UNL     1       5.978   3.724  13.665  0.00  0.00    +0.000 A 
ATOM     11  C   UNL     1       6.416   3.781  12.344  0.00  0.00    +0.000 A 
ATOM     12  C   UNL     1       7.469   4.624  12.011  0.00  0.00    +0.000 A 
ATOM     13  C   UNL     1       8.059   5.369  13.020  0.00  0.00    +0.000 A 
ATOM     14  N   UNL     1       7.669   5.323  14.315  0.00  0.00    +0.000 NA
ENDBRANCH   1   9
BRANCH   2  15
ATOM     15  N   UNL     1       4.993   3.328  17.661  0.00  0.00    +0.000 N 
ATOM     16  H   UNL     1       5.732   3.410  18.361  0.00  0.00    +0.000 HD
BRANCH  15  17
ATOM     17  C   UNL     1       3.845   3.977  18.176  0.00  0.00    +0.000 A 
ATOM     18  N   UNL     1       3.434   5.058  17.464  0.00  0.00    +0.000 NA
ATOM     19  N   UNL     1       2.366   5.802  17.866  0.00  0.00    +0.000 NA
ATOM     20  C   UNL     1       1.714   5.453  18.989  0.00  0.00    +0.000 A 
ATOM     21  C   UNL     1       2.082   4.371  19.780  0.00  0.00    +0.000 A 
ATOM     22  C   UNL     1       1.365   4.051  20.952  0.00  0.00    +0.000 A 
ATOM     23  C   UNL     1       1.750   2.979  21.755  0.00  0.00    +0.000 A 
ATOM     24  C   UNL     1       2.862   2.229  21.408  0.00  0.00    +0.000 A 
ATOM     25  C   UNL     1       3.576   2.547  20.253  0.00  0.00    +0.000 A 
ATOM     26  C   UNL     1       3.198   3.609  19.386  0.00  0.00    +0.000 A 
ENDBRANCH  15  17
ENDBRANCH   2  15
TORSDOF 4
ENDMDL
MODEL 3
REMARK VINA RESULT:      -9.4      4.783      6.493
REMARK  Name = 
REMARK  4 active torsions:
REMARK  status: ('A' for Active; 'I' for Inactive)
REMARK    1  A    between atoms: C_4  and  C_5
REMARK    2  A    between atoms: C_5  and  C_18
REMARK    3  A    between atoms: N_6  and  N_7
REMARK    4  A    between atoms: N_7  and  C_8
REMARK                            x       y       z     vdW  Elec       q    Type
REMARK                         _______ _______ _______ _____ _____    ______ ____
ROOT
ATOM      1  C   UNL     1       3.082   5.906  18.900  0.00  0.00    +0.000 C 
ATOM      2  N   UNL     1       2.942   7.184  19.160  0.00  0.00    +0.000 NA
ENDROOT
BRANCH   1   6
ATOM      3  C   UNL     1       1.166   2.796  21.067  0.00  0.00    +0.000 A 
ATOM      4  C   UNL     1       0.785   3.002  19.748  0.00  0.00    +0.000 A 
ATOM      5  C   UNL     1       1.429   3.982  18.997  0.00  0.00    +0.000 A 
ATOM      6  C   UNL     1       2.402   4.768  19.611  0.00  0.00    +0.000 A 
ATOM      7  N   UNL     1       2.762   4.597  20.909  0.00  0.00    +0.000 NA
ATOM      8  C   UNL     1       2.163   3.598  21.592  0.00  0.00    +0.000 A 
ENDBRANCH   1   6
BRANCH   1   9
ATOM      9  C   UNL     1       3.991   5.551  17.758  0.00  0.00    +0.000 A 
ATOM     10  C   UNL     1       4.435   6.547  16.889  0.00  0.00    +0.000 A 
ATOM     11  C   UNL     1       5.219   6.179  15.799  0.00  0.00    +0.000 A 
ATOM     12  C   UNL     1       5.530   4.839  15.605  0.00  0.00    +0.000 A 
ATOM     13  C   UNL     1       5.027   3.911  16.504  0.00  0.00    +0.000 A 
ATOM     14  N   UNL     1       4.248   4.234  17.561  0.00  0.00    +0.000 NA
ENDBRANCH   1   9
BRANCH   2  15
ATOM     15  N   UNL     1       2.081   7.569  20.132  0.00  0.00    +0.000 N 
ATOM     16  H   UNL     1       2.424   7.568  21.093  0.00  0.00    +0.000 HD
BRANCH  15  17
ATOM     17  C   UNL     1       1.308   8.742  19.957  0.00  0.00    +0.000 A 
ATOM     18  N   UNL     1       1.360   9.278  18.710  0.00  0.00    +0.000 NA
ATOM     19  N   UNL     1       0.697  10.429  18.411  0.00  0.00    +0.000 NA
ATOM     20  C   UNL     1      -0.020  11.039  19.372  0.00  0.00    +0.000 A 
ATOM     21  C   UNL     1      -0.111  10.561  20.675  0.00  0.00    +0.000 A 
ATOM     22  C   UNL     1      -0.873  11.242  21.647  0.00  0.00    +0.000 A 
ATOM     23  C   UNL     1      -0.944  10.773  22.957  0.00  0.00    +0.000 A 
ATOM     24  C   UNL     1      -0.242   9.634  23.314  0.00  0.00    +0.000 A 
ATOM     25  C   UNL     1       0.518   8.962  22.357  0.00  0.00    +0.000 A 
ATOM     26  C   UNL     1       0.590   9.385  21.001  0.00  0.00    +0.000 A 
ENDBRANCH  15  17
ENDBRANCH   2  15
TORSDOF 4
ENDMDL
MODEL 4
REMARK VINA RESULT:      -9.4      1.348      1.763
REMARK  Name = 
REMARK  4 active torsions:
REMARK  status: ('A' for Active; 'I' for Inactive)
REMARK    1  A    between atoms: C_4  and  C_5
REMARK    2  A    between atoms: C_5  and  C_18
REMARK    3  A    between atoms: N_6  and  N_7
REMARK    4  A    between atoms: N_7  and  C_8
REMARK                            x       y       z     vdW  Elec       q    Type
REMARK                         _______ _______ _______ _____ _____    ______ ____
ROOT
ATOM      1  C   UNL     1       6.295   4.603  16.161  0.00  0.00    +0.000 C 
ATOM      2  N   UNL     1       5.507   3.640  16.575  0.00  0.00    +0.000 NA
ENDROOT
BRANCH   1   6
ATOM      3  C   UNL     1       8.205   7.515  18.592  0.00  0.00    +0.000 A 
ATOM      4  C   UNL     1       7.523   7.952  17.466  0.00  0.00    +0.000 A 
ATOM      5  C   UNL     1       6.846   7.026  16.676  0.00  0.00    +0.000 A 
ATOM      6  C   UNL     1       6.920   5.676  17.009  0.00  0.00    +0.000 A 
ATOM      7  N   UNL     1       7.610   5.232  18.091  0.00  0.00    +0.000 NA
ATOM      8  C   UNL     1       8.203   6.160  18.872  0.00  0.00    +0.000 A 
ENDBRANCH   1   6
BRANCH   1   9
ATOM      9  C   UNL     1       6.627   4.611  14.695  0.00  0.00    +0.000 A 
ATOM     10  C   UNL     1       5.934   3.774  13.822  0.00  0.00    +0.000 A 
ATOM     11  C   UNL     1       6.311   3.751  12.481  0.00  0.00    +0.000 A 
ATOM     12  C   UNL     1       7.363   4.553  12.056  0.00  0.00    +0.000 A 
ATOM     13  C   UNL     1       8.013   5.337  12.996  0.00  0.00    +0.000 A 
ATOM     14  N   UNL     1       7.684   5.368  14.307  0.00  0.00    +0.000 NA
ENDBRANCH   1   9
BRANCH   2  15
ATOM     15  N   UNL     1       5.229   3.538  17.896  0.00  0.00    +0.000 N 
ATOM     16  H   UNL     1       5.561   4.286  18.507  0.00  0.00    +0.000 HD
BRANCH  15  17
ATOM     17  C   UNL     1       3.919   3.200  18.311  0.00  0.00    +0.000 A 
ATOM     18  N   UNL     1       3.459   2.014  17.836  0.00  0.00    +0.000 NA
ATOM     19  N   UNL     1       2.200   1.581  18.122  0.00  0.00    +0.000 NA
ATOM     20  C   UNL     1       1.404   2.348  18.889  0.00  0.00    +0.000 A 
ATOM     21  C   UNL     1       1.795   3.580  19.401  0.00  0.00    +0.000 A 
ATOM     22  C   UNL     1       0.920   4.347  20.197  0.00  0.00    +0.000 A 
ATOM     23  C   UNL     1       1.307   5.592  20.689  0.00  0.00    +0.000 A 
ATOM     24  C   UNL     1       2.561   6.091  20.378  0.00  0.00    +0.000 A 
ATOM     25  C   UNL     1       3.427   5.337  19.586  0.00  0.00    +0.000 A 
ATOM     26  C   UNL     1       3.087   4.048  19.092  0.00  0.00    +0.000 A 
ENDBRANCH  15  17
ENDBRANCH   2  15
TORSDOF 4
ENDMDL
MODEL 5
REMARK VINA RESULT:      -9.2      1.059      1.525
REMARK  Name = 
REMARK  4 active torsions:
REMARK  status: ('A' for Active; 'I' for Inactive)
REMARK    1  A    between atoms: C_4  and  C_5
REMARK    2  A    between atoms: C_5  and  C_18
REMARK    3  A    between atoms: N_6  and  N_7
REMARK    4  A    between atoms: N_7  and  C_8
REMARK                            x       y       z     vdW  Elec       q    Type
REMARK                         _______ _______ _______ _____ _____    ______ ____
ROOT
ATOM      1  C   UNL     1       5.751   5.102  15.701  0.00  0.00    +0.000 C 
ATOM      2  N   UNL     1       4.500   4.746  15.865  0.00  0.00    +0.000 NA
ENDROOT
BRANCH   1   6
ATOM      3  C   UNL     1       8.163   7.016  18.627  0.00  0.00    +0.000 A 
ATOM      4  C   UNL     1       8.053   5.634  18.676  0.00  0.00    +0.000 A 
ATOM      5  C   UNL     1       7.308   4.974  17.701  0.00  0.00    +0.000 A 
ATOM      6  C   UNL     1       6.647   5.727  16.734  0.00  0.00    +0.000 A 
ATOM      7  N   UNL     1       6.722   7.083  16.694  0.00  0.00    +0.000 NA
ATOM      8  C   UNL     1       7.502   7.689  17.614  0.00  0.00    +0.000 A 
ENDBRANCH   1   6
BRANCH   1   9
ATOM      9  C   UNL     1       6.353   4.829  14.352  0.00  0.00    +0.000 A 
ATOM     10  C   UNL     1       5.797   3.850  13.530  0.00  0.00    +0.000 A 
ATOM     11  C   UNL     1       6.418   3.569  12.315  0.00  0.00    +0.000 A 
ATOM     12  C   UNL     1       7.568   4.262  11.962  0.00  0.00    +0.000 A 
ATOM     13  C   UNL     1       8.067   5.203  12.849  0.00  0.00    +0.000 A 
ATOM     14  N   UNL     1       7.499   5.486  14.043  0.00  0.00    +0.000 NA
ENDBRANCH   1   9
BRANCH   2  15
ATOM     15  N   UNL     1       3.924   4.902  17.080  0.00  0.00    +0.000 N 
ATOM     16  H   UNL     1       3.144   5.557  17.152  0.00  0.00    +0.000 HD
BRANCH  15  17
ATOM     17  C   UNL     1       3.595   3.761  17.851  0.00  0.00    +0.000 A 
ATOM     18  N   UNL     1       4.038   2.583  17.341  0.00  0.00    +0.000 NA
ATOM     19  N   UNL     1       3.759   1.400  17.956  0.00  0.00    +0.000 NA
ATOM     20  C   UNL     1       3.032   1.409  19.088  0.00  0.00    +0.000 A 
ATOM     21  C   UNL     1       2.530   2.570  19.664  0.00  0.00    +0.000 A 
ATOM     22  C   UNL     1       1.769   2.523  20.850  0.00  0.00    +0.000 A 
ATOM     23  C   UNL     1       1.249   3.687  21.412  0.00  0.00    +0.000 A 
ATOM     24  C   UNL     1       1.466   4.904  20.789  0.00  0.00    +0.000 A 
ATOM     25  C   UNL     1       2.213   4.953  19.612  0.00  0.00    +0.000 A 
ATOM     26  C   UNL     1       2.793   3.796  19.023  0.00  0.00    +0.000 A 
ENDBRANCH  15  17
ENDBRANCH   2  15
TORSDOF 4
ENDMDL
MODEL 6
REMARK VINA RESULT:      -9.1      4.325      6.033
REMARK  Name = 
REMARK  4 active torsions:
REMARK  status: ('A' for Active; 'I' for Inactive)
REMARK    1  A    between atoms: C_4  and  C_5
REMARK    2  A    between atoms: C_5  and  C_18
REMARK    3  A    between atoms: N_6  and  N_7
REMARK    4  A    between atoms: N_7  and  C_8
REMARK                            x       y       z     vdW  Elec       q    Type
REMARK                         _______ _______ _______ _____ _____    ______ ____
ROOT
ATOM      1  C   UNL     1       3.752   5.393  18.811  0.00  0.00    +0.000 C 
ATOM      2  N   UNL     1       3.628   6.628  19.235  0.00  0.00    +0.000 NA
ENDROOT
BRANCH   1   6
ATOM      3  C   UNL     1       1.098   2.229  19.802  0.00  0.00    +0.000 A 
ATOM      4  C   UNL     1       1.030   2.760  18.522  0.00  0.00    +0.000 A 
ATOM      5  C   UNL     1       1.920   3.765  18.152  0.00  0.00    +0.000 A 
ATOM      6  C   UNL     1       2.819   4.249  19.099  0.00  0.00    +0.000 A 
ATOM      7  N   UNL     1       2.875   3.759  20.365  0.00  0.00    +0.000 NA
ATOM      8  C   UNL     1       2.042   2.743  20.674  0.00  0.00    +0.000 A 
ENDBRANCH   1   6
BRANCH   1   9
ATOM      9  C   UNL     1       4.931   5.105  17.926  0.00  0.00    +0.000 A 
ATOM     10  C   UNL     1       4.735   4.872  16.565  0.00  0.00    +0.000 A 
ATOM     11  C   UNL     1       5.837   4.538  15.781  0.00  0.00    +0.000 A 
ATOM     12  C   UNL     1       7.090   4.441  16.374  0.00  0.00    +0.000 A 
ATOM     13  C   UNL     1       7.191   4.665  17.738  0.00  0.00    +0.000 A 
ATOM     14  N   UNL     1       6.138   4.973  18.529  0.00  0.00    +0.000 NA
ENDBRANCH   1   9
BRANCH   2  15
ATOM     15  N   UNL     1       2.547   6.964  19.978  0.00  0.00    +0.000 N 
ATOM     16  H   UNL     1       2.651   6.951  20.993  0.00  0.00    +0.000 HD
BRANCH  15  17
ATOM     17  C   UNL     1       1.798   8.117  19.641  0.00  0.00    +0.000 A 
ATOM     18  N   UNL     1       1.884   8.492  18.339  0.00  0.00    +0.000 NA
ATOM     19  N   UNL     1       1.247   9.606  17.883  0.00  0.00    +0.000 NA
ATOM     20  C   UNL     1       0.522  10.342  18.745  0.00  0.00    +0.000 A 
ATOM     21  C   UNL     1       0.397  10.033  20.094  0.00  0.00    +0.000 A 
ATOM     22  C   UNL     1      -0.373  10.841  20.956  0.00  0.00    +0.000 A 
ATOM     23  C   UNL     1      -0.478  10.542  22.313  0.00  0.00    +0.000 A 
ATOM     24  C   UNL     1       0.198   9.446  22.826  0.00  0.00    +0.000 A 
ATOM     25  C   UNL     1       0.964   8.649  21.977  0.00  0.00    +0.000 A 
ATOM     26  C   UNL     1       1.070   8.897  20.580  0.00  0.00    +0.000 A 
ENDBRANCH  15  17
ENDBRANCH   2  15
TORSDOF 4
ENDMDL
MODEL 7
REMARK VINA RESULT:      -9.1      4.777      6.492
REMARK  Name = 
REMARK  4 active torsions:
REMARK  status: ('A' for Active; 'I' for Inactive)
REMARK    1  A    between atoms: C_4  and  C_5
REMARK    2  A    between atoms: C_5  and  C_18
REMARK    3  A    between atoms: N_6  and  N_7
REMARK    4  A    between atoms: N_7  and  C_8
REMARK                            x       y       z     vdW  Elec       q    Type
REMARK                         _______ _______ _______ _____ _____    ______ ____
ROOT
ATOM      1  C   UNL     1       3.287   5.927  19.071  0.00  0.00    +0.000 C 
ATOM      2  N   UNL     1       3.074   7.183  19.378  0.00  0.00    +0.000 NA
ENDROOT
BRANCH   1   6
ATOM      3  C   UNL     1       1.094   2.665  20.681  0.00  0.00    +0.000 A 
ATOM      4  C   UNL     1       1.044   2.871  19.309  0.00  0.00    +0.000 A 
ATOM      5  C   UNL     1       1.791   3.902  18.746  0.00  0.00    +0.000 A 
ATOM      6  C   UNL     1       2.525   4.736  19.585  0.00  0.00    +0.000 A 
ATOM      7  N   UNL     1       2.558   4.565  20.933  0.00  0.00    +0.000 NA
ATOM      8  C   UNL     1       1.874   3.519  21.441  0.00  0.00    +0.000 A 
ENDBRANCH   1   6
BRANCH   1   9
ATOM      9  C   UNL     1       4.385   5.658  18.081  0.00  0.00    +0.000 A 
ATOM     10  C   UNL     1       5.465   4.854  18.445  0.00  0.00    +0.000 A 
ATOM     11  C   UNL     1       6.502   4.679  17.531  0.00  0.00    +0.000 A 
ATOM     12  C   UNL     1       6.435   5.311  16.296  0.00  0.00    +0.000 A 
ATOM     13  C   UNL     1       5.337   6.112  16.026  0.00  0.00    +0.000 A 
ATOM     14  N   UNL     1       4.323   6.316  16.897  0.00  0.00    +0.000 NA
ENDBRANCH   1   9
BRANCH   2  15
ATOM     15  N   UNL     1       2.052   7.493  20.211  0.00  0.00    +0.000 N 
ATOM     16  H   UNL     1       2.222   7.421  21.215  0.00  0.00    +0.000 HD
BRANCH  15  17
ATOM     17  C   UNL     1       1.303   8.675  19.990  0.00  0.00    +0.000 A 
ATOM     18  N   UNL     1       1.385   9.174  18.730  0.00  0.00    +0.000 NA
ATOM     19  N   UNL     1       0.749  10.328  18.387  0.00  0.00    +0.000 NA
ATOM     20  C   UNL     1       0.029  10.979  19.319  0.00  0.00    +0.000 A 
ATOM     21  C   UNL     1      -0.091  10.541  20.633  0.00  0.00    +0.000 A 
ATOM     22  C   UNL     1      -0.855  11.263  21.572  0.00  0.00    +0.000 A 
ATOM     23  C   UNL     1      -0.955  10.834  22.894  0.00  0.00    +0.000 A 
ATOM     24  C   UNL     1      -0.281   9.692  23.295  0.00  0.00    +0.000 A 
ATOM     25  C   UNL     1       0.480   8.979  22.370  0.00  0.00    +0.000 A 
ATOM     26  C   UNL     1       0.581   9.361  21.004  0.00  0.00    +0.000 A 
ENDBRANCH  15  17
ENDBRANCH   2  15
TORSDOF 4
ENDMDL
MODEL 8
REMARK VINA RESULT:      -9.0      4.677      6.388
REMARK  Name = 
REMARK  4 active torsions:
REMARK  status: ('A' for Active; 'I' for Inactive)
REMARK    1  A    between atoms: C_4  and  C_5
REMARK    2  A    between atoms: C_5  and  C_18
REMARK    3  A    between atoms: N_6  and  N_7
REMARK    4  A    between atoms: N_7  and  C_8
REMARK                            x       y       z     vdW  Elec       q    Type
REMARK                         _______ _______ _______ _____ _____    ______ ____
ROOT
ATOM      1  C   UNL     1       3.318   6.126  18.274  0.00  0.00    +0.000 C 
ATOM      2  N   UNL     1       2.974   7.389  18.202  0.00  0.00    +0.000 NA
ENDROOT
BRANCH   1   6
ATOM      3  C   UNL     1       0.851   3.058  19.870  0.00  0.00    +0.000 A 
ATOM      4  C   UNL     1       1.146   3.018  18.514  0.00  0.00    +0.000 A 
ATOM      5  C   UNL     1       1.992   3.982  17.972  0.00  0.00    +0.000 A 
ATOM      6  C   UNL     1       2.473   4.996  18.797  0.00  0.00    +0.000 A 
ATOM      7  N   UNL     1       2.167   5.064  20.118  0.00  0.00    +0.000 NA
ATOM      8  C   UNL     1       1.396   4.080  20.627  0.00  0.00    +0.000 A 
ENDBRANCH   1   6
BRANCH   1   9
ATOM      9  C   UNL     1       4.682   5.773  17.753  0.00  0.00    +0.000 A 
ATOM     10  C   UNL     1       4.980   5.963  16.404  0.00  0.00    +0.000 A 
ATOM     11  C   UNL     1       6.229   5.561  15.935  0.00  0.00    +0.000 A 
ATOM     12  C   UNL     1       7.133   4.982  16.817  0.00  0.00    +0.000 A 
ATOM     13  C   UNL     1       6.746   4.809  18.137  0.00  0.00    +0.000 A 
ATOM     14  N   UNL     1       5.536   5.171  18.619  0.00  0.00    +0.000 NA
ENDBRANCH   1   9
BRANCH   2  15
ATOM     15  N   UNL     1       1.730   7.757  18.590  0.00  0.00    +0.000 N 
ATOM     16  H   UNL     1       1.248   7.156  19.260  0.00  0.00    +0.000 HD
BRANCH  15  17
ATOM     17  C   UNL     1       1.483   9.099  18.966  0.00  0.00    +0.000 A 
ATOM     18  N   UNL     1       1.967  10.031  18.106  0.00  0.00    +0.000 NA
ATOM     19  N   UNL     1       1.838  11.362  18.362  0.00  0.00    +0.000 NA
ATOM     20  C   UNL     1       1.217  11.752  19.490  0.00  0.00    +0.000 A 
ATOM     21  C   UNL     1       0.707  10.860  20.427  0.00  0.00    +0.000 A 
ATOM     22  C   UNL     1       0.068  11.322  21.597  0.00  0.00    +0.000 A 
ATOM     23  C   UNL     1      -0.422  10.427  22.545  0.00  0.00    +0.000 A 
ATOM     24  C   UNL     1      -0.263   9.065  22.346  0.00  0.00    +0.000 A 
ATOM     25  C   UNL     1       0.373   8.606  21.194  0.00  0.00    +0.000 A 
ATOM     26  C   UNL     1       0.857   9.482  20.183  0.00  0.00    +0.000 A 
ENDBRANCH  15  17
ENDBRANCH   2  15
TORSDOF 4
ENDMDL
MODEL 9
REMARK VINA RESULT:      -8.9      1.562      1.917
REMARK  Name = 
REMARK  4 active torsions:
REMARK  status: ('A' for Active; 'I' for Inactive)
REMARK    1  A    between atoms: C_4  and  C_5
REMARK    2  A    between atoms: C_5  and  C_18
REMARK    3  A    between atoms: N_6  and  N_7
REMARK    4  A    between atoms: N_7  and  C_8
REMARK                            x       y       z     vdW  Elec       q    Type
REMARK                         _______ _______ _______ _____ _____    ______ ____
ROOT
ATOM      1  C   UNL     1       6.390   4.734  16.376  0.00  0.00    +0.000 C 
ATOM      2  N   UNL     1       5.654   3.768  16.871  0.00  0.00    +0.000 NA
ENDROOT
BRANCH   1   6
ATOM      3  C   UNL     1       8.304   7.818  18.582  0.00  0.00    +0.000 A 
ATOM      4  C   UNL     1       7.599   8.174  17.441  0.00  0.00    +0.000 A 
ATOM      5  C   UNL     1       6.921   7.192  16.724  0.00  0.00    +0.000 A 
ATOM      6  C   UNL     1       7.016   5.867  17.142  0.00  0.00    +0.000 A 
ATOM      7  N   UNL     1       7.728   5.501  18.240  0.00  0.00    +0.000 NA
ATOM      8  C   UNL     1       8.322   6.484  18.949  0.00  0.00    +0.000 A 
ENDBRANCH   1   6
BRANCH   1   9
ATOM      9  C   UNL     1       6.657   4.681  14.898  0.00  0.00    +0.000 A 
ATOM     10  C   UNL     1       5.902   3.834  14.088  0.00  0.00    +0.000 A 
ATOM     11  C   UNL     1       6.217   3.753  12.733  0.00  0.00    +0.000 A 
ATOM     12  C   UNL     1       7.271   4.508  12.233  0.00  0.00    +0.000 A 
ATOM     13  C   UNL     1       7.985   5.306  13.114  0.00  0.00    +0.000 A 
ATOM     14  N   UNL     1       7.715   5.392  14.437  0.00  0.00    +0.000 NA
ENDBRANCH   1   9
BRANCH   2  15
ATOM     15  N   UNL     1       5.439   3.723  18.207  0.00  0.00    +0.000 N 
ATOM     16  H   UNL     1       6.207   4.002  18.819  0.00  0.00    +0.000 HD
BRANCH  15  17
ATOM     17  C   UNL     1       4.248   4.272  18.743  0.00  0.00    +0.000 A 
ATOM     18  N   UNL     1       4.360   5.549  19.190  0.00  0.00    +0.000 NA
ATOM     19  N   UNL     1       3.304   6.187  19.767  0.00  0.00    +0.000 NA
ATOM     20  C   UNL     1       2.135   5.535  19.892  0.00  0.00    +0.000 A 
ATOM     21  C   UNL     1       1.945   4.223  19.473  0.00  0.00    +0.000 A 
ATOM     22  C   UNL     1       0.698   3.583  19.631  0.00  0.00    +0.000 A 
ATOM     23  C   UNL     1       0.518   2.260  19.231  0.00  0.00    +0.000 A 
ATOM     24  C   UNL     1       1.581   1.559  18.687  0.00  0.00    +0.000 A 
ATOM     25  C   UNL     1       2.817   2.188  18.535  0.00  0.00    +0.000 A 
ATOM     26  C   UNL     1       3.036   3.545  18.897  0.00  0.00    +0.000 A 
ENDBRANCH  15  17
ENDBRANCH   2  15
TORSDOF 4
ENDMDL
