MODEL 1
REMARK VINA RESULT:      -6.7      0.000      0.000
REMARK  Name = 
REMARK  5 active torsions:
REMARK  status: ('A' for Active; 'I' for Inactive)
REMARK    1  A    between atoms: C_1  and  C_2
REMARK    2  A    between atoms: C_3  and  C_4
REMARK    3  A    between atoms: C_4  and  O_5
REMARK    4  A    between atoms: O_5  and  N_6
REMARK    5  A    between atoms: N_14  and  C_15
REMARK                            x       y       z     vdW  Elec       q    Type
REMARK                         _______ _______ _______ _____ _____    ______ ____
ROOT
ATOM      1  N   UNL     1       5.786   3.762  19.097  0.00  0.00    +0.000 NA
ATOM      2  C   UNL     1       4.595   3.802  18.535  0.00  0.00    +0.000 C 
ATOM      3  C   UNL     1       3.929   5.013  17.911  0.00  0.00    +0.000 C 
ATOM      4  C   UNL     1       2.470   5.077  18.454  0.00  0.00    +0.000 C 
ATOM      5  C   UNL     1       1.414   4.215  17.724  0.00  0.00    +0.000 C 
ATOM      6  C   UNL     1       1.262   2.920  18.541  0.00  0.00    +0.000 C 
ATOM      7  C   UNL     1       2.493   2.978  19.434  0.00  0.00    +0.000 C 
ATOM      8  C   UNL     1       3.727   2.589  18.567  0.00  0.00    +0.000 C 
ATOM      9  N   UNL     1       2.504   4.438  19.798  0.00  0.00    +0.000 NA
ATOM     10  C   UNL     1       1.379   4.942  20.601  0.00  0.00    +0.000 C 
ENDROOT
BRANCH   1  11
ATOM     11  O   UNL     1       6.363   5.032  19.201  0.00  0.00    +0.000 OA
BRANCH  11  12
ATOM     12  C   UNL     1       7.526   5.152  18.351  0.00  0.00    +0.000 C 
BRANCH  12  15
ATOM     13  C   UNL     1       8.326   9.410  18.036  0.00  0.00    +0.000 C 
ATOM     14  C   UNL     1       8.046   7.920  18.146  0.00  0.00    +0.000 C 
ATOM     15  C   UNL     1       7.806   6.642  18.241  0.00  0.00    +0.000 C 
ENDBRANCH  12  15
ENDBRANCH  11  12
ENDBRANCH   1  11
TORSDOF 3
ENDMDL
MODEL 2
REMARK VINA RESULT:      -6.6      1.777      2.518
REMARK  Name = 
REMARK  5 active torsions:
REMARK  status: ('A' for Active; 'I' for Inactive)
REMARK    1  A    between atoms: C_1  and  C_2
REMARK    2  A    between atoms: C_3  and  C_4
REMARK    3  A    between atoms: C_4  and  O_5
REMARK    4  A    between atoms: O_5  and  N_6
REMARK    5  A    between atoms: N_14  and  C_15
REMARK                            x       y       z     vdW  Elec       q    Type
REMARK                         _______ _______ _______ _____ _____    ______ ____
ROOT
ATOM      1  N   UNL     1       5.793   3.850  19.032  0.00  0.00    +0.000 NA
ATOM      2  C   UNL     1       4.530   3.596  18.754  0.00  0.00    +0.000 C 
ATOM      3  C   UNL     1       3.635   4.381  17.816  0.00  0.00    +0.000 C 
ATOM      4  C   UNL     1       2.285   4.629  18.553  0.00  0.00    +0.000 C 
ATOM      5  C   UNL     1       1.234   3.498  18.488  0.00  0.00    +0.000 C 
ATOM      6  C   UNL     1       1.369   2.695  19.795  0.00  0.00    +0.000 C 
ATOM      7  C   UNL     1       2.713   3.185  20.314  0.00  0.00    +0.000 C 
ATOM      8  C   UNL     1       3.827   2.494  19.473  0.00  0.00    +0.000 C 
ATOM      9  N   UNL     1       2.611   4.654  20.006  0.00  0.00    +0.000 NA
ATOM     10  C   UNL     1       1.578   5.424  20.718  0.00  0.00    +0.000 C 
ENDROOT
BRANCH   1  11
ATOM     11  O   UNL     1       6.226   5.053  18.465  0.00  0.00    +0.000 OA
BRANCH  11  12
ATOM     12  C   UNL     1       7.436   4.867  17.698  0.00  0.00    +0.000 C 
BRANCH  12  15
ATOM     13  C   UNL     1       6.147   3.892  13.666  0.00  0.00    +0.000 C 
ATOM     14  C   UNL     1       6.598   4.233  15.077  0.00  0.00    +0.000 C 
ATOM     15  C   UNL     1       6.985   4.526  16.288  0.00  0.00    +0.000 C 
ENDBRANCH  12  15
ENDBRANCH  11  12
ENDBRANCH   1  11
TORSDOF 3
ENDMDL
MODEL 3
REMARK VINA RESULT:      -6.5      2.795      3.621
REMARK  Name = 
REMARK  5 active torsions:
REMARK  status: ('A' for Active; 'I' for Inactive)
REMARK    1  A    between atoms: C_1  and  C_2
REMARK    2  A    between atoms: C_3  and  C_4
REMARK    3  A    between atoms: C_4  and  O_5
REMARK    4  A    between atoms: O_5  and  N_6
REMARK    5  A    between atoms: N_14  and  C_15
REMARK                            x       y       z     vdW  Elec       q    Type
REMARK                         _______ _______ _______ _____ _____    ______ ____
ROOT
ATOM      1  N   UNL     1       4.822   3.687  17.425  0.00  0.00    +0.000 NA
ATOM      2  C   UNL     1       3.683   3.274  17.943  0.00  0.00    +0.000 C 
ATOM      3  C   UNL     1       2.290   3.651  17.481  0.00  0.00    +0.000 C 
ATOM      4  C   UNL     1       1.464   4.035  18.745  0.00  0.00    +0.000 C 
ATOM      5  C   UNL     1       0.808   2.877  19.530  0.00  0.00    +0.000 C 
ATOM      6  C   UNL     1       1.749   2.551  20.705  0.00  0.00    +0.000 C 
ATOM      7  C   UNL     1       3.021   3.271  20.281  0.00  0.00    +0.000 C 
ATOM      8  C   UNL     1       3.699   2.420  19.167  0.00  0.00    +0.000 C 
ATOM      9  N   UNL     1       2.449   4.551  19.736  0.00  0.00    +0.000 NA
ATOM     10  C   UNL     1       1.758   5.440  20.684  0.00  0.00    +0.000 C 
ENDROOT
BRANCH   1  11
ATOM     11  O   UNL     1       4.632   4.667  16.446  0.00  0.00    +0.000 OA
BRANCH  11  12
ATOM     12  C   UNL     1       5.881   5.033  15.818  0.00  0.00    +0.000 C 
BRANCH  12  15
ATOM     13  C   UNL     1       5.901   3.025  11.965  0.00  0.00    +0.000 C 
ATOM     14  C   UNL     1       5.894   3.727  13.314  0.00  0.00    +0.000 C 
ATOM     15  C   UNL     1       5.887   4.330  14.470  0.00  0.00    +0.000 C 
ENDBRANCH  12  15
ENDBRANCH  11  12
ENDBRANCH   1  11
TORSDOF 3
ENDMDL
MODEL 4
REMARK VINA RESULT:      -6.5      2.755      3.646
REMARK  Name = 
REMARK  5 active torsions:
REMARK  status: ('A' for Active; 'I' for Inactive)
REMARK    1  A    between atoms: C_1  and  C_2
REMARK    2  A    between atoms: C_3  and  C_4
REMARK    3  A    between atoms: C_4  and  O_5
REMARK    4  A    between atoms: O_5  and  N_6
REMARK    5  A    between atoms: N_14  and  C_15
REMARK                            x       y       z     vdW  Elec       q    Type
REMARK                         _______ _______ _______ _____ _____    ______ ____
ROOT
ATOM      1  N   UNL     1       4.105   4.069  16.762  0.00  0.00    +0.000 NA
ATOM      2  C   UNL     1       3.315   4.494  17.728  0.00  0.00    +0.000 C 
ATOM      3  C   UNL     1       3.706   5.381  18.892  0.00  0.00    +0.000 C 
ATOM      4  C   UNL     1       3.125   4.739  20.188  0.00  0.00    +0.000 C 
ATOM      5  C   UNL     1       1.654   5.065  20.531  0.00  0.00    +0.000 C 
ATOM      6  C   UNL     1       0.809   3.885  20.017  0.00  0.00    +0.000 C 
ATOM      7  C   UNL     1       1.799   3.181  19.100  0.00  0.00    +0.000 C 
ATOM      8  C   UNL     1       1.904   4.012  17.787  0.00  0.00    +0.000 C 
ATOM      9  N   UNL     1       3.055   3.275  19.923  0.00  0.00    +0.000 NA
ATOM     10  C   UNL     1       3.080   2.552  21.204  0.00  0.00    +0.000 C 
ENDROOT
BRANCH   1  11
ATOM     11  O   UNL     1       5.443   4.411  16.988  0.00  0.00    +0.000 OA
BRANCH  11  12
ATOM     12  C   UNL     1       5.920   5.349  15.998  0.00  0.00    +0.000 C 
BRANCH  12  15
ATOM     13  C   UNL     1       5.927   3.190  12.228  0.00  0.00    +0.000 C 
ATOM     14  C   UNL     1       5.924   3.945  13.547  0.00  0.00    +0.000 C 
ATOM     15  C   UNL     1       5.922   4.594  14.679  0.00  0.00    +0.000 C 
ENDBRANCH  12  15
ENDBRANCH  11  12
ENDBRANCH   1  11
TORSDOF 3
ENDMDL
MODEL 5
REMARK VINA RESULT:      -6.5      1.358      1.616
REMARK  Name = 
REMARK  5 active torsions:
REMARK  status: ('A' for Active; 'I' for Inactive)
REMARK    1  A    between atoms: C_1  and  C_2
REMARK    2  A    between atoms: C_3  and  C_4
REMARK    3  A    between atoms: C_4  and  O_5
REMARK    4  A    between atoms: O_5  and  N_6
REMARK    5  A    between atoms: N_14  and  C_15
REMARK                            x       y       z     vdW  Elec       q    Type
REMARK                         _______ _______ _______ _____ _____    ______ ____
ROOT
ATOM      1  N   UNL     1       4.772   3.763  17.365  0.00  0.00    +0.000 NA
ATOM      2  C   UNL     1       3.629   4.021  17.969  0.00  0.00    +0.000 C 
ATOM      3  C   UNL     1       3.377   5.098  19.005  0.00  0.00    +0.000 C 
ATOM      4  C   UNL     1       2.593   4.443  20.181  0.00  0.00    +0.000 C 
ATOM      5  C   UNL     1       1.059   4.339  20.027  0.00  0.00    +0.000 C 
ATOM      6  C   UNL     1       0.761   2.913  19.529  0.00  0.00    +0.000 C 
ATOM      7  C   UNL     1       2.142   2.455  19.081  0.00  0.00    +0.000 C 
ATOM      8  C   UNL     1       2.450   3.141  17.718  0.00  0.00    +0.000 C 
ATOM      9  N   UNL     1       2.993   3.009  20.191  0.00  0.00    +0.000 NA
ATOM     10  C   UNL     1       2.785   2.460  21.541  0.00  0.00    +0.000 C 
ENDROOT
BRANCH   1  11
ATOM     11  O   UNL     1       5.828   4.515  17.889  0.00  0.00    +0.000 OA
BRANCH  11  12
ATOM     12  C   UNL     1       6.757   4.908  16.855  0.00  0.00    +0.000 C 
BRANCH  12  15
ATOM     13  C   UNL     1       8.117   8.889  17.939  0.00  0.00    +0.000 C 
ATOM     14  C   UNL     1       7.641   7.496  17.560  0.00  0.00    +0.000 C 
ATOM     15  C   UNL     1       7.233   6.301  17.234  0.00  0.00    +0.000 C 
ENDBRANCH  12  15
ENDBRANCH  11  12
ENDBRANCH   1  11
TORSDOF 3
ENDMDL
MODEL 6
REMARK VINA RESULT:      -6.5      2.700      3.799
REMARK  Name = 
REMARK  5 active torsions:
REMARK  status: ('A' for Active; 'I' for Inactive)
REMARK    1  A    between atoms: C_1  and  C_2
REMARK    2  A    between atoms: C_3  and  C_4
REMARK    3  A    between atoms: C_4  and  O_5
REMARK    4  A    between atoms: O_5  and  N_6
REMARK    5  A    between atoms: N_14  and  C_15
REMARK                            x       y       z     vdW  Elec       q    Type
REMARK                         _______ _______ _______ _____ _____    ______ ____
ROOT
ATOM      1  N   UNL     1       4.773   5.087  17.798  0.00  0.00    +0.000 NA
ATOM      2  C   UNL     1       4.255   4.546  18.882  0.00  0.00    +0.000 C 
ATOM      3  C   UNL     1       4.455   3.124  19.368  0.00  0.00    +0.000 C 
ATOM      4  C   UNL     1       3.053   2.552  19.737  0.00  0.00    +0.000 C 
ATOM      5  C   UNL     1       2.515   2.878  21.149  0.00  0.00    +0.000 C 
ATOM      6  C   UNL     1       1.567   4.081  20.992  0.00  0.00    +0.000 C 
ATOM      7  C   UNL     1       1.933   4.575  19.600  0.00  0.00    +0.000 C 
ATOM      8  C   UNL     1       3.290   5.332  19.706  0.00  0.00    +0.000 C 
ATOM      9  N   UNL     1       2.078   3.268  18.869  0.00  0.00    +0.000 NA
ATOM     10  C   UNL     1       0.870   2.441  18.718  0.00  0.00    +0.000 C 
ENDROOT
BRANCH   1  11
ATOM     11  O   UNL     1       5.451   4.149  17.013  0.00  0.00    +0.000 OA
BRANCH  11  12
ATOM     12  C   UNL     1       6.490   4.775  16.227  0.00  0.00    +0.000 C 
BRANCH  12  15
ATOM     13  C   UNL     1       5.958   3.299  12.176  0.00  0.00    +0.000 C 
ATOM     14  C   UNL     1       6.145   3.815  13.593  0.00  0.00    +0.000 C 
ATOM     15  C   UNL     1       6.304   4.258  14.810  0.00  0.00    +0.000 C 
ENDBRANCH  12  15
ENDBRANCH  11  12
ENDBRANCH   1  11
TORSDOF 3
ENDMDL
MODEL 7
REMARK VINA RESULT:      -6.5      1.122      1.285
REMARK  Name = 
REMARK  5 active torsions:
REMARK  status: ('A' for Active; 'I' for Inactive)
REMARK    1  A    between atoms: C_1  and  C_2
REMARK    2  A    between atoms: C_3  and  C_4
REMARK    3  A    between atoms: C_4  and  O_5
REMARK    4  A    between atoms: O_5  and  N_6
REMARK    5  A    between atoms: N_14  and  C_15
REMARK                            x       y       z     vdW  Elec       q    Type
REMARK                         _______ _______ _______ _____ _____    ______ ____
ROOT
ATOM      1  N   UNL     1       5.443   3.730  18.742  0.00  0.00    +0.000 NA
ATOM      2  C   UNL     1       4.187   3.343  18.847  0.00  0.00    +0.000 C 
ATOM      3  C   UNL     1       3.041   3.734  17.936  0.00  0.00    +0.000 C 
ATOM      4  C   UNL     1       1.844   4.154  18.841  0.00  0.00    +0.000 C 
ATOM      5  C   UNL     1       0.937   3.020  19.371  0.00  0.00    +0.000 C 
ATOM      6  C   UNL     1       1.417   2.701  20.798  0.00  0.00    +0.000 C 
ATOM      7  C   UNL     1       2.773   3.393  20.823  0.00  0.00    +0.000 C 
ATOM      8  C   UNL     1       3.770   2.512  20.015  0.00  0.00    +0.000 C 
ATOM      9  N   UNL     1       2.445   4.672  20.101  0.00  0.00    +0.000 NA
ATOM     10  C   UNL     1       1.493   5.589  20.747  0.00  0.00    +0.000 C 
ENDROOT
BRANCH   1  11
ATOM     11  O   UNL     1       5.615   4.695  17.744  0.00  0.00    +0.000 OA
BRANCH  11  12
ATOM     12  C   UNL     1       7.000   4.791  17.340  0.00  0.00    +0.000 C 
BRANCH  12  15
ATOM     13  C   UNL     1       8.107   8.953  17.908  0.00  0.00    +0.000 C 
ATOM     14  C   UNL     1       7.720   7.497  17.710  0.00  0.00    +0.000 C 
ATOM     15  C   UNL     1       7.388   6.248  17.539  0.00  0.00    +0.000 C 
ENDBRANCH  12  15
ENDBRANCH  11  12
ENDBRANCH   1  11
TORSDOF 3
ENDMDL
MODEL 8
REMARK VINA RESULT:      -6.3      1.396      2.257
REMARK  Name = 
REMARK  5 active torsions:
REMARK  status: ('A' for Active; 'I' for Inactive)
REMARK    1  A    between atoms: C_1  and  C_2
REMARK    2  A    between atoms: C_3  and  C_4
REMARK    3  A    between atoms: C_4  and  O_5
REMARK    4  A    between atoms: O_5  and  N_6
REMARK    5  A    between atoms: N_14  and  C_15
REMARK                            x       y       z     vdW  Elec       q    Type
REMARK                         _______ _______ _______ _____ _____    ______ ____
ROOT
ATOM      1  N   UNL     1       4.794   6.246  17.590  0.00  0.00    +0.000 NA
ATOM      2  C   UNL     1       3.888   5.643  18.333  0.00  0.00    +0.000 C 
ATOM      3  C   UNL     1       4.105   5.023  19.699  0.00  0.00    +0.000 C 
ATOM      4  C   UNL     1       3.446   3.611  19.683  0.00  0.00    +0.000 C 
ATOM      5  C   UNL     1       1.930   3.545  19.978  0.00  0.00    +0.000 C 
ATOM      6  C   UNL     1       1.218   3.480  18.615  0.00  0.00    +0.000 C 
ATOM      7  C   UNL     1       2.336   3.896  17.670  0.00  0.00    +0.000 C 
ATOM      8  C   UNL     1       2.513   5.438  17.792  0.00  0.00    +0.000 C 
ATOM      9  N   UNL     1       3.498   3.150  18.268  0.00  0.00    +0.000 NA
ATOM     10  C   UNL     1       3.446   1.680  18.238  0.00  0.00    +0.000 C 
ENDROOT
BRANCH   1  11
ATOM     11  O   UNL     1       6.078   6.138  18.133  0.00  0.00    +0.000 OA
BRANCH  11  12
ATOM     12  C   UNL     1       7.092   6.446  17.151  0.00  0.00    +0.000 C 
BRANCH  12  15
ATOM     13  C   UNL     1       8.902  10.176  18.448  0.00  0.00    +0.000 C 
ATOM     14  C   UNL     1       8.269   8.871  17.994  0.00  0.00    +0.000 C 
ATOM     15  C   UNL     1       7.726   7.751  17.605  0.00  0.00    +0.000 C 
ENDBRANCH  12  15
ENDBRANCH  11  12
ENDBRANCH   1  11
TORSDOF 3
ENDMDL
MODEL 9
REMARK VINA RESULT:      -6.3      2.169      2.795
REMARK  Name = 
REMARK  5 active torsions:
REMARK  status: ('A' for Active; 'I' for Inactive)
REMARK    1  A    between atoms: C_1  and  C_2
REMARK    2  A    between atoms: C_3  and  C_4
REMARK    3  A    between atoms: C_4  and  O_5
REMARK    4  A    between atoms: O_5  and  N_6
REMARK    5  A    between atoms: N_14  and  C_15
REMARK                            x       y       z     vdW  Elec       q    Type
REMARK                         _______ _______ _______ _____ _____    ______ ____
ROOT
ATOM      1  N   UNL     1       4.962   3.760  17.662  0.00  0.00    +0.000 NA
ATOM      2  C   UNL     1       3.801   3.324  18.109  0.00  0.00    +0.000 C 
ATOM      3  C   UNL     1       2.434   3.650  17.543  0.00  0.00    +0.000 C 
ATOM      4  C   UNL     1       1.511   4.037  18.738  0.00  0.00    +0.000 C 
ATOM      5  C   UNL     1       0.835   2.876  19.503  0.00  0.00    +0.000 C 
ATOM      6  C   UNL     1       1.700   2.603  20.746  0.00  0.00    +0.000 C 
ATOM      7  C   UNL     1       2.978   3.351  20.395  0.00  0.00    +0.000 C 
ATOM      8  C   UNL     1       3.756   2.497  19.350  0.00  0.00    +0.000 C 
ATOM      9  N   UNL     1       2.410   4.602  19.783  0.00  0.00    +0.000 NA
ATOM     10  C   UNL     1       1.630   5.490  20.660  0.00  0.00    +0.000 C 
ENDROOT
BRANCH   1  11
ATOM     11  O   UNL     1       4.813   4.714  16.650  0.00  0.00    +0.000 OA
BRANCH  11  12
ATOM     12  C   UNL     1       5.382   5.984  17.036  0.00  0.00    +0.000 C 
BRANCH  12  15
ATOM     13  C   UNL     1       2.011   8.532  18.045  0.00  0.00    +0.000 C 
ATOM     14  C   UNL     1       3.191   7.640  17.692  0.00  0.00    +0.000 C 
ATOM     15  C   UNL     1       4.203   6.876  17.390  0.00  0.00    +0.000 C 
ENDBRANCH  12  15
ENDBRANCH  11  12
ENDBRANCH   1  11
TORSDOF 3
ENDMDL
