MODEL 1
REMARK VINA RESULT:      -6.8      0.000      0.000
REMARK  Name = 
REMARK  6 active torsions:
REMARK  status: ('A' for Active; 'I' for Inactive)
REMARK    1  A    between atoms: C_1  and  C_2
REMARK    2  A    between atoms: C_2  and  N_3
REMARK    3  A    between atoms: C_2  and  C_8
REMARK    4  A    between atoms: C_4  and  C_6
REMARK    5  A    between atoms: C_6  and  N_7
REMARK    6  A    between atoms: C_14  and  C_15
REMARK                            x       y       z     vdW  Elec       q    Type
REMARK                         _______ _______ _______ _____ _____    ______ ____
ROOT
ATOM      1  C   UNL     1       4.377   5.384  18.493  0.00  0.00    +0.000 C 
ATOM      2  O   UNL     1       4.592   5.096  19.676  0.00  0.00    +0.000 OA
ATOM      3  N   UNL     1       5.409   5.386  17.578  0.00  0.00    +0.000 N 
ATOM      4  C   UNL     1       5.335   5.693  16.162  0.00  0.00    +0.000 C 
ATOM      5  C   UNL     1       6.321   4.723  15.542  0.00  0.00    +0.000 C 
ATOM      6  C   UNL     1       7.438   4.637  16.575  0.00  0.00    +0.000 C 
ATOM      7  C   UNL     1       6.760   4.917  17.928  0.00  0.00    +0.000 C 
ENDROOT
BRANCH   7   8
ATOM      8  C   UNL     1       7.601   5.924  18.747  0.00  0.00    +0.000 C 
ATOM      9  N   UNL     1       7.967   5.537  20.003  0.00  0.00    +0.000 N 
ATOM     10  O   UNL     1       8.059   6.966  18.280  0.00  0.00    +0.000 OA
ATOM     11  H   UNL     1       7.979   4.540  20.213  0.00  0.00    +0.000 HD
ATOM     12  H   UNL     1       8.651   6.115  20.471  0.00  0.00    +0.000 HD
ENDBRANCH   7   8
BRANCH   1  14
ATOM     13  C   UNL     1       2.490   7.078  18.284  0.00  0.00    +0.000 C 
ATOM     14  C   UNL     1       2.943   5.652  17.981  0.00  0.00    +0.000 C 
BRANCH  14  15
ATOM     15  N   UNL     1       2.045   4.709  18.637  0.00  0.00    +0.000 N 
ATOM     16  C   UNL     1       1.730   3.479  18.112  0.00  0.00    +0.000 C 
ATOM     17  O   UNL     1       2.238   3.030  17.088  0.00  0.00    +0.000 OA
ATOM     18  H   UNL     1       1.524   4.992  19.465  0.00  0.00    +0.000 HD
BRANCH  16  19
ATOM     19  C   UNL     1       0.656   2.717  18.894  0.00  0.00    +0.000 C 
BRANCH  19  20
ATOM     20  N   UNL     1       0.591   3.167  20.301  0.00  0.00    +0.000 NA
ATOM     21  H   UNL     1      -0.155   2.648  20.767  0.00  0.00    +0.000 HD
ATOM     22  H   UNL     1       0.283   4.141  20.304  0.00  0.00    +0.000 HD
ENDBRANCH  19  20
ENDBRANCH  16  19
ENDBRANCH  14  15
ENDBRANCH   1  14
TORSDOF 5
ENDMDL
MODEL 2
REMARK VINA RESULT:      -6.5      1.194      1.194
REMARK  Name = 
REMARK  6 active torsions:
REMARK  status: ('A' for Active; 'I' for Inactive)
REMARK    1  A    between atoms: C_1  and  C_2
REMARK    2  A    between atoms: C_2  and  N_3
REMARK    3  A    between atoms: C_2  and  C_8
REMARK    4  A    between atoms: C_4  and  C_6
REMARK    5  A    between atoms: C_6  and  N_7
REMARK    6  A    between atoms: C_14  and  C_15
REMARK                            x       y       z     vdW  Elec       q    Type
REMARK                         _______ _______ _______ _____ _____    ______ ____
ROOT
ATOM      1  C   UNL     1       4.504   5.309  18.588  0.00  0.00    +0.000 C 
ATOM      2  O   UNL     1       5.016   5.432  19.707  0.00  0.00    +0.000 OA
ATOM      3  N   UNL     1       5.300   5.150  17.473  0.00  0.00    +0.000 N 
ATOM      4  C   UNL     1       4.872   4.988  16.096  0.00  0.00    +0.000 C 
ATOM      5  C   UNL     1       5.872   3.998  15.533  0.00  0.00    +0.000 C 
ATOM      6  C   UNL     1       7.178   4.374  16.224  0.00  0.00    +0.000 C 
ATOM      7  C   UNL     1       6.759   4.979  17.576  0.00  0.00    +0.000 C 
ENDROOT
BRANCH   7   8
ATOM      8  C   UNL     1       7.545   6.284  17.841  0.00  0.00    +0.000 C 
ATOM      9  N   UNL     1       8.099   6.423  19.080  0.00  0.00    +0.000 N 
ATOM     10  O   UNL     1       7.803   7.112  16.969  0.00  0.00    +0.000 OA
ATOM     11  H   UNL     1       8.268   5.581  19.628  0.00  0.00    +0.000 HD
ATOM     12  H   UNL     1       8.747   7.190  19.200  0.00  0.00    +0.000 HD
ENDBRANCH   7   8
BRANCH   1  14
ATOM     13  C   UNL     1       2.347   6.612  18.239  0.00  0.00    +0.000 C 
ATOM     14  C   UNL     1       2.971   5.230  18.411  0.00  0.00    +0.000 C 
BRANCH  14  15
ATOM     15  N   UNL     1       2.412   4.591  19.597  0.00  0.00    +0.000 N 
ATOM     16  C   UNL     1       2.031   3.271  19.633  0.00  0.00    +0.000 C 
ATOM     17  O   UNL     1       2.203   2.491  18.701  0.00  0.00    +0.000 OA
ATOM     18  H   UNL     1       2.175   5.151  20.414  0.00  0.00    +0.000 HD
BRANCH  16  19
ATOM     19  C   UNL     1       1.335   2.852  20.932  0.00  0.00    +0.000 C 
BRANCH  19  20
ATOM     20  N   UNL     1       2.231   3.003  22.098  0.00  0.00    +0.000 NA
ATOM     21  H   UNL     1       2.356   2.084  22.524  0.00  0.00    +0.000 HD
ATOM     22  H   UNL     1       1.740   3.560  22.800  0.00  0.00    +0.000 HD
ENDBRANCH  19  20
ENDBRANCH  16  19
ENDBRANCH  14  15
ENDBRANCH   1  14
TORSDOF 5
ENDMDL
MODEL 3
REMARK VINA RESULT:      -6.4      2.589      5.644
REMARK  Name = 
REMARK  6 active torsions:
REMARK  status: ('A' for Active; 'I' for Inactive)
REMARK    1  A    between atoms: C_1  and  C_2
REMARK    2  A    between atoms: C_2  and  N_3
REMARK    3  A    between atoms: C_2  and  C_8
REMARK    4  A    between atoms: C_4  and  C_6
REMARK    5  A    between atoms: C_6  and  N_7
REMARK    6  A    between atoms: C_14  and  C_15
REMARK                            x       y       z     vdW  Elec       q    Type
REMARK                         _______ _______ _______ _____ _____    ______ ____
ROOT
ATOM      1  C   UNL     1       5.347   5.392  16.864  0.00  0.00    +0.000 C 
ATOM      2  O   UNL     1       5.250   6.586  16.557  0.00  0.00    +0.000 OA
ATOM      3  N   UNL     1       4.287   4.738  17.457  0.00  0.00    +0.000 N 
ATOM      4  C   UNL     1       4.227   3.350  17.876  0.00  0.00    +0.000 C 
ATOM      5  C   UNL     1       2.801   2.950  17.554  0.00  0.00    +0.000 C 
ATOM      6  C   UNL     1       1.997   4.209  17.857  0.00  0.00    +0.000 C 
ATOM      7  C   UNL     1       2.971   5.377  17.618  0.00  0.00    +0.000 C 
ENDROOT
BRANCH   7   8
ATOM      8  C   UNL     1       2.883   6.390  18.784  0.00  0.00    +0.000 C 
ATOM      9  N   UNL     1       3.102   5.898  20.038  0.00  0.00    +0.000 N 
ATOM     10  O   UNL     1       2.768   7.603  18.624  0.00  0.00    +0.000 OA
ATOM     11  H   UNL     1       3.624   5.028  20.128  0.00  0.00    +0.000 HD
ATOM     12  H   UNL     1       3.212   6.581  20.776  0.00  0.00    +0.000 HD
ENDBRANCH   7   8
BRANCH   1  14
ATOM     13  C   UNL     1       7.660   4.643  17.612  0.00  0.00    +0.000 C 
ATOM     14  C   UNL     1       6.608   4.572  16.509  0.00  0.00    +0.000 C 
BRANCH  14  15
ATOM     15  N   UNL     1       7.165   5.112  15.274  0.00  0.00    +0.000 N 
ATOM     16  C   UNL     1       6.892   4.589  14.033  0.00  0.00    +0.000 C 
ATOM     17  O   UNL     1       6.093   3.677  13.843  0.00  0.00    +0.000 OA
ATOM     18  H   UNL     1       7.881   5.836  15.310  0.00  0.00    +0.000 HD
BRANCH  16  19
ATOM     19  C   UNL     1       7.699   5.219  12.893  0.00  0.00    +0.000 C 
BRANCH  19  20
ATOM     20  N   UNL     1       8.868   5.965  13.407  0.00  0.00    +0.000 NA
ATOM     21  H   UNL     1       9.019   5.689  14.378  0.00  0.00    +0.000 HD
ATOM     22  H   UNL     1       8.615   6.954  13.445  0.00  0.00    +0.000 HD
ENDBRANCH  19  20
ENDBRANCH  16  19
ENDBRANCH  14  15
ENDBRANCH   1  14
TORSDOF 5
ENDMDL
MODEL 4
REMARK VINA RESULT:      -6.3      1.354      1.354
REMARK  Name = 
REMARK  6 active torsions:
REMARK  status: ('A' for Active; 'I' for Inactive)
REMARK    1  A    between atoms: C_1  and  C_2
REMARK    2  A    between atoms: C_2  and  N_3
REMARK    3  A    between atoms: C_2  and  C_8
REMARK    4  A    between atoms: C_4  and  C_6
REMARK    5  A    between atoms: C_6  and  N_7
REMARK    6  A    between atoms: C_14  and  C_15
REMARK                            x       y       z     vdW  Elec       q    Type
REMARK                         _______ _______ _______ _____ _____    ______ ____
ROOT
ATOM      1  C   UNL     1       4.589   5.635  18.632  0.00  0.00    +0.000 C 
ATOM      2  O   UNL     1       5.167   5.422  19.705  0.00  0.00    +0.000 OA
ATOM      3  N   UNL     1       5.311   5.732  17.461  0.00  0.00    +0.000 N 
ATOM      4  C   UNL     1       4.801   5.974  16.124  0.00  0.00    +0.000 C 
ATOM      5  C   UNL     1       5.689   5.111  15.250  0.00  0.00    +0.000 C 
ATOM      6  C   UNL     1       7.054   5.205  15.921  0.00  0.00    +0.000 C 
ATOM      7  C   UNL     1       6.755   5.450  17.411  0.00  0.00    +0.000 C 
ENDROOT
BRANCH   7   8
ATOM      8  C   UNL     1       7.654   6.585  17.954  0.00  0.00    +0.000 C 
ATOM      9  N   UNL     1       7.682   7.742  17.232  0.00  0.00    +0.000 N 
ATOM     10  O   UNL     1       8.217   6.543  19.047  0.00  0.00    +0.000 OA
ATOM     11  H   UNL     1       6.902   7.935  16.605  0.00  0.00    +0.000 HD
ATOM     12  H   UNL     1       8.131   8.535  17.669  0.00  0.00    +0.000 HD
ENDBRANCH   7   8
BRANCH   1  14
ATOM     13  C   UNL     1       2.469   6.704  19.546  0.00  0.00    +0.000 C 
ATOM     14  C   UNL     1       3.048   5.702  18.550  0.00  0.00    +0.000 C 
BRANCH  14  15
ATOM     15  N   UNL     1       2.522   4.373  18.840  0.00  0.00    +0.000 N 
ATOM     16  C   UNL     1       1.480   3.807  18.145  0.00  0.00    +0.000 C 
ATOM     17  O   UNL     1       0.954   4.332  17.168  0.00  0.00    +0.000 OA
ATOM     18  H   UNL     1       2.845   3.864  19.661  0.00  0.00    +0.000 HD
BRANCH  16  19
ATOM     19  C   UNL     1       0.998   2.469  18.714  0.00  0.00    +0.000 C 
BRANCH  19  20
ATOM     20  N   UNL     1       2.102   1.490  18.801  0.00  0.00    +0.000 NA
ATOM     21  H   UNL     1       2.467   1.337  17.859  0.00  0.00    +0.000 HD
ATOM     22  H   UNL     1       1.704   0.592  19.083  0.00  0.00    +0.000 HD
ENDBRANCH  19  20
ENDBRANCH  16  19
ENDBRANCH  14  15
ENDBRANCH   1  14
TORSDOF 5
ENDMDL
MODEL 5
REMARK VINA RESULT:      -6.2      2.206      5.578
REMARK  Name = 
REMARK  6 active torsions:
REMARK  status: ('A' for Active; 'I' for Inactive)
REMARK    1  A    between atoms: C_1  and  C_2
REMARK    2  A    between atoms: C_2  and  N_3
REMARK    3  A    between atoms: C_2  and  C_8
REMARK    4  A    between atoms: C_4  and  C_6
REMARK    5  A    between atoms: C_6  and  N_7
REMARK    6  A    between atoms: C_14  and  C_15
REMARK                            x       y       z     vdW  Elec       q    Type
REMARK                         _______ _______ _______ _____ _____    ______ ____
ROOT
ATOM      1  C   UNL     1       4.458   4.783  19.028  0.00  0.00    +0.000 C 
ATOM      2  O   UNL     1       3.992   5.912  19.217  0.00  0.00    +0.000 OA
ATOM      3  N   UNL     1       3.657   3.668  19.163  0.00  0.00    +0.000 N 
ATOM      4  C   UNL     1       4.035   2.280  18.978  0.00  0.00    +0.000 C 
ATOM      5  C   UNL     1       2.807   1.666  18.336  0.00  0.00    +0.000 C 
ATOM      6  C   UNL     1       1.648   2.392  19.009  0.00  0.00    +0.000 C 
ATOM      7  C   UNL     1       2.206   3.775  19.391  0.00  0.00    +0.000 C 
ENDROOT
BRANCH   7   8
ATOM      8  C   UNL     1       1.805   4.129  20.842  0.00  0.00    +0.000 C 
ATOM      9  N   UNL     1       1.855   5.449  21.185  0.00  0.00    +0.000 N 
ATOM     10  O   UNL     1       1.326   3.318  21.632  0.00  0.00    +0.000 OA
ATOM     11  H   UNL     1       1.813   6.140  20.439  0.00  0.00    +0.000 HD
ATOM     12  H   UNL     1       1.436   5.699  22.071  0.00  0.00    +0.000 HD
ENDBRANCH   7   8
BRANCH   1  14
ATOM     13  C   UNL     1       6.856   5.625  19.145  0.00  0.00    +0.000 C 
ATOM     14  C   UNL     1       5.913   4.586  18.545  0.00  0.00    +0.000 C 
BRANCH  14  15
ATOM     15  N   UNL     1       5.925   4.702  17.092  0.00  0.00    +0.000 N 
ATOM     16  C   UNL     1       7.053   4.513  16.330  0.00  0.00    +0.000 C 
ATOM     17  O   UNL     1       8.130   4.150  16.794  0.00  0.00    +0.000 OA
ATOM     18  H   UNL     1       5.103   5.048  16.600  0.00  0.00    +0.000 HD
BRANCH  16  19
ATOM     19  C   UNL     1       6.869   4.829  14.842  0.00  0.00    +0.000 C 
BRANCH  19  20
ATOM     20  N   UNL     1       6.327   3.667  14.107  0.00  0.00    +0.000 NA
ATOM     21  H   UNL     1       5.378   3.895  13.807  0.00  0.00    +0.000 HD
ATOM     22  H   UNL     1       6.221   2.898  14.771  0.00  0.00    +0.000 HD
ENDBRANCH  19  20
ENDBRANCH  16  19
ENDBRANCH  14  15
ENDBRANCH   1  14
TORSDOF 5
ENDMDL
MODEL 6
REMARK VINA RESULT:      -6.2      2.733      5.351
REMARK  Name = 
REMARK  6 active torsions:
REMARK  status: ('A' for Active; 'I' for Inactive)
REMARK    1  A    between atoms: C_1  and  C_2
REMARK    2  A    between atoms: C_2  and  N_3
REMARK    3  A    between atoms: C_2  and  C_8
REMARK    4  A    between atoms: C_4  and  C_6
REMARK    5  A    between atoms: C_6  and  N_7
REMARK    6  A    between atoms: C_14  and  C_15
REMARK                            x       y       z     vdW  Elec       q    Type
REMARK                         _______ _______ _______ _____ _____    ______ ____
ROOT
ATOM      1  C   UNL     1       5.493   4.562  18.031  0.00  0.00    +0.000 C 
ATOM      2  O   UNL     1       6.275   4.496  18.987  0.00  0.00    +0.000 OA
ATOM      3  N   UNL     1       4.262   3.942  18.095  0.00  0.00    +0.000 N 
ATOM      4  C   UNL     1       3.229   3.920  17.077  0.00  0.00    +0.000 C 
ATOM      5  C   UNL     1       1.946   3.998  17.880  0.00  0.00    +0.000 C 
ATOM      6  C   UNL     1       2.253   3.181  19.129  0.00  0.00    +0.000 C 
ATOM      7  C   UNL     1       3.773   3.308  19.331  0.00  0.00    +0.000 C 
ENDROOT
BRANCH   7   8
ATOM      8  C   UNL     1       4.388   1.922  19.633  0.00  0.00    +0.000 C 
ATOM      9  N   UNL     1       4.217   0.957  18.682  0.00  0.00    +0.000 N 
ATOM     10  O   UNL     1       5.120   1.697  20.594  0.00  0.00    +0.000 OA
ATOM     11  H   UNL     1       4.017   1.254  17.728  0.00  0.00    +0.000 HD
ATOM     12  H   UNL     1       4.756   0.110  18.799  0.00  0.00    +0.000 HD
ENDBRANCH   7   8
BRANCH   1  14
ATOM     13  C   UNL     1       4.868   6.596  16.637  0.00  0.00    +0.000 C 
ATOM     14  C   UNL     1       5.821   5.413  16.784  0.00  0.00    +0.000 C 
BRANCH  14  15
ATOM     15  N   UNL     1       5.710   4.554  15.610  0.00  0.00    +0.000 N 
ATOM     16  C   UNL     1       6.585   4.608  14.552  0.00  0.00    +0.000 C 
ATOM     17  O   UNL     1       7.583   5.322  14.535  0.00  0.00    +0.000 OA
ATOM     18  H   UNL     1       4.893   3.958  15.489  0.00  0.00    +0.000 HD
BRANCH  16  19
ATOM     19  C   UNL     1       6.193   3.721  13.365  0.00  0.00    +0.000 C 
BRANCH  19  20
ATOM     20  N   UNL     1       6.988   4.048  12.162  0.00  0.00    +0.000 NA
ATOM     21  H   UNL     1       7.969   4.116  12.438  0.00  0.00    +0.000 HD
ATOM     22  H   UNL     1       6.728   4.989  11.861  0.00  0.00    +0.000 HD
ENDBRANCH  19  20
ENDBRANCH  16  19
ENDBRANCH  14  15
ENDBRANCH   1  14
TORSDOF 5
ENDMDL
MODEL 7
REMARK VINA RESULT:      -6.2      1.747      5.865
REMARK  Name = 
REMARK  6 active torsions:
REMARK  status: ('A' for Active; 'I' for Inactive)
REMARK    1  A    between atoms: C_1  and  C_2
REMARK    2  A    between atoms: C_2  and  N_3
REMARK    3  A    between atoms: C_2  and  C_8
REMARK    4  A    between atoms: C_4  and  C_6
REMARK    5  A    between atoms: C_6  and  N_7
REMARK    6  A    between atoms: C_14  and  C_15
REMARK                            x       y       z     vdW  Elec       q    Type
REMARK                         _______ _______ _______ _____ _____    ______ ____
ROOT
ATOM      1  C   UNL     1       4.083   3.775  18.095  0.00  0.00    +0.000 C 
ATOM      2  O   UNL     1       4.320   2.572  18.261  0.00  0.00    +0.000 OA
ATOM      3  N   UNL     1       3.020   4.370  18.740  0.00  0.00    +0.000 N 
ATOM      4  C   UNL     1       2.603   5.758  18.664  0.00  0.00    +0.000 C 
ATOM      5  C   UNL     1       2.143   6.062  20.076  0.00  0.00    +0.000 C 
ATOM      6  C   UNL     1       1.495   4.761  20.532  0.00  0.00    +0.000 C 
ATOM      7  C   UNL     1       2.220   3.653  19.747  0.00  0.00    +0.000 C 
ENDROOT
BRANCH   7   8
ATOM      8  C   UNL     1       1.192   2.655  19.163  0.00  0.00    +0.000 C 
ATOM      9  N   UNL     1       1.671   1.433  18.790  0.00  0.00    +0.000 N 
ATOM     10  O   UNL     1      -0.021   2.856  19.151  0.00  0.00    +0.000 OA
ATOM     11  H   UNL     1       2.546   1.114  19.203  0.00  0.00    +0.000 HD
ATOM     12  H   UNL     1       0.981   0.728  18.568  0.00  0.00    +0.000 HD
ENDBRANCH   7   8
BRANCH   1  14
ATOM     13  C   UNL     1       5.501   3.948  15.989  0.00  0.00    +0.000 C 
ATOM     14  C   UNL     1       5.018   4.667  17.246  0.00  0.00    +0.000 C 
BRANCH  14  15
ATOM     15  N   UNL     1       6.166   5.029  18.069  0.00  0.00    +0.000 N 
ATOM     16  C   UNL     1       6.762   6.266  18.029  0.00  0.00    +0.000 C 
ATOM     17  O   UNL     1       6.333   7.202  17.361  0.00  0.00    +0.000 OA
ATOM     18  H   UNL     1       6.641   4.318  18.623  0.00  0.00    +0.000 HD
BRANCH  16  19
ATOM     19  C   UNL     1       8.040   6.377  18.866  0.00  0.00    +0.000 C 
BRANCH  19  20
ATOM     20  N   UNL     1       7.944   5.579  20.107  0.00  0.00    +0.000 NA
ATOM     21  H   UNL     1       7.926   4.591  19.849  0.00  0.00    +0.000 HD
ATOM     22  H   UNL     1       7.031   5.763  20.527  0.00  0.00    +0.000 HD
ENDBRANCH  19  20
ENDBRANCH  16  19
ENDBRANCH  14  15
ENDBRANCH   1  14
TORSDOF 5
ENDMDL
MODEL 8
REMARK VINA RESULT:      -6.2      1.980      5.681
REMARK  Name = 
REMARK  6 active torsions:
REMARK  status: ('A' for Active; 'I' for Inactive)
REMARK    1  A    between atoms: C_1  and  C_2
REMARK    2  A    between atoms: C_2  and  N_3
REMARK    3  A    between atoms: C_2  and  C_8
REMARK    4  A    between atoms: C_4  and  C_6
REMARK    5  A    between atoms: C_6  and  N_7
REMARK    6  A    between atoms: C_14  and  C_15
REMARK                            x       y       z     vdW  Elec       q    Type
REMARK                         _______ _______ _______ _____ _____    ______ ____
ROOT
ATOM      1  C   UNL     1       4.235   4.858  18.880  0.00  0.00    +0.000 C 
ATOM      2  O   UNL     1       3.852   5.993  19.190  0.00  0.00    +0.000 OA
ATOM      3  N   UNL     1       3.340   3.809  18.843  0.00  0.00    +0.000 N 
ATOM      4  C   UNL     1       3.613   2.426  18.500  0.00  0.00    +0.000 C 
ATOM      5  C   UNL     1       2.373   2.003  17.739  0.00  0.00    +0.000 C 
ATOM      6  C   UNL     1       1.245   2.740  18.453  0.00  0.00    +0.000 C 
ATOM      7  C   UNL     1       1.894   4.012  19.026  0.00  0.00    +0.000 C 
ENDROOT
BRANCH   7   8
ATOM      8  C   UNL     1       1.451   4.221  20.493  0.00  0.00    +0.000 C 
ATOM      9  N   UNL     1       1.067   3.106  21.180  0.00  0.00    +0.000 N 
ATOM     10  O   UNL     1       1.560   5.289  21.091  0.00  0.00    +0.000 OA
ATOM     11  H   UNL     1       1.395   2.201  20.847  0.00  0.00    +0.000 HD
ATOM     12  H   UNL     1       0.941   3.214  22.177  0.00  0.00    +0.000 HD
ENDBRANCH   7   8
BRANCH   1  14
ATOM     13  C   UNL     1       6.665   5.586  19.067  0.00  0.00    +0.000 C 
ATOM     14  C   UNL     1       5.691   4.597  18.433  0.00  0.00    +0.000 C 
BRANCH  14  15
ATOM     15  N   UNL     1       5.747   4.724  16.982  0.00  0.00    +0.000 N 
ATOM     16  C   UNL     1       6.911   4.614  16.261  0.00  0.00    +0.000 C 
ATOM     17  O   UNL     1       7.993   4.319  16.761  0.00  0.00    +0.000 OA
ATOM     18  H   UNL     1       4.922   5.020  16.463  0.00  0.00    +0.000 HD
BRANCH  16  19
ATOM     19  C   UNL     1       6.760   4.928  14.769  0.00  0.00    +0.000 C 
BRANCH  19  20
ATOM     20  N   UNL     1       7.988   5.539  14.218  0.00  0.00    +0.000 NA
ATOM     21  H   UNL     1       7.722   6.136  13.433  0.00  0.00    +0.000 HD
ATOM     22  H   UNL     1       8.552   4.793  13.808  0.00  0.00    +0.000 HD
ENDBRANCH  19  20
ENDBRANCH  16  19
ENDBRANCH  14  15
ENDBRANCH   1  14
TORSDOF 5
ENDMDL
MODEL 9
REMARK VINA RESULT:      -6.2      2.393      5.473
REMARK  Name = 
REMARK  6 active torsions:
REMARK  status: ('A' for Active; 'I' for Inactive)
REMARK    1  A    between atoms: C_1  and  C_2
REMARK    2  A    between atoms: C_2  and  N_3
REMARK    3  A    between atoms: C_2  and  C_8
REMARK    4  A    between atoms: C_4  and  C_6
REMARK    5  A    between atoms: C_6  and  N_7
REMARK    6  A    between atoms: C_14  and  C_15
REMARK                            x       y       z     vdW  Elec       q    Type
REMARK                         _______ _______ _______ _____ _____    ______ ____
ROOT
ATOM      1  C   UNL     1       5.231   5.967  17.623  0.00  0.00    +0.000 C 
ATOM      2  O   UNL     1       4.921   7.137  17.370  0.00  0.00    +0.000 OA
ATOM      3  N   UNL     1       4.269   5.065  18.031  0.00  0.00    +0.000 N 
ATOM      4  C   UNL     1       4.454   3.665  18.363  0.00  0.00    +0.000 C 
ATOM      5  C   UNL     1       3.195   3.011  17.830  0.00  0.00    +0.000 C 
ATOM      6  C   UNL     1       2.112   4.052  18.089  0.00  0.00    +0.000 C 
ATOM      7  C   UNL     1       2.838   5.408  18.047  0.00  0.00    +0.000 C 
ENDROOT
BRANCH   7   8
ATOM      8  C   UNL     1       2.397   6.285  19.243  0.00  0.00    +0.000 C 
ATOM      9  N   UNL     1       2.364   7.633  19.034  0.00  0.00    +0.000 N 
ATOM     10  O   UNL     1       1.955   5.827  20.296  0.00  0.00    +0.000 OA
ATOM     11  H   UNL     1       2.291   7.967  18.074  0.00  0.00    +0.000 HD
ATOM     12  H   UNL     1       1.919   8.188  19.752  0.00  0.00    +0.000 HD
ENDBRANCH   7   8
BRANCH   1  14
ATOM     13  C   UNL     1       7.691   6.252  18.202  0.00  0.00    +0.000 C 
ATOM     14  C   UNL     1       6.670   5.451  17.398  0.00  0.00    +0.000 C 
BRANCH  14  15
ATOM     15  N   UNL     1       6.974   5.566  15.977  0.00  0.00    +0.000 N 
ATOM     16  C   UNL     1       6.714   4.570  15.068  0.00  0.00    +0.000 C 
ATOM     17  O   UNL     1       6.128   3.530  15.353  0.00  0.00    +0.000 OA
ATOM     18  H   UNL     1       7.508   6.363  15.632  0.00  0.00    +0.000 HD
BRANCH  16  19
ATOM     19  C   UNL     1       7.249   4.847  13.659  0.00  0.00    +0.000 C 
BRANCH  19  20
ATOM     20  N   UNL     1       8.453   5.705  13.698  0.00  0.00    +0.000 NA
ATOM     21  H   UNL     1       8.610   6.076  12.760  0.00  0.00    +0.000 HD
ATOM     22  H   UNL     1       9.258   5.105  13.887  0.00  0.00    +0.000 HD
ENDBRANCH  19  20
ENDBRANCH  16  19
ENDBRANCH  14  15
ENDBRANCH   1  14
TORSDOF 5
ENDMDL
