MODEL 1
REMARK VINA RESULT:      -7.3      0.000      0.000
REMARK  Name = 
REMARK  6 active torsions:
REMARK  status: ('A' for Active; 'I' for Inactive)
REMARK    1  A    between atoms: C_1  and  C_2
REMARK    2  A    between atoms: C_5  and  N_6
REMARK    3  A    between atoms: N_6  and  C_7
REMARK    4  A    between atoms: C_7  and  C_8
REMARK    5  A    between atoms: C_11  and  C_12
REMARK    6  A    between atoms: C_17  and  N_18
REMARK                            x       y       z     vdW  Elec       q    Type
REMARK                         _______ _______ _______ _____ _____    ______ ____
ROOT
ATOM      1  C   UNL     1       1.503  10.128  18.881  0.00  0.00    +0.000 C 
ATOM      2  C   UNL     1       1.739   8.663  19.140  0.00  0.00    +0.000 A 
ATOM      3  C   UNL     1       2.230   7.889  18.080  0.00  0.00    +0.000 A 
ATOM      4  C   UNL     1       2.449   6.517  18.230  0.00  0.00    +0.000 A 
ATOM      5  C   UNL     1       2.198   5.861  19.440  0.00  0.00    +0.000 A 
ATOM      6  C   UNL     1       1.800   6.646  20.525  0.00  0.00    +0.000 A 
ATOM      7  C   UNL     1       1.503   8.022  20.375  0.00  0.00    +0.000 A 
ENDROOT
BRANCH   7   8
ATOM      8  N   UNL     1       0.900   8.696  21.469  0.00  0.00    +0.000 N 
ATOM      9  C   UNL     1       1.496   9.286  22.560  0.00  0.00    +0.000 A 
ATOM     10  N   UNL     1       0.574   9.671  23.412  0.00  0.00    +0.000 NA
ATOM     11  N   UNL     1      -0.621   9.330  22.840  0.00  0.00    +0.000 NA
ATOM     12  N   UNL     1      -0.437   8.766  21.655  0.00  0.00    +0.000 NA
ENDBRANCH   7   8
BRANCH   5  13
ATOM     13  N   UNL     1       2.425   4.497  19.506  0.00  0.00    +0.000 N 
ATOM     14  H   UNL     1       1.677   3.968  19.945  0.00  0.00    +0.000 HD
BRANCH  13  15
ATOM     15  C   UNL     1       3.725   3.849  19.585  0.00  0.00    +0.000 C 
BRANCH  15  16
ATOM     16  C   UNL     1       4.628   4.039  18.380  0.00  0.00    +0.000 A 
ATOM     17  C   UNL     1       4.348   3.546  17.098  0.00  0.00    +0.000 A 
ATOM     18  C   UNL     1       5.178   3.860  16.012  0.00  0.00    +0.000 A 
ATOM     19  C   UNL     1       6.310   4.663  16.189  0.00  0.00    +0.000 A 
ATOM     20  C   UNL     1       6.637   5.101  17.471  0.00  0.00    +0.000 A 
ATOM     21  C   UNL     1       5.810   4.784  18.554  0.00  0.00    +0.000 A 
BRANCH  19  22
ATOM     22  C   UNL     1       7.111   5.059  15.058  0.00  0.00    +0.000 C 
ATOM     23  N   UNL     1       7.750   5.404  14.156  0.00  0.00    +0.000 NA
ENDBRANCH  19  22
ENDBRANCH  15  16
ENDBRANCH  13  15
ENDBRANCH   5  13
TORSDOF 5
ENDMDL
MODEL 2
REMARK VINA RESULT:      -7.3      2.489      8.397
REMARK  Name = 
REMARK  6 active torsions:
REMARK  status: ('A' for Active; 'I' for Inactive)
REMARK    1  A    between atoms: C_1  and  C_2
REMARK    2  A    between atoms: C_5  and  N_6
REMARK    3  A    between atoms: N_6  and  C_7
REMARK    4  A    between atoms: C_7  and  C_8
REMARK    5  A    between atoms: C_11  and  C_12
REMARK    6  A    between atoms: C_17  and  N_18
REMARK                            x       y       z     vdW  Elec       q    Type
REMARK                         _______ _______ _______ _____ _____    ______ ____
ROOT
ATOM      1  C   UNL     1       3.871   1.847  18.872  0.00  0.00    +0.000 C 
ATOM      2  C   UNL     1       3.330   3.158  19.382  0.00  0.00    +0.000 A 
ATOM      3  C   UNL     1       2.063   3.146  19.981  0.00  0.00    +0.000 A 
ATOM      4  C   UNL     1       1.479   4.324  20.455  0.00  0.00    +0.000 A 
ATOM      5  C   UNL     1       2.132   5.558  20.360  0.00  0.00    +0.000 A 
ATOM      6  C   UNL     1       3.433   5.558  19.850  0.00  0.00    +0.000 A 
ATOM      7  C   UNL     1       4.013   4.390  19.300  0.00  0.00    +0.000 A 
ENDROOT
BRANCH   7   8
ATOM      8  N   UNL     1       5.247   4.521  18.610  0.00  0.00    +0.000 N 
ATOM      9  C   UNL     1       5.488   4.523  17.256  0.00  0.00    +0.000 A 
ATOM     10  N   UNL     1       6.783   4.521  17.038  0.00  0.00    +0.000 NA
ATOM     11  N   UNL     1       7.364   4.535  18.276  0.00  0.00    +0.000 NA
ATOM     12  N   UNL     1       6.448   4.562  19.232  0.00  0.00    +0.000 NA
ENDBRANCH   7   8
BRANCH   5  13
ATOM     13  N   UNL     1       1.482   6.683  20.837  0.00  0.00    +0.000 N 
ATOM     14  H   UNL     1       0.531   6.516  21.154  0.00  0.00    +0.000 HD
BRANCH  13  15
ATOM     15  C   UNL     1       1.728   8.055  20.420  0.00  0.00    +0.000 C 
BRANCH  15  16
ATOM     16  C   UNL     1       0.844   9.106  21.064  0.00  0.00    +0.000 A 
ATOM     17  C   UNL     1       0.236  10.160  20.368  0.00  0.00    +0.000 A 
ATOM     18  C   UNL     1      -0.659  11.025  21.016  0.00  0.00    +0.000 A 
ATOM     19  C   UNL     1      -0.953  10.860  22.373  0.00  0.00    +0.000 A 
ATOM     20  C   UNL     1      -0.301   9.859  23.092  0.00  0.00    +0.000 A 
ATOM     21  C   UNL     1       0.593   8.998  22.446  0.00  0.00    +0.000 A 
BRANCH  19  22
ATOM     22  C   UNL     1      -1.939  11.692  23.016  0.00  0.00    +0.000 C 
ATOM     23  N   UNL     1      -2.749  12.353  23.513  0.00  0.00    +0.000 NA
ENDBRANCH  19  22
ENDBRANCH  15  16
ENDBRANCH  13  15
ENDBRANCH   5  13
TORSDOF 5
ENDMDL
MODEL 3
REMARK VINA RESULT:      -7.3      2.528      8.410
REMARK  Name = 
REMARK  6 active torsions:
REMARK  status: ('A' for Active; 'I' for Inactive)
REMARK    1  A    between atoms: C_1  and  C_2
REMARK    2  A    between atoms: C_5  and  N_6
REMARK    3  A    between atoms: N_6  and  C_7
REMARK    4  A    between atoms: C_7  and  C_8
REMARK    5  A    between atoms: C_11  and  C_12
REMARK    6  A    between atoms: C_17  and  N_18
REMARK                            x       y       z     vdW  Elec       q    Type
REMARK                         _______ _______ _______ _____ _____    ______ ____
ROOT
ATOM      1  C   UNL     1       3.533   1.878  18.461  0.00  0.00    +0.000 C 
ATOM      2  C   UNL     1       3.060   3.151  19.115  0.00  0.00    +0.000 A 
ATOM      3  C   UNL     1       1.794   3.136  19.718  0.00  0.00    +0.000 A 
ATOM      4  C   UNL     1       1.271   4.283  20.321  0.00  0.00    +0.000 A 
ATOM      5  C   UNL     1       1.985   5.485  20.358  0.00  0.00    +0.000 A 
ATOM      6  C   UNL     1       3.284   5.476  19.843  0.00  0.00    +0.000 A 
ATOM      7  C   UNL     1       3.804   4.348  19.165  0.00  0.00    +0.000 A 
ENDROOT
BRANCH   7   8
ATOM      8  N   UNL     1       5.043   4.492  18.486  0.00  0.00    +0.000 N 
ATOM      9  C   UNL     1       5.287   4.569  17.134  0.00  0.00    +0.000 A 
ATOM     10  N   UNL     1       6.582   4.551  16.919  0.00  0.00    +0.000 NA
ATOM     11  N   UNL     1       7.160   4.477  18.156  0.00  0.00    +0.000 NA
ATOM     12  N   UNL     1       6.242   4.468  19.110  0.00  0.00    +0.000 NA
ENDBRANCH   7   8
BRANCH   5  13
ATOM     13  N   UNL     1       1.393   6.582  20.960  0.00  0.00    +0.000 N 
ATOM     14  H   UNL     1       0.464   6.407  21.333  0.00  0.00    +0.000 HD
BRANCH  13  15
ATOM     15  C   UNL     1       1.636   7.977  20.625  0.00  0.00    +0.000 C 
BRANCH  15  16
ATOM     16  C   UNL     1       0.693   8.980  21.263  0.00  0.00    +0.000 A 
ATOM     17  C   UNL     1       0.438   9.058  22.639  0.00  0.00    +0.000 A 
ATOM     18  C   UNL     1      -0.360  10.087  23.163  0.00  0.00    +0.000 A 
ATOM     19  C   UNL     1      -0.926  11.049  22.320  0.00  0.00    +0.000 A 
ATOM     20  C   UNL     1      -0.737  10.940  20.943  0.00  0.00    +0.000 A 
ATOM     21  C   UNL     1       0.057   9.912  20.422  0.00  0.00    +0.000 A 
BRANCH  19  22
ATOM     22  C   UNL     1      -1.671  12.155  22.867  0.00  0.00    +0.000 C 
ATOM     23  N   UNL     1      -2.245  13.058  23.309  0.00  0.00    +0.000 NA
ENDBRANCH  19  22
ENDBRANCH  15  16
ENDBRANCH  13  15
ENDBRANCH   5  13
TORSDOF 5
ENDMDL
MODEL 4
REMARK VINA RESULT:      -7.1      2.182      7.117
REMARK  Name = 
REMARK  6 active torsions:
REMARK  status: ('A' for Active; 'I' for Inactive)
REMARK    1  A    between atoms: C_1  and  C_2
REMARK    2  A    between atoms: C_5  and  N_6
REMARK    3  A    between atoms: N_6  and  C_7
REMARK    4  A    between atoms: C_7  and  C_8
REMARK    5  A    between atoms: C_11  and  C_12
REMARK    6  A    between atoms: C_17  and  N_18
REMARK                            x       y       z     vdW  Elec       q    Type
REMARK                         _______ _______ _______ _____ _____    ______ ____
ROOT
ATOM      1  C   UNL     1       3.668   1.559  18.077  0.00  0.00    +0.000 C 
ATOM      2  C   UNL     1       3.565   3.061  18.120  0.00  0.00    +0.000 A 
ATOM      3  C   UNL     1       4.105   3.778  17.043  0.00  0.00    +0.000 A 
ATOM      4  C   UNL     1       4.074   5.175  17.020  0.00  0.00    +0.000 A 
ATOM      5  C   UNL     1       3.500   5.915  18.058  0.00  0.00    +0.000 A 
ATOM      6  C   UNL     1       2.877   5.202  19.086  0.00  0.00    +0.000 A 
ATOM      7  C   UNL     1       2.959   3.791  19.164  0.00  0.00    +0.000 A 
ENDROOT
BRANCH   7   8
ATOM      8  N   UNL     1       2.488   3.161  20.347  0.00  0.00    +0.000 N 
ATOM      9  C   UNL     1       1.205   3.082  20.835  0.00  0.00    +0.000 A 
ATOM     10  N   UNL     1       1.221   2.538  22.030  0.00  0.00    +0.000 NA
ATOM     11  N   UNL     1       2.535   2.258  22.290  0.00  0.00    +0.000 NA
ATOM     12  N   UNL     1       3.305   2.605  21.270  0.00  0.00    +0.000 NA
ENDBRANCH   7   8
BRANCH   5  13
ATOM     13  N   UNL     1       3.522   7.296  17.970  0.00  0.00    +0.000 N 
ATOM     14  H   UNL     1       4.243   7.741  18.531  0.00  0.00    +0.000 HD
BRANCH  13  15
ATOM     15  C   UNL     1       2.380   8.154  17.697  0.00  0.00    +0.000 C 
BRANCH  15  16
ATOM     16  C   UNL     1       1.754   8.822  18.907  0.00  0.00    +0.000 A 
ATOM     17  C   UNL     1       1.121  10.072  18.880  0.00  0.00    +0.000 A 
ATOM     18  C   UNL     1       0.468  10.570  20.018  0.00  0.00    +0.000 A 
ATOM     19  C   UNL     1       0.445   9.832  21.206  0.00  0.00    +0.000 A 
ATOM     20  C   UNL     1       1.131   8.620  21.266  0.00  0.00    +0.000 A 
ATOM     21  C   UNL     1       1.784   8.126  20.131  0.00  0.00    +0.000 A 
BRANCH  19  22
ATOM     22  C   UNL     1      -0.301  10.302  22.346  0.00  0.00    +0.000 C 
ATOM     23  N   UNL     1      -0.918  10.658  23.259  0.00  0.00    +0.000 NA
ENDBRANCH  19  22
ENDBRANCH  15  16
ENDBRANCH  13  15
ENDBRANCH   5  13
TORSDOF 5
ENDMDL
MODEL 5
REMARK VINA RESULT:      -7.0      3.099      8.506
REMARK  Name = 
REMARK  6 active torsions:
REMARK  status: ('A' for Active; 'I' for Inactive)
REMARK    1  A    between atoms: C_1  and  C_2
REMARK    2  A    between atoms: C_5  and  N_6
REMARK    3  A    between atoms: N_6  and  C_7
REMARK    4  A    between atoms: C_7  and  C_8
REMARK    5  A    between atoms: C_11  and  C_12
REMARK    6  A    between atoms: C_17  and  N_18
REMARK                            x       y       z     vdW  Elec       q    Type
REMARK                         _______ _______ _______ _____ _____    ______ ____
ROOT
ATOM      1  C   UNL     1       4.861   4.165  19.209  0.00  0.00    +0.000 C 
ATOM      2  C   UNL     1       4.124   5.423  18.831  0.00  0.00    +0.000 A 
ATOM      3  C   UNL     1       3.004   5.772  19.599  0.00  0.00    +0.000 A 
ATOM      4  C   UNL     1       2.249   6.909  19.296  0.00  0.00    +0.000 A 
ATOM      5  C   UNL     1       2.580   7.748  18.227  0.00  0.00    +0.000 A 
ATOM      6  C   UNL     1       3.750   7.455  17.519  0.00  0.00    +0.000 A 
ATOM      7  C   UNL     1       4.486   6.272  17.764  0.00  0.00    +0.000 A 
ENDROOT
BRANCH   7   8
ATOM      8  N   UNL     1       5.533   5.941  16.863  0.00  0.00    +0.000 N 
ATOM      9  C   UNL     1       6.876   6.224  16.952  0.00  0.00    +0.000 A 
ATOM     10  N   UNL     1       7.476   5.868  15.839  0.00  0.00    +0.000 NA
ATOM     11  N   UNL     1       6.496   5.340  15.045  0.00  0.00    +0.000 NA
ATOM     12  N   UNL     1       5.324   5.353  15.663  0.00  0.00    +0.000 NA
ENDBRANCH   7   8
BRANCH   5  13
ATOM     13  N   UNL     1       1.775   8.847  17.980  0.00  0.00    +0.000 N 
ATOM     14  H   UNL     1       2.012   9.360  17.136  0.00  0.00    +0.000 HD
BRANCH  13  15
ATOM     15  C   UNL     1       1.095   9.651  18.983  0.00  0.00    +0.000 C 
BRANCH  15  16
ATOM     16  C   UNL     1      -0.263  10.195  18.579  0.00  0.00    +0.000 A 
ATOM     17  C   UNL     1      -1.027   9.699  17.514  0.00  0.00    +0.000 A 
ATOM     18  C   UNL     1      -2.322  10.182  17.275  0.00  0.00    +0.000 A 
ATOM     19  C   UNL     1      -2.873  11.178  18.088  0.00  0.00    +0.000 A 
ATOM     20  C   UNL     1      -2.096  11.729  19.106  0.00  0.00    +0.000 A 
ATOM     21  C   UNL     1      -0.803  11.248  19.342  0.00  0.00    +0.000 A 
BRANCH  19  22
ATOM     22  C   UNL     1      -4.234  11.610  17.898  0.00  0.00    +0.000 C 
ATOM     23  N   UNL     1      -5.322  11.967  17.719  0.00  0.00    +0.000 NA
ENDBRANCH  19  22
ENDBRANCH  15  16
ENDBRANCH  13  15
ENDBRANCH   5  13
TORSDOF 5
ENDMDL
MODEL 6
REMARK VINA RESULT:      -6.9      2.343      8.060
REMARK  Name = 
REMARK  6 active torsions:
REMARK  status: ('A' for Active; 'I' for Inactive)
REMARK    1  A    between atoms: C_1  and  C_2
REMARK    2  A    between atoms: C_5  and  N_6
REMARK    3  A    between atoms: N_6  and  C_7
REMARK    4  A    between atoms: C_7  and  C_8
REMARK    5  A    between atoms: C_11  and  C_12
REMARK    6  A    between atoms: C_17  and  N_18
REMARK                            x       y       z     vdW  Elec       q    Type
REMARK                         _______ _______ _______ _____ _____    ______ ____
ROOT
ATOM      1  C   UNL     1       4.311   2.518  19.166  0.00  0.00    +0.000 C 
ATOM      2  C   UNL     1       3.762   3.866  18.777  0.00  0.00    +0.000 A 
ATOM      3  C   UNL     1       2.375   4.052  18.871  0.00  0.00    +0.000 A 
ATOM      4  C   UNL     1       1.785   5.264  18.503  0.00  0.00    +0.000 A 
ATOM      5  C   UNL     1       2.545   6.340  18.034  0.00  0.00    +0.000 A 
ATOM      6  C   UNL     1       3.935   6.190  18.030  0.00  0.00    +0.000 A 
ATOM      7  C   UNL     1       4.546   4.950  18.330  0.00  0.00    +0.000 A 
ENDROOT
BRANCH   7   8
ATOM      8  N   UNL     1       5.941   4.821  18.094  0.00  0.00    +0.000 N 
ATOM      9  C   UNL     1       6.604   4.608  16.907  0.00  0.00    +0.000 A 
ATOM     10  N   UNL     1       7.879   4.404  17.145  0.00  0.00    +0.000 NA
ATOM     11  N   UNL     1       8.022   4.507  18.502  0.00  0.00    +0.000 NA
ATOM     12  N   UNL     1       6.864   4.785  19.082  0.00  0.00    +0.000 NA
ENDBRANCH   7   8
BRANCH   5  13
ATOM     13  N   UNL     1       1.886   7.502  17.674  0.00  0.00    +0.000 N 
ATOM     14  H   UNL     1       1.519   7.501  16.726  0.00  0.00    +0.000 HD
BRANCH  13  15
ATOM     15  C   UNL     1       2.151   8.834  18.197  0.00  0.00    +0.000 C 
BRANCH  15  16
ATOM     16  C   UNL     1       1.241   9.292  19.321  0.00  0.00    +0.000 A 
ATOM     17  C   UNL     1       1.222   8.725  20.602  0.00  0.00    +0.000 A 
ATOM     18  C   UNL     1       0.431   9.280  21.620  0.00  0.00    +0.000 A 
ATOM     19  C   UNL     1      -0.365  10.403  21.372  0.00  0.00    +0.000 A 
ATOM     20  C   UNL     1      -0.408  10.933  20.083  0.00  0.00    +0.000 A 
ATOM     21  C   UNL     1       0.380  10.377  19.069  0.00  0.00    +0.000 A 
BRANCH  19  22
ATOM     22  C   UNL     1      -1.107  11.025  22.439  0.00  0.00    +0.000 C 
ATOM     23  N   UNL     1      -1.684  11.516  23.315  0.00  0.00    +0.000 NA
ENDBRANCH  19  22
ENDBRANCH  15  16
ENDBRANCH  13  15
ENDBRANCH   5  13
TORSDOF 5
ENDMDL
MODEL 7
REMARK VINA RESULT:      -6.8      2.457      8.165
REMARK  Name = 
REMARK  6 active torsions:
REMARK  status: ('A' for Active; 'I' for Inactive)
REMARK    1  A    between atoms: C_1  and  C_2
REMARK    2  A    between atoms: C_5  and  N_6
REMARK    3  A    between atoms: N_6  and  C_7
REMARK    4  A    between atoms: C_7  and  C_8
REMARK    5  A    between atoms: C_11  and  C_12
REMARK    6  A    between atoms: C_17  and  N_18
REMARK                            x       y       z     vdW  Elec       q    Type
REMARK                         _______ _______ _______ _____ _____    ______ ____
ROOT
ATOM      1  C   UNL     1       5.330   4.722  16.396  0.00  0.00    +0.000 C 
ATOM      2  C   UNL     1       4.356   5.532  17.212  0.00  0.00    +0.000 A 
ATOM      3  C   UNL     1       4.272   6.905  16.942  0.00  0.00    +0.000 A 
ATOM      4  C   UNL     1       3.414   7.732  17.673  0.00  0.00    +0.000 A 
ATOM      5  C   UNL     1       2.600   7.228  18.692  0.00  0.00    +0.000 A 
ATOM      6  C   UNL     1       2.611   5.846  18.899  0.00  0.00    +0.000 A 
ATOM      7  C   UNL     1       3.524   5.003  18.220  0.00  0.00    +0.000 A 
ENDROOT
BRANCH   7   8
ATOM      8  N   UNL     1       3.620   3.650  18.642  0.00  0.00    +0.000 N 
ATOM      9  C   UNL     1       4.419   3.100  19.617  0.00  0.00    +0.000 A 
ATOM     10  N   UNL     1       4.309   1.792  19.591  0.00  0.00    +0.000 NA
ATOM     11  N   UNL     1       3.414   1.517  18.593  0.00  0.00    +0.000 NA
ATOM     12  N   UNL     1       2.971   2.632  18.032  0.00  0.00    +0.000 NA
ENDBRANCH   7   8
BRANCH   5  13
ATOM     13  N   UNL     1       1.788   8.112  19.382  0.00  0.00    +0.000 N 
ATOM     14  H   UNL     1       1.890   9.083  19.100  0.00  0.00    +0.000 HD
BRANCH  13  15
ATOM     15  C   UNL     1       1.302   7.944  20.742  0.00  0.00    +0.000 C 
BRANCH  15  16
ATOM     16  C   UNL     1       0.544   9.125  21.320  0.00  0.00    +0.000 A 
ATOM     17  C   UNL     1      -0.190   9.085  22.514  0.00  0.00    +0.000 A 
ATOM     18  C   UNL     1      -0.769  10.250  23.038  0.00  0.00    +0.000 A 
ATOM     19  C   UNL     1      -0.637  11.474  22.374  0.00  0.00    +0.000 A 
ATOM     20  C   UNL     1       0.030  11.512  21.150  0.00  0.00    +0.000 A 
ATOM     21  C   UNL     1       0.606  10.349  20.627  0.00  0.00    +0.000 A 
BRANCH  19  22
ATOM     22  C   UNL     1      -1.155  12.685  22.957  0.00  0.00    +0.000 C 
ATOM     23  N   UNL     1      -1.549  13.660  23.442  0.00  0.00    +0.000 NA
ENDBRANCH  19  22
ENDBRANCH  15  16
ENDBRANCH  13  15
ENDBRANCH   5  13
TORSDOF 5
ENDMDL
MODEL 8
REMARK VINA RESULT:      -6.8      2.302      7.823
REMARK  Name = 
REMARK  6 active torsions:
REMARK  status: ('A' for Active; 'I' for Inactive)
REMARK    1  A    between atoms: C_1  and  C_2
REMARK    2  A    between atoms: C_5  and  N_6
REMARK    3  A    between atoms: N_6  and  C_7
REMARK    4  A    between atoms: C_7  and  C_8
REMARK    5  A    between atoms: C_11  and  C_12
REMARK    6  A    between atoms: C_17  and  N_18
REMARK                            x       y       z     vdW  Elec       q    Type
REMARK                         _______ _______ _______ _____ _____    ______ ____
ROOT
ATOM      1  C   UNL     1       4.516   2.412  19.341  0.00  0.00    +0.000 C 
ATOM      2  C   UNL     1       3.904   3.711  18.884  0.00  0.00    +0.000 A 
ATOM      3  C   UNL     1       2.505   3.787  18.839  0.00  0.00    +0.000 A 
ATOM      4  C   UNL     1       1.861   4.947  18.401  0.00  0.00    +0.000 A 
ATOM      5  C   UNL     1       2.577   6.078  17.999  0.00  0.00    +0.000 A 
ATOM      6  C   UNL     1       3.967   6.039  18.133  0.00  0.00    +0.000 A 
ATOM      7  C   UNL     1       4.642   4.852  18.506  0.00  0.00    +0.000 A 
ENDROOT
BRANCH   7   8
ATOM      8  N   UNL     1       6.059   4.834  18.410  0.00  0.00    +0.000 N 
ATOM      9  C   UNL     1       6.852   4.411  17.369  0.00  0.00    +0.000 A 
ATOM     10  N   UNL     1       8.111   4.425  17.741  0.00  0.00    +0.000 NA
ATOM     11  N   UNL     1       8.110   4.879  19.031  0.00  0.00    +0.000 NA
ATOM     12  N   UNL     1       6.879   5.155  19.436  0.00  0.00    +0.000 NA
ENDBRANCH   7   8
BRANCH   5  13
ATOM     13  N   UNL     1       1.867   7.184  17.562  0.00  0.00    +0.000 N 
ATOM     14  H   UNL     1       1.347   7.036  16.702  0.00  0.00    +0.000 HD
BRANCH  13  15
ATOM     15  C   UNL     1       2.217   8.575  17.804  0.00  0.00    +0.000 C 
BRANCH  15  16
ATOM     16  C   UNL     1       1.559   9.218  19.010  0.00  0.00    +0.000 A 
ATOM     17  C   UNL     1       0.945  10.478  18.997  0.00  0.00    +0.000 A 
ATOM     18  C   UNL     1       0.260  10.954  20.125  0.00  0.00    +0.000 A 
ATOM     19  C   UNL     1       0.187  10.185  21.291  0.00  0.00    +0.000 A 
ATOM     20  C   UNL     1       0.853   8.961  21.340  0.00  0.00    +0.000 A 
ATOM     21  C   UNL     1       1.538   8.489  20.214  0.00  0.00    +0.000 A 
BRANCH  19  22
ATOM     22  C   UNL     1      -0.591  10.634  22.418  0.00  0.00    +0.000 C 
ATOM     23  N   UNL     1      -1.210  10.972  23.337  0.00  0.00    +0.000 NA
ENDBRANCH  19  22
ENDBRANCH  15  16
ENDBRANCH  13  15
ENDBRANCH   5  13
TORSDOF 5
ENDMDL
MODEL 9
REMARK VINA RESULT:      -6.8      3.164      8.241
REMARK  Name = 
REMARK  6 active torsions:
REMARK  status: ('A' for Active; 'I' for Inactive)
REMARK    1  A    between atoms: C_1  and  C_2
REMARK    2  A    between atoms: C_5  and  N_6
REMARK    3  A    between atoms: N_6  and  C_7
REMARK    4  A    between atoms: C_7  and  C_8
REMARK    5  A    between atoms: C_11  and  C_12
REMARK    6  A    between atoms: C_17  and  N_18
REMARK                            x       y       z     vdW  Elec       q    Type
REMARK                         _______ _______ _______ _____ _____    ______ ____
ROOT
ATOM      1  C   UNL     1       2.072   4.660  21.098  0.00  0.00    +0.000 C 
ATOM      2  C   UNL     1       2.030   5.915  20.264  0.00  0.00    +0.000 A 
ATOM      3  C   UNL     1       1.619   7.097  20.895  0.00  0.00    +0.000 A 
ATOM      4  C   UNL     1       1.527   8.298  20.186  0.00  0.00    +0.000 A 
ATOM      5  C   UNL     1       1.846   8.374  18.826  0.00  0.00    +0.000 A 
ATOM      6  C   UNL     1       2.346   7.220  18.218  0.00  0.00    +0.000 A 
ATOM      7  C   UNL     1       2.379   5.980  18.899  0.00  0.00    +0.000 A 
ENDROOT
BRANCH   7   8
ATOM      8  N   UNL     1       2.696   4.816  18.148  0.00  0.00    +0.000 N 
ATOM      9  C   UNL     1       3.929   4.307  17.817  0.00  0.00    +0.000 A 
ATOM     10  N   UNL     1       3.782   3.297  16.990  0.00  0.00    +0.000 NA
ATOM     11  N   UNL     1       2.433   3.161  16.812  0.00  0.00    +0.000 NA
ATOM     12  N   UNL     1       1.766   4.055  17.527  0.00  0.00    +0.000 NA
ENDBRANCH   7   8
BRANCH   5  13
ATOM     13  N   UNL     1       1.714   9.596  18.189  0.00  0.00    +0.000 N 
ATOM     14  H   UNL     1       2.474   9.822  17.553  0.00  0.00    +0.000 HD
BRANCH  13  15
ATOM     15  C   UNL     1       1.021  10.763  18.710  0.00  0.00    +0.000 C 
BRANCH  15  16
ATOM     16  C   UNL     1      -0.463  10.837  18.405  0.00  0.00    +0.000 A 
ATOM     17  C   UNL     1      -1.140   9.949  17.558  0.00  0.00    +0.000 A 
ATOM     18  C   UNL     1      -2.535  10.016  17.416  0.00  0.00    +0.000 A 
ATOM     19  C   UNL     1      -3.276  10.979  18.108  0.00  0.00    +0.000 A 
ATOM     20  C   UNL     1      -2.607  11.912  18.898  0.00  0.00    +0.000 A 
ATOM     21  C   UNL     1      -1.216  11.846  19.037  0.00  0.00    +0.000 A 
BRANCH  19  22
ATOM     22  C   UNL     1      -4.715  10.990  18.032  0.00  0.00    +0.000 C 
ATOM     23  N   UNL     1      -5.870  11.020  17.951  0.00  0.00    +0.000 NA
ENDBRANCH  19  22
ENDBRANCH  15  16
ENDBRANCH  13  15
ENDBRANCH   5  13
TORSDOF 5
ENDMDL
