MODEL 1
REMARK VINA RESULT:      -7.7      0.000      0.000
REMARK  Name = 
REMARK  6 active torsions:
REMARK  status: ('A' for Active; 'I' for Inactive)
REMARK    1  A    between atoms: C_1  and  C_2
REMARK    2  A    between atoms: C_11  and  C_12
REMARK    3  A    between atoms: C_12  and  C_13
REMARK    4  A    between atoms: C_12  and  C_14
REMARK    5  A    between atoms: C_15  and  O_16
REMARK    6  A    between atoms: C_19  and  C_20
REMARK                            x       y       z     vdW  Elec       q    Type
REMARK                         _______ _______ _______ _____ _____    ______ ____
ROOT
ATOM      1  C   UNL     1      -0.770  11.975  22.200  0.00  0.00    +0.000 C 
ATOM      2  C   UNL     1      -0.084  10.807  21.541  0.00  0.00    +0.000 A 
ATOM      3  C   UNL     1       0.051   9.623  22.260  0.00  0.00    +0.000 A 
ATOM      4  C   UNL     1       0.682   8.520  21.692  0.00  0.00    +0.000 A 
ATOM      5  C   UNL     1       1.210   8.542  20.384  0.00  0.00    +0.000 A 
ATOM      6  C   UNL     1       1.075   9.751  19.640  0.00  0.00    +0.000 A 
ATOM      7  C   UNL     1       1.604   9.767  18.334  0.00  0.00    +0.000 A 
ATOM      8  C   UNL     1       2.224   8.658  17.769  0.00  0.00    +0.000 A 
ATOM      9  C   UNL     1       2.355   7.475  18.487  0.00  0.00    +0.000 A 
ATOM     10  C   UNL     1       2.984   6.372  17.871  0.00  0.00    +0.000 A 
ATOM     11  C   UNL     1       3.176   5.151  18.534  0.00  0.00    +0.000 A 
ATOM     12  C   UNL     1       2.709   5.072  19.847  0.00  0.00    +0.000 A 
ATOM     13  C   UNL     1       2.061   6.154  20.460  0.00  0.00    +0.000 A 
ATOM     14  C   UNL     1       1.861   7.393  19.803  0.00  0.00    +0.000 A 
ATOM     15  C   UNL     1       0.426  10.886  20.224  0.00  0.00    +0.000 A 
ATOM     16  C   UNL     1       0.256  12.197  19.488  0.00  0.00    +0.000 C 
ENDROOT
BRANCH  11  17
ATOM     17  C   UNL     1       3.831   3.977  17.815  0.00  0.00    +0.000 C 
ATOM     18  C   UNL     1       2.789   2.958  17.340  0.00  0.00    +0.000 C 
ATOM     19  C   UNL     1       4.707   4.374  16.618  0.00  0.00    +0.000 C 
ENDBRANCH  11  17
BRANCH  12  20
ATOM     20  O   UNL     1       2.844   3.965  20.640  0.00  0.00    +0.000 OA
ATOM     21  H   UNL     1       3.569   3.413  20.317  0.00  0.00    +0.000 HD
ENDBRANCH  12  20
TORSDOF 2
ENDMDL
MODEL 2
REMARK VINA RESULT:      -7.5      0.796      1.128
REMARK  Name = 
REMARK  6 active torsions:
REMARK  status: ('A' for Active; 'I' for Inactive)
REMARK    1  A    between atoms: C_1  and  C_2
REMARK    2  A    between atoms: C_11  and  C_12
REMARK    3  A    between atoms: C_12  and  C_13
REMARK    4  A    between atoms: C_12  and  C_14
REMARK    5  A    between atoms: C_15  and  O_16
REMARK    6  A    between atoms: C_19  and  C_20
REMARK                            x       y       z     vdW  Elec       q    Type
REMARK                         _______ _______ _______ _____ _____    ______ ____
ROOT
ATOM      1  C   UNL     1      -1.359  11.799  22.709  0.00  0.00    +0.000 C 
ATOM      2  C   UNL     1      -0.542  10.827  21.900  0.00  0.00    +0.000 A 
ATOM      3  C   UNL     1      -0.224   9.595  22.464  0.00  0.00    +0.000 A 
ATOM      4  C   UNL     1       0.533   8.668  21.753  0.00  0.00    +0.000 A 
ATOM      5  C   UNL     1       1.011   8.922  20.450  0.00  0.00    +0.000 A 
ATOM      6  C   UNL     1       0.688  10.182  19.865  0.00  0.00    +0.000 A 
ATOM      7  C   UNL     1       1.167  10.430  18.563  0.00  0.00    +0.000 A 
ATOM      8  C   UNL     1       1.914   9.495  17.855  0.00  0.00    +0.000 A 
ATOM      9  C   UNL     1       2.229   8.264  18.418  0.00  0.00    +0.000 A 
ATOM     10  C   UNL     1       2.983   7.343  17.659  0.00  0.00    +0.000 A 
ATOM     11  C   UNL     1       3.361   6.089  18.161  0.00  0.00    +0.000 A 
ATOM     12  C   UNL     1       2.951   5.786  19.461  0.00  0.00    +0.000 A 
ATOM     13  C   UNL     1       2.182   6.685  20.214  0.00  0.00    +0.000 A 
ATOM     14  C   UNL     1       1.793   7.955  19.720  0.00  0.00    +0.000 A 
ATOM     15  C   UNL     1      -0.091  11.136  20.596  0.00  0.00    +0.000 A 
ATOM     16  C   UNL     1      -0.462  12.490  20.031  0.00  0.00    +0.000 C 
ENDROOT
BRANCH  11  17
ATOM     17  C   UNL     1       4.147   5.114  17.291  0.00  0.00    +0.000 C 
ATOM     18  C   UNL     1       5.593   4.971  17.776  0.00  0.00    +0.000 C 
ATOM     19  C   UNL     1       3.526   3.714  17.185  0.00  0.00    +0.000 C 
ENDBRANCH  11  17
BRANCH  12  20
ATOM     20  O   UNL     1       3.263   4.621  20.107  0.00  0.00    +0.000 OA
ATOM     21  H   UNL     1       4.222   4.520  20.164  0.00  0.00    +0.000 HD
ENDBRANCH  12  20
TORSDOF 2
ENDMDL
MODEL 3
REMARK VINA RESULT:      -7.4      0.896      1.120
REMARK  Name = 
REMARK  6 active torsions:
REMARK  status: ('A' for Active; 'I' for Inactive)
REMARK    1  A    between atoms: C_1  and  C_2
REMARK    2  A    between atoms: C_11  and  C_12
REMARK    3  A    between atoms: C_12  and  C_13
REMARK    4  A    between atoms: C_12  and  C_14
REMARK    5  A    between atoms: C_15  and  O_16
REMARK    6  A    between atoms: C_19  and  C_20
REMARK                            x       y       z     vdW  Elec       q    Type
REMARK                         _______ _______ _______ _____ _____    ______ ____
ROOT
ATOM      1  C   UNL     1      -1.336  12.925  22.444  0.00  0.00    +0.000 C 
ATOM      2  C   UNL     1      -0.631  11.757  21.808  0.00  0.00    +0.000 A 
ATOM      3  C   UNL     1      -0.449  10.600  22.560  0.00  0.00    +0.000 A 
ATOM      4  C   UNL     1       0.201   9.498  22.012  0.00  0.00    +0.000 A 
ATOM      5  C   UNL     1       0.703   9.493  20.694  0.00  0.00    +0.000 A 
ATOM      6  C   UNL     1       0.520  10.674  19.917  0.00  0.00    +0.000 A 
ATOM      7  C   UNL     1       1.022  10.664  18.599  0.00  0.00    +0.000 A 
ATOM      8  C   UNL     1       1.661   9.555  18.057  0.00  0.00    +0.000 A 
ATOM      9  C   UNL     1       1.839   8.399  18.808  0.00  0.00    +0.000 A 
ATOM     10  C   UNL     1       2.487   7.295  18.213  0.00  0.00    +0.000 A 
ATOM     11  C   UNL     1       2.726   6.101  18.908  0.00  0.00    +0.000 A 
ATOM     12  C   UNL     1       2.287   6.050  20.232  0.00  0.00    +0.000 A 
ATOM     13  C   UNL     1       1.622   7.133  20.825  0.00  0.00    +0.000 A 
ATOM     14  C   UNL     1       1.374   8.345  20.135  0.00  0.00    +0.000 A 
ATOM     15  C   UNL     1      -0.150  11.809  20.478  0.00  0.00    +0.000 A 
ATOM     16  C   UNL     1      -0.370  13.091  19.706  0.00  0.00    +0.000 C 
ENDROOT
BRANCH  11  17
ATOM     17  C   UNL     1       3.399   4.924  18.212  0.00  0.00    +0.000 C 
ATOM     18  C   UNL     1       2.367   3.952  17.631  0.00  0.00    +0.000 C 
ATOM     19  C   UNL     1       4.379   5.320  17.099  0.00  0.00    +0.000 C 
ENDBRANCH  11  17
BRANCH  12  20
ATOM     20  O   UNL     1       2.469   4.972  21.056  0.00  0.00    +0.000 OA
ATOM     21  H   UNL     1       3.382   4.948  21.372  0.00  0.00    +0.000 HD
ENDBRANCH  12  20
TORSDOF 2
ENDMDL
MODEL 4
REMARK VINA RESULT:      -7.4      1.126      1.866
REMARK  Name = 
REMARK  6 active torsions:
REMARK  status: ('A' for Active; 'I' for Inactive)
REMARK    1  A    between atoms: C_1  and  C_2
REMARK    2  A    between atoms: C_11  and  C_12
REMARK    3  A    between atoms: C_12  and  C_13
REMARK    4  A    between atoms: C_12  and  C_14
REMARK    5  A    between atoms: C_15  and  O_16
REMARK    6  A    between atoms: C_19  and  C_20
REMARK                            x       y       z     vdW  Elec       q    Type
REMARK                         _______ _______ _______ _____ _____    ______ ____
ROOT
ATOM      1  C   UNL     1      -1.959  12.541  23.278  0.00  0.00    +0.000 C 
ATOM      2  C   UNL     1      -1.156  11.571  22.453  0.00  0.00    +0.000 A 
ATOM      3  C   UNL     1      -0.753  10.374  23.039  0.00  0.00    +0.000 A 
ATOM      4  C   UNL     1      -0.006   9.450  22.314  0.00  0.00    +0.000 A 
ATOM      5  C   UNL     1       0.378   9.671  20.975  0.00  0.00    +0.000 A 
ATOM      6  C   UNL     1      -0.032  10.895  20.367  0.00  0.00    +0.000 A 
ATOM      7  C   UNL     1       0.354  11.111  19.029  0.00  0.00    +0.000 A 
ATOM      8  C   UNL     1       1.092  10.179  18.308  0.00  0.00    +0.000 A 
ATOM      9  C   UNL     1       1.491   8.983  18.893  0.00  0.00    +0.000 A 
ATOM     10  C   UNL     1       2.232   8.063  18.122  0.00  0.00    +0.000 A 
ATOM     11  C   UNL     1       2.692   6.844  18.643  0.00  0.00    +0.000 A 
ATOM     12  C   UNL     1       2.378   6.576  19.976  0.00  0.00    +0.000 A 
ATOM     13  C   UNL     1       1.622   7.474  20.745  0.00  0.00    +0.000 A 
ATOM     14  C   UNL     1       1.152   8.708  20.232  0.00  0.00    +0.000 A 
ATOM     15  C   UNL     1      -0.801  11.846  21.112  0.00  0.00    +0.000 A 
ATOM     16  C   UNL     1      -1.262  13.162  20.525  0.00  0.00    +0.000 C 
ENDROOT
BRANCH  11  17
ATOM     17  C   UNL     1       3.460   5.868  17.760  0.00  0.00    +0.000 C 
ATOM     18  C   UNL     1       4.912   5.713  18.226  0.00  0.00    +0.000 C 
ATOM     19  C   UNL     1       2.828   4.472  17.656  0.00  0.00    +0.000 C 
ENDBRANCH  11  17
BRANCH  12  20
ATOM     20  O   UNL     1       2.777   5.450  20.643  0.00  0.00    +0.000 OA
ATOM     21  H   UNL     1       2.007   4.915  20.878  0.00  0.00    +0.000 HD
ENDBRANCH  12  20
TORSDOF 2
ENDMDL
MODEL 5
REMARK VINA RESULT:      -7.4      1.893      3.268
REMARK  Name = 
REMARK  6 active torsions:
REMARK  status: ('A' for Active; 'I' for Inactive)
REMARK    1  A    between atoms: C_1  and  C_2
REMARK    2  A    between atoms: C_11  and  C_12
REMARK    3  A    between atoms: C_12  and  C_13
REMARK    4  A    between atoms: C_12  and  C_14
REMARK    5  A    between atoms: C_15  and  O_16
REMARK    6  A    between atoms: C_19  and  C_20
REMARK                            x       y       z     vdW  Elec       q    Type
REMARK                         _______ _______ _______ _____ _____    ______ ____
ROOT
ATOM      1  C   UNL     1      -0.625  11.130  20.387  0.00  0.00    +0.000 C 
ATOM      2  C   UNL     1       0.339  10.098  19.865  0.00  0.00    +0.000 A 
ATOM      3  C   UNL     1       1.027  10.366  18.686  0.00  0.00    +0.000 A 
ATOM      4  C   UNL     1       1.925   9.439  18.166  0.00  0.00    +0.000 A 
ATOM      5  C   UNL     1       2.181   8.200  18.792  0.00  0.00    +0.000 A 
ATOM      6  C   UNL     1       1.480   7.918  20.001  0.00  0.00    +0.000 A 
ATOM      7  C   UNL     1       1.739   6.680  20.623  0.00  0.00    +0.000 A 
ATOM      8  C   UNL     1       2.645   5.762  20.102  0.00  0.00    +0.000 A 
ATOM      9  C   UNL     1       3.334   6.033  18.926  0.00  0.00    +0.000 A 
ATOM     10  C   UNL     1       4.250   5.076  18.439  0.00  0.00    +0.000 A 
ATOM     11  C   UNL     1       4.969   5.262  17.249  0.00  0.00    +0.000 A 
ATOM     12  C   UNL     1       4.737   6.453  16.559  0.00  0.00    +0.000 A 
ATOM     13  C   UNL     1       3.846   7.420  17.046  0.00  0.00    +0.000 A 
ATOM     14  C   UNL     1       3.114   7.246  18.246  0.00  0.00    +0.000 A 
ATOM     15  C   UNL     1       0.556   8.872  20.537  0.00  0.00    +0.000 A 
ATOM     16  C   UNL     1      -0.220   8.629  21.813  0.00  0.00    +0.000 C 
ENDROOT
BRANCH  11  17
ATOM     17  C   UNL     1       5.972   4.214  16.782  0.00  0.00    +0.000 C 
ATOM     18  C   UNL     1       5.793   3.890  15.294  0.00  0.00    +0.000 C 
ATOM     19  C   UNL     1       7.441   4.586  17.027  0.00  0.00    +0.000 C 
ENDBRANCH  11  17
BRANCH  12  20
ATOM     20  O   UNL     1       5.333   6.773  15.369  0.00  0.00    +0.000 OA
ATOM     21  H   UNL     1       6.293   6.800  15.476  0.00  0.00    +0.000 HD
ENDBRANCH  12  20
TORSDOF 2
ENDMDL
MODEL 6
REMARK VINA RESULT:      -7.3      1.823      6.492
REMARK  Name = 
REMARK  6 active torsions:
REMARK  status: ('A' for Active; 'I' for Inactive)
REMARK    1  A    between atoms: C_1  and  C_2
REMARK    2  A    between atoms: C_11  and  C_12
REMARK    3  A    between atoms: C_12  and  C_13
REMARK    4  A    between atoms: C_12  and  C_14
REMARK    5  A    between atoms: C_15  and  O_16
REMARK    6  A    between atoms: C_19  and  C_20
REMARK                            x       y       z     vdW  Elec       q    Type
REMARK                         _______ _______ _______ _____ _____    ______ ____
ROOT
ATOM      1  C   UNL     1       4.196   3.161  18.866  0.00  0.00    +0.000 C 
ATOM      2  C   UNL     1       3.468   4.435  19.202  0.00  0.00    +0.000 A 
ATOM      3  C   UNL     1       2.778   4.507  20.409  0.00  0.00    +0.000 A 
ATOM      4  C   UNL     1       2.088   5.664  20.759  0.00  0.00    +0.000 A 
ATOM      5  C   UNL     1       2.048   6.803  19.926  0.00  0.00    +0.000 A 
ATOM      6  C   UNL     1       2.753   6.736  18.688  0.00  0.00    +0.000 A 
ATOM      7  C   UNL     1       2.712   7.877  17.861  0.00  0.00    +0.000 A 
ATOM      8  C   UNL     1       2.028   9.032  18.221  0.00  0.00    +0.000 A 
ATOM      9  C   UNL     1       1.342   9.104  19.428  0.00  0.00    +0.000 A 
ATOM     10  C   UNL     1       0.669  10.301  19.756  0.00  0.00    +0.000 A 
ATOM     11  C   UNL     1      -0.065  10.448  20.943  0.00  0.00    +0.000 A 
ATOM     12  C   UNL     1      -0.098   9.345  21.798  0.00  0.00    +0.000 A 
ATOM     13  C   UNL     1       0.587   8.160  21.492  0.00  0.00    +0.000 A 
ATOM     14  C   UNL     1       1.331   7.997  20.297  0.00  0.00    +0.000 A 
ATOM     15  C   UNL     1       3.465   5.547  18.328  0.00  0.00    +0.000 A 
ATOM     16  C   UNL     1       4.227   5.414  17.028  0.00  0.00    +0.000 C 
ENDROOT
BRANCH  11  17
ATOM     17  C   UNL     1      -0.747  11.771  21.269  0.00  0.00    +0.000 C 
ATOM     18  C   UNL     1       0.273  12.906  21.418  0.00  0.00    +0.000 C 
ATOM     19  C   UNL     1      -1.814  12.203  20.254  0.00  0.00    +0.000 C 
ENDBRANCH  11  17
BRANCH  12  20
ATOM     20  O   UNL     1      -0.791   9.315  22.977  0.00  0.00    +0.000 OA
ATOM     21  H   UNL     1      -0.255   8.901  23.666  0.00  0.00    +0.000 HD
ENDBRANCH  12  20
TORSDOF 2
ENDMDL
MODEL 7
REMARK VINA RESULT:      -7.3      1.284      1.669
REMARK  Name = 
REMARK  6 active torsions:
REMARK  status: ('A' for Active; 'I' for Inactive)
REMARK    1  A    between atoms: C_1  and  C_2
REMARK    2  A    between atoms: C_11  and  C_12
REMARK    3  A    between atoms: C_12  and  C_13
REMARK    4  A    between atoms: C_12  and  C_14
REMARK    5  A    between atoms: C_15  and  O_16
REMARK    6  A    between atoms: C_19  and  C_20
REMARK                            x       y       z     vdW  Elec       q    Type
REMARK                         _______ _______ _______ _____ _____    ______ ____
ROOT
ATOM      1  C   UNL     1       0.074  11.913  21.002  0.00  0.00    +0.000 C 
ATOM      2  C   UNL     1       0.560  10.511  20.749  0.00  0.00    +0.000 A 
ATOM      3  C   UNL     1       0.389   9.557  21.748  0.00  0.00    +0.000 A 
ATOM      4  C   UNL     1       0.827   8.249  21.558  0.00  0.00    +0.000 A 
ATOM      5  C   UNL     1       1.456   7.828  20.368  0.00  0.00    +0.000 A 
ATOM      6  C   UNL     1       1.634   8.799  19.339  0.00  0.00    +0.000 A 
ATOM      7  C   UNL     1       2.262   8.372  18.151  0.00  0.00    +0.000 A 
ATOM      8  C   UNL     1       2.687   7.062  17.965  0.00  0.00    +0.000 A 
ATOM      9  C   UNL     1       2.513   6.110  18.963  0.00  0.00    +0.000 A 
ATOM     10  C   UNL     1       2.954   4.790  18.727  0.00  0.00    +0.000 A 
ATOM     11  C   UNL     1       2.835   3.775  19.689  0.00  0.00    +0.000 A 
ATOM     12  C   UNL     1       2.254   4.133  20.906  0.00  0.00    +0.000 A 
ATOM     13  C   UNL     1       1.792   5.436  21.142  0.00  0.00    +0.000 A 
ATOM     14  C   UNL     1       1.905   6.470  20.180  0.00  0.00    +0.000 A 
ATOM     15  C   UNL     1       1.183  10.144  19.533  0.00  0.00    +0.000 A 
ATOM     16  C   UNL     1       1.347  11.220  18.481  0.00  0.00    +0.000 C 
ENDROOT
BRANCH  11  17
ATOM     17  C   UNL     1       3.295   2.356  19.374  0.00  0.00    +0.000 C 
ATOM     18  C   UNL     1       3.426   2.132  17.864  0.00  0.00    +0.000 C 
ATOM     19  C   UNL     1       4.615   1.953  20.045  0.00  0.00    +0.000 C 
ENDBRANCH  11  17
BRANCH  12  20
ATOM     20  O   UNL     1       2.094   3.272  21.957  0.00  0.00    +0.000 OA
ATOM     21  H   UNL     1       1.883   3.766  22.761  0.00  0.00    +0.000 HD
ENDBRANCH  12  20
TORSDOF 2
ENDMDL
MODEL 8
REMARK VINA RESULT:      -7.3      1.081      1.292
REMARK  Name = 
REMARK  6 active torsions:
REMARK  status: ('A' for Active; 'I' for Inactive)
REMARK    1  A    between atoms: C_1  and  C_2
REMARK    2  A    between atoms: C_11  and  C_12
REMARK    3  A    between atoms: C_12  and  C_13
REMARK    4  A    between atoms: C_12  and  C_14
REMARK    5  A    between atoms: C_15  and  O_16
REMARK    6  A    between atoms: C_19  and  C_20
REMARK                            x       y       z     vdW  Elec       q    Type
REMARK                         _______ _______ _______ _____ _____    ______ ____
ROOT
ATOM      1  C   UNL     1      -1.106  10.876  22.233  0.00  0.00    +0.000 C 
ATOM      2  C   UNL     1      -0.188   9.973  21.453  0.00  0.00    +0.000 A 
ATOM      3  C   UNL     1       0.205   8.768  22.028  0.00  0.00    +0.000 A 
ATOM      4  C   UNL     1       1.056   7.904  21.344  0.00  0.00    +0.000 A 
ATOM      5  C   UNL     1       1.557   8.197  20.058  0.00  0.00    +0.000 A 
ATOM      6  C   UNL     1       1.158   9.430  19.462  0.00  0.00    +0.000 A 
ATOM      7  C   UNL     1       1.661   9.717  18.177  0.00  0.00    +0.000 A 
ATOM      8  C   UNL     1       2.502   8.845  17.496  0.00  0.00    +0.000 A 
ATOM      9  C   UNL     1       2.892   7.640  18.070  0.00  0.00    +0.000 A 
ATOM     10  C   UNL     1       3.742   6.783  17.338  0.00  0.00    +0.000 A 
ATOM     11  C   UNL     1       4.199   5.560  17.854  0.00  0.00    +0.000 A 
ATOM     12  C   UNL     1       3.769   5.224  19.139  0.00  0.00    +0.000 A 
ATOM     13  C   UNL     1       2.907   6.059  19.864  0.00  0.00    +0.000 A 
ATOM     14  C   UNL     1       2.438   7.296  19.357  0.00  0.00    +0.000 A 
ATOM     15  C   UNL     1       0.282  10.318  20.164  0.00  0.00    +0.000 A 
ATOM     16  C   UNL     1      -0.173  11.641  19.587  0.00  0.00    +0.000 C 
ENDROOT
BRANCH  11  17
ATOM     17  C   UNL     1       5.087   4.652  17.012  0.00  0.00    +0.000 C 
ATOM     18  C   UNL     1       5.031   5.031  15.528  0.00  0.00    +0.000 C 
ATOM     19  C   UNL     1       6.558   4.617  17.452  0.00  0.00    +0.000 C 
ENDBRANCH  11  17
BRANCH  12  20
ATOM     20  O   UNL     1       4.148   4.085  19.796  0.00  0.00    +0.000 OA
ATOM     21  H   UNL     1       4.234   4.263  20.742  0.00  0.00    +0.000 HD
ENDBRANCH  12  20
TORSDOF 2
ENDMDL
MODEL 9
REMARK VINA RESULT:      -7.1      2.024      7.007
REMARK  Name = 
REMARK  6 active torsions:
REMARK  status: ('A' for Active; 'I' for Inactive)
REMARK    1  A    between atoms: C_1  and  C_2
REMARK    2  A    between atoms: C_11  and  C_12
REMARK    3  A    between atoms: C_12  and  C_13
REMARK    4  A    between atoms: C_12  and  C_14
REMARK    5  A    between atoms: C_15  and  O_16
REMARK    6  A    between atoms: C_19  and  C_20
REMARK                            x       y       z     vdW  Elec       q    Type
REMARK                         _______ _______ _______ _____ _____    ______ ____
ROOT
ATOM      1  C   UNL     1       5.838   3.755  16.259  0.00  0.00    +0.000 C 
ATOM      2  C   UNL     1       4.973   4.820  16.878  0.00  0.00    +0.000 A 
ATOM      3  C   UNL     1       4.872   6.051  16.237  0.00  0.00    +0.000 A 
ATOM      4  C   UNL     1       4.087   7.066  16.775  0.00  0.00    +0.000 A 
ATOM      5  C   UNL     1       3.365   6.907  17.977  0.00  0.00    +0.000 A 
ATOM      6  C   UNL     1       3.462   5.648  18.640  0.00  0.00    +0.000 A 
ATOM      7  C   UNL     1       2.739   5.494  19.840  0.00  0.00    +0.000 A 
ATOM      8  C   UNL     1       1.948   6.509  20.367  0.00  0.00    +0.000 A 
ATOM      9  C   UNL     1       1.846   7.737  19.723  0.00  0.00    +0.000 A 
ATOM     10  C   UNL     1       1.026   8.735  20.291  0.00  0.00    +0.000 A 
ATOM     11  C   UNL     1       0.886  10.008  19.717  0.00  0.00    +0.000 A 
ATOM     12  C   UNL     1       1.602  10.246  18.542  0.00  0.00    +0.000 A 
ATOM     13  C   UNL     1       2.402   9.253  17.959  0.00  0.00    +0.000 A 
ATOM     14  C   UNL     1       2.552   7.964  18.527  0.00  0.00    +0.000 A 
ATOM     15  C   UNL     1       4.270   4.603  18.086  0.00  0.00    +0.000 A 
ATOM     16  C   UNL     1       4.416   3.249  18.745  0.00  0.00    +0.000 C 
ENDROOT
BRANCH  11  17
ATOM     17  C   UNL     1      -0.039  11.041  20.348  0.00  0.00    +0.000 C 
ATOM     18  C   UNL     1      -1.345  11.182  19.558  0.00  0.00    +0.000 C 
ATOM     19  C   UNL     1      -0.384  10.771  21.819  0.00  0.00    +0.000 C 
ENDBRANCH  11  17
BRANCH  12  20
ATOM     20  O   UNL     1       1.599  11.441  17.876  0.00  0.00    +0.000 OA
ATOM     21  H   UNL     1       0.917  12.021  18.240  0.00  0.00    +0.000 HD
ENDBRANCH  12  20
TORSDOF 2
ENDMDL
