MODEL 1
REMARK VINA RESULT:      -9.0      0.000      0.000
REMARK  Name = 
REMARK  7 active torsions:
REMARK  status: ('A' for Active; 'I' for Inactive)
REMARK    1  A    between atoms: N_1  and  C_2
REMARK    2  A    between atoms: C_8  and  C_9
REMARK    3  A    between atoms: C_12  and  C_13
REMARK    4  A    between atoms: C_13  and  P_14
REMARK    5  A    between atoms: P_14  and  C_15
REMARK    6  A    between atoms: P_14  and  C_21
REMARK    7  A    between atoms: P_14  and  C_27
REMARK                            x       y       z     vdW  Elec       q    Type
REMARK                         _______ _______ _______ _____ _____    ______ ____
ROOT
ATOM      1  C   UNL     1      -0.361  10.146  20.693  0.00  0.00    +0.000 C 
ENDROOT
BRANCH   1   5
ATOM      2  C   UNL     1       2.561   7.807  18.505  0.00  0.00    +0.000 A 
ATOM      3  C   UNL     1       2.046   8.975  17.944  0.00  0.00    +0.000 A 
ATOM      4  C   UNL     1       1.134   9.755  18.656  0.00  0.00    +0.000 A 
ATOM      5  C   UNL     1       0.701   9.384  19.932  0.00  0.00    +0.000 A 
ATOM      6  C   UNL     1       1.283   8.257  20.525  0.00  0.00    +0.000 A 
ATOM      7  C   UNL     1       2.205   7.480  19.820  0.00  0.00    +0.000 A 
BRANCH   2  14
ATOM      8  C   UNL     1       4.899   3.744  16.899  0.00  0.00    +0.000 A 
ATOM      9  N   UNL     1       5.966   3.639  16.091  0.00  0.00    +0.000 NA
ATOM     10  C   UNL     1       6.488   4.768  15.563  0.00  0.00    +0.000 A 
ATOM     11  N   UNL     1       6.071   6.030  15.729  0.00  0.00    +0.000 NA
ATOM     12  C   UNL     1       5.003   6.114  16.542  0.00  0.00    +0.000 A 
ATOM     13  N   UNL     1       4.393   7.270  16.924  0.00  0.00    +0.000 NA
ATOM     14  C   UNL     1       3.425   6.908  17.748  0.00  0.00    +0.000 A 
ATOM     15  N   UNL     1       3.398   5.534  17.881  0.00  0.00    +0.000 N 
ATOM     16  C   UNL     1       4.406   5.012  17.126  0.00  0.00    +0.000 A 
ATOM     17  H   UNL     1       2.793   5.020  18.503  0.00  0.00    +0.000 HD
BRANCH   8  18
ATOM     18  N   UNL     1       4.374   2.590  17.450  0.00  0.00    +0.000 N 
ATOM     19  H   UNL     1       4.878   2.350  18.299  0.00  0.00    +0.000 HD
ATOM     20  H   UNL     1       4.203   1.824  16.818  0.00  0.00    +0.000 HD
ENDBRANCH   8  18
ENDBRANCH   2  14
ENDBRANCH   1   5
BRANCH   1  21
ATOM     21  P   UNL     1      -0.915  11.804  20.122  0.00  0.00    +0.000 P 
BRANCH  21  22
ATOM     22  C   UNL     1      -2.042  11.527  18.750  0.00  0.00    +0.000 A 
ATOM     23  C   UNL     1      -3.383  11.939  18.840  0.00  0.00    +0.000 A 
ATOM     24  C   UNL     1      -4.301  11.662  17.821  0.00  0.00    +0.000 A 
ATOM     25  C   UNL     1      -3.903  10.935  16.704  0.00  0.00    +0.000 A 
ATOM     26  C   UNL     1      -2.582  10.511  16.596  0.00  0.00    +0.000 A 
ATOM     27  C   UNL     1      -1.659  10.818  17.602  0.00  0.00    +0.000 A 
ENDBRANCH  21  22
BRANCH  21  28
ATOM     28  C   UNL     1      -1.715  12.534  21.548  0.00  0.00    +0.000 A 
ATOM     29  C   UNL     1      -1.984  11.727  22.665  0.00  0.00    +0.000 A 
ATOM     30  C   UNL     1      -2.700  12.222  23.758  0.00  0.00    +0.000 A 
ATOM     31  C   UNL     1      -3.160  13.535  23.750  0.00  0.00    +0.000 A 
ATOM     32  C   UNL     1      -2.875  14.359  22.664  0.00  0.00    +0.000 A 
ATOM     33  C   UNL     1      -2.146  13.866  21.579  0.00  0.00    +0.000 A 
ENDBRANCH  21  28
BRANCH  21  34
ATOM     34  C   UNL     1       0.525  12.782  19.700  0.00  0.00    +0.000 A 
ATOM     35  C   UNL     1       1.590  12.962  20.600  0.00  0.00    +0.000 A 
ATOM     36  C   UNL     1       2.730  13.685  20.242  0.00  0.00    +0.000 A 
ATOM     37  C   UNL     1       2.815  14.265  18.984  0.00  0.00    +0.000 A 
ATOM     38  C   UNL     1       1.754  14.134  18.091  0.00  0.00    +0.000 A 
ATOM     39  C   UNL     1       0.615  13.406  18.450  0.00  0.00    +0.000 A 
ENDBRANCH  21  34
ENDBRANCH   1  21
TORSDOF 7
ENDMDL
MODEL 2
REMARK VINA RESULT:      -8.9      0.642      1.735
REMARK  Name = 
REMARK  7 active torsions:
REMARK  status: ('A' for Active; 'I' for Inactive)
REMARK    1  A    between atoms: N_1  and  C_2
REMARK    2  A    between atoms: C_8  and  C_9
REMARK    3  A    between atoms: C_12  and  C_13
REMARK    4  A    between atoms: C_13  and  P_14
REMARK    5  A    between atoms: P_14  and  C_15
REMARK    6  A    between atoms: P_14  and  C_21
REMARK    7  A    between atoms: P_14  and  C_27
REMARK                            x       y       z     vdW  Elec       q    Type
REMARK                         _______ _______ _______ _____ _____    ______ ____
ROOT
ATOM      1  C   UNL     1      -0.426   9.973  20.833  0.00  0.00    +0.000 C 
ENDROOT
BRANCH   1   5
ATOM      2  C   UNL     1       2.582   7.537  18.882  0.00  0.00    +0.000 A 
ATOM      3  C   UNL     1       2.136   8.708  18.273  0.00  0.00    +0.000 A 
ATOM      4  C   UNL     1       1.196   9.519  18.910  0.00  0.00    +0.000 A 
ATOM      5  C   UNL     1       0.668   9.177  20.157  0.00  0.00    +0.000 A 
ATOM      6  C   UNL     1       1.179   8.044  20.803  0.00  0.00    +0.000 A 
ATOM      7  C   UNL     1       2.128   7.236  20.173  0.00  0.00    +0.000 A 
BRANCH   2  14
ATOM      8  C   UNL     1       6.439   5.643  16.414  0.00  0.00    +0.000 A 
ATOM      9  N   UNL     1       6.552   4.460  15.788  0.00  0.00    +0.000 NA
ATOM     10  C   UNL     1       5.516   3.595  15.853  0.00  0.00    +0.000 A 
ATOM     11  N   UNL     1       4.346   3.750  16.487  0.00  0.00    +0.000 NA
ATOM     12  C   UNL     1       4.253   4.940  17.106  0.00  0.00    +0.000 A 
ATOM     13  N   UNL     1       3.164   5.389  17.791  0.00  0.00    +0.000 NA
ATOM     14  C   UNL     1       3.474   6.607  18.198  0.00  0.00    +0.000 A 
ATOM     15  N   UNL     1       4.754   6.934  17.798  0.00  0.00    +0.000 N 
ATOM     16  C   UNL     1       5.263   5.885  17.091  0.00  0.00    +0.000 A 
ATOM     17  H   UNL     1       5.196   7.831  17.932  0.00  0.00    +0.000 HD
BRANCH   8  18
ATOM     18  N   UNL     1       7.494   6.533  16.335  0.00  0.00    +0.000 N 
ATOM     19  H   UNL     1       8.225   6.263  16.987  0.00  0.00    +0.000 HD
ATOM     20  H   UNL     1       7.260   7.514  16.332  0.00  0.00    +0.000 HD
ENDBRANCH   8  18
ENDBRANCH   2  14
ENDBRANCH   1   5
BRANCH   1  21
ATOM     21  P   UNL     1      -1.009  11.562  20.113  0.00  0.00    +0.000 P 
BRANCH  21  22
ATOM     22  C   UNL     1      -2.042  11.142  18.704  0.00  0.00    +0.000 A 
ATOM     23  C   UNL     1      -1.548  10.306  17.688  0.00  0.00    +0.000 A 
ATOM     24  C   UNL     1      -2.301  10.030  16.541  0.00  0.00    +0.000 A 
ATOM     25  C   UNL     1      -3.552  10.615  16.372  0.00  0.00    +0.000 A 
ATOM     26  C   UNL     1      -4.059  11.450  17.362  0.00  0.00    +0.000 A 
ATOM     27  C   UNL     1      -3.316  11.698  18.523  0.00  0.00    +0.000 A 
ENDBRANCH  21  22
BRANCH  21  28
ATOM     28  C   UNL     1      -1.918  12.356  21.436  0.00  0.00    +0.000 A 
ATOM     29  C   UNL     1      -2.076  11.679  22.655  0.00  0.00    +0.000 A 
ATOM     30  C   UNL     1      -2.866  12.209  23.679  0.00  0.00    +0.000 A 
ATOM     31  C   UNL     1      -3.512  13.427  23.497  0.00  0.00    +0.000 A 
ATOM     32  C   UNL     1      -3.342  14.128  22.306  0.00  0.00    +0.000 A 
ATOM     33  C   UNL     1      -2.540  13.602  21.290  0.00  0.00    +0.000 A 
ENDBRANCH  21  28
BRANCH  21  34
ATOM     34  C   UNL     1       0.415  12.569  19.703  0.00  0.00    +0.000 A 
ATOM     35  C   UNL     1       0.543  13.200  18.454  0.00  0.00    +0.000 A 
ATOM     36  C   UNL     1       1.633  14.023  18.163  0.00  0.00    +0.000 A 
ATOM     37  C   UNL     1       2.632  14.209  19.110  0.00  0.00    +0.000 A 
ATOM     38  C   UNL     1       2.545  13.561  20.339  0.00  0.00    +0.000 A 
ATOM     39  C   UNL     1       1.451  12.740  20.630  0.00  0.00    +0.000 A 
ENDBRANCH  21  34
ENDBRANCH   1  21
TORSDOF 7
ENDMDL
MODEL 3
REMARK VINA RESULT:      -8.9      0.618      1.529
REMARK  Name = 
REMARK  7 active torsions:
REMARK  status: ('A' for Active; 'I' for Inactive)
REMARK    1  A    between atoms: N_1  and  C_2
REMARK    2  A    between atoms: C_8  and  C_9
REMARK    3  A    between atoms: C_12  and  C_13
REMARK    4  A    between atoms: C_13  and  P_14
REMARK    5  A    between atoms: P_14  and  C_15
REMARK    6  A    between atoms: P_14  and  C_21
REMARK    7  A    between atoms: P_14  and  C_27
REMARK                            x       y       z     vdW  Elec       q    Type
REMARK                         _______ _______ _______ _____ _____    ______ ____
ROOT
ATOM      1  C   UNL     1      -0.382  10.002  20.800  0.00  0.00    +0.000 C 
ENDROOT
BRANCH   1   5
ATOM      2  C   UNL     1       2.613   7.542  18.859  0.00  0.00    +0.000 A 
ATOM      3  C   UNL     1       2.181   8.720  18.250  0.00  0.00    +0.000 A 
ATOM      4  C   UNL     1       1.246   9.538  18.885  0.00  0.00    +0.000 A 
ATOM      5  C   UNL     1       0.707   9.197  20.128  0.00  0.00    +0.000 A 
ATOM      6  C   UNL     1       1.204   8.058  20.774  0.00  0.00    +0.000 A 
ATOM      7  C   UNL     1       2.149   7.243  20.147  0.00  0.00    +0.000 A 
BRANCH   2  14
ATOM      8  C   UNL     1       6.466   5.618  16.408  0.00  0.00    +0.000 A 
ATOM      9  N   UNL     1       6.571   4.437  15.779  0.00  0.00    +0.000 NA
ATOM     10  C   UNL     1       5.526   3.582  15.834  0.00  0.00    +0.000 A 
ATOM     11  N   UNL     1       4.353   3.747  16.461  0.00  0.00    +0.000 NA
ATOM     12  C   UNL     1       4.268   4.935  17.083  0.00  0.00    +0.000 A 
ATOM     13  N   UNL     1       3.179   5.392  17.763  0.00  0.00    +0.000 NA
ATOM     14  C   UNL     1       3.500   6.606  18.177  0.00  0.00    +0.000 A 
ATOM     15  N   UNL     1       4.786   6.921  17.787  0.00  0.00    +0.000 N 
ATOM     16  C   UNL     1       5.288   5.870  17.078  0.00  0.00    +0.000 A 
ATOM     17  H   UNL     1       5.236   7.813  17.927  0.00  0.00    +0.000 HD
BRANCH   8  18
ATOM     18  N   UNL     1       7.530   6.498  16.340  0.00  0.00    +0.000 N 
ATOM     19  H   UNL     1       8.101   6.417  17.176  0.00  0.00    +0.000 HD
ATOM     20  H   UNL     1       7.321   7.440  16.049  0.00  0.00    +0.000 HD
ENDBRANCH   8  18
ENDBRANCH   2  14
ENDBRANCH   1   5
BRANCH   1  21
ATOM     21  P   UNL     1      -0.920  11.617  20.103  0.00  0.00    +0.000 P 
BRANCH  21  22
ATOM     22  C   UNL     1      -1.946  11.246  18.676  0.00  0.00    +0.000 A 
ATOM     23  C   UNL     1      -3.251  11.762  18.587  0.00  0.00    +0.000 A 
ATOM     24  C   UNL     1      -4.099  11.421  17.528  0.00  0.00    +0.000 A 
ATOM     25  C   UNL     1      -3.670  10.528  16.551  0.00  0.00    +0.000 A 
ATOM     26  C   UNL     1      -2.385  10.000  16.621  0.00  0.00    +0.000 A 
ATOM     27  C   UNL     1      -1.528  10.368  17.665  0.00  0.00    +0.000 A 
ENDBRANCH  21  22
BRANCH  21  28
ATOM     28  C   UNL     1      -1.825  12.409  21.429  0.00  0.00    +0.000 A 
ATOM     29  C   UNL     1      -2.113  13.779  21.334  0.00  0.00    +0.000 A 
ATOM     30  C   UNL     1      -2.721  14.465  22.388  0.00  0.00    +0.000 A 
ATOM     31  C   UNL     1      -3.053  13.788  23.557  0.00  0.00    +0.000 A 
ATOM     32  C   UNL     1      -2.804  12.421  23.657  0.00  0.00    +0.000 A 
ATOM     33  C   UNL     1      -2.208  11.736  22.596  0.00  0.00    +0.000 A 
ENDBRANCH  21  28
BRANCH  21  34
ATOM     34  C   UNL     1       0.532  12.597  19.726  0.00  0.00    +0.000 A 
ATOM     35  C   UNL     1       1.526  12.851  20.686  0.00  0.00    +0.000 A 
ATOM     36  C   UNL     1       2.678  13.574  20.367  0.00  0.00    +0.000 A 
ATOM     37  C   UNL     1       2.844  14.080  19.084  0.00  0.00    +0.000 A 
ATOM     38  C   UNL     1       1.852  13.875  18.129  0.00  0.00    +0.000 A 
ATOM     39  C   UNL     1       0.701  13.147  18.449  0.00  0.00    +0.000 A 
ENDBRANCH  21  34
ENDBRANCH   1  21
TORSDOF 7
ENDMDL
MODEL 4
REMARK VINA RESULT:      -8.9      0.255      4.063
REMARK  Name = 
REMARK  7 active torsions:
REMARK  status: ('A' for Active; 'I' for Inactive)
REMARK    1  A    between atoms: N_1  and  C_2
REMARK    2  A    between atoms: C_8  and  C_9
REMARK    3  A    between atoms: C_12  and  C_13
REMARK    4  A    between atoms: C_13  and  P_14
REMARK    5  A    between atoms: P_14  and  C_15
REMARK    6  A    between atoms: P_14  and  C_21
REMARK    7  A    between atoms: P_14  and  C_27
REMARK                            x       y       z     vdW  Elec       q    Type
REMARK                         _______ _______ _______ _____ _____    ______ ____
ROOT
ATOM      1  C   UNL     1      -0.233  10.172  20.954  0.00  0.00    +0.000 C 
ENDROOT
BRANCH   1   5
ATOM      2  C   UNL     1       2.551   7.799  18.629  0.00  0.00    +0.000 A 
ATOM      3  C   UNL     1       2.105   9.025  18.137  0.00  0.00    +0.000 A 
ATOM      4  C   UNL     1       1.239   9.813  18.895  0.00  0.00    +0.000 A 
ATOM      5  C   UNL     1       0.784   9.396  20.148  0.00  0.00    +0.000 A 
ATOM      6  C   UNL     1       1.299   8.204  20.674  0.00  0.00    +0.000 A 
ATOM      7  C   UNL     1       2.175   7.417  19.924  0.00  0.00    +0.000 A 
BRANCH   2  14
ATOM      8  C   UNL     1       4.789   3.731  16.898  0.00  0.00    +0.000 A 
ATOM      9  N   UNL     1       5.795   3.623  16.015  0.00  0.00    +0.000 NA
ATOM     10  C   UNL     1       6.270   4.749  15.438  0.00  0.00    +0.000 A 
ATOM     11  N   UNL     1       5.858   6.010  15.621  0.00  0.00    +0.000 NA
ATOM     12  C   UNL     1       4.853   6.097  16.509  0.00  0.00    +0.000 A 
ATOM     13  N   UNL     1       4.265   7.254  16.924  0.00  0.00    +0.000 NA
ATOM     14  C   UNL     1       3.363   6.896  17.820  0.00  0.00    +0.000 A 
ATOM     15  N   UNL     1       3.354   5.524  17.969  0.00  0.00    +0.000 N 
ATOM     16  C   UNL     1       4.307   4.998  17.147  0.00  0.00    +0.000 A 
ATOM     17  H   UNL     1       2.799   5.013  18.639  0.00  0.00    +0.000 HD
BRANCH   8  18
ATOM     18  N   UNL     1       4.313   2.580  17.498  0.00  0.00    +0.000 N 
ATOM     19  H   UNL     1       3.323   2.470  17.300  0.00  0.00    +0.000 HD
ATOM     20  H   UNL     1       4.582   2.425  18.457  0.00  0.00    +0.000 HD
ENDBRANCH   8  18
ENDBRANCH   2  14
ENDBRANCH   1   5
BRANCH   1  21
ATOM     21  P   UNL     1      -0.859  11.795  20.357  0.00  0.00    +0.000 P 
BRANCH  21  22
ATOM     22  C   UNL     1       0.577  12.744  19.841  0.00  0.00    +0.000 A 
ATOM     23  C   UNL     1       0.697  13.181  18.511  0.00  0.00    +0.000 A 
ATOM     24  C   UNL     1       1.843  13.848  18.064  0.00  0.00    +0.000 A 
ATOM     25  C   UNL     1       2.908  14.063  18.932  0.00  0.00    +0.000 A 
ATOM     26  C   UNL     1       2.814  13.635  20.253  0.00  0.00    +0.000 A 
ATOM     27  C   UNL     1       1.653  12.995  20.704  0.00  0.00    +0.000 A 
ENDBRANCH  21  22
BRANCH  21  28
ATOM     28  C   UNL     1      -1.955  11.391  19.000  0.00  0.00    +0.000 A 
ATOM     29  C   UNL     1      -3.249  11.935  18.985  0.00  0.00    +0.000 A 
ATOM     30  C   UNL     1      -4.176  11.566  18.006  0.00  0.00    +0.000 A 
ATOM     31  C   UNL     1      -3.822  10.645  17.026  0.00  0.00    +0.000 A 
ATOM     32  C   UNL     1      -2.533  10.119  17.007  0.00  0.00    +0.000 A 
ATOM     33  C   UNL     1      -1.604  10.500  17.978  0.00  0.00    +0.000 A 
ENDBRANCH  21  28
BRANCH  21  34
ATOM     34  C   UNL     1      -1.813  12.564  21.664  0.00  0.00    +0.000 A 
ATOM     35  C   UNL     1      -2.367  11.816  22.717  0.00  0.00    +0.000 A 
ATOM     36  C   UNL     1      -3.066  12.432  23.758  0.00  0.00    +0.000 A 
ATOM     37  C   UNL     1      -3.248  13.808  23.750  0.00  0.00    +0.000 A 
ATOM     38  C   UNL     1      -2.742  14.564  22.695  0.00  0.00    +0.000 A 
ATOM     39  C   UNL     1      -2.039  13.946  21.656  0.00  0.00    +0.000 A 
ENDBRANCH  21  34
ENDBRANCH   1  21
TORSDOF 7
ENDMDL
MODEL 5
REMARK VINA RESULT:      -8.9      0.229      1.150
REMARK  Name = 
REMARK  7 active torsions:
REMARK  status: ('A' for Active; 'I' for Inactive)
REMARK    1  A    between atoms: N_1  and  C_2
REMARK    2  A    between atoms: C_8  and  C_9
REMARK    3  A    between atoms: C_12  and  C_13
REMARK    4  A    between atoms: C_13  and  P_14
REMARK    5  A    between atoms: P_14  and  C_15
REMARK    6  A    between atoms: P_14  and  C_21
REMARK    7  A    between atoms: P_14  and  C_27
REMARK                            x       y       z     vdW  Elec       q    Type
REMARK                         _______ _______ _______ _____ _____    ______ ____
ROOT
ATOM      1  C   UNL     1      -0.331  10.073  20.789  0.00  0.00    +0.000 C 
ENDROOT
BRANCH   1   5
ATOM      2  C   UNL     1       2.569   7.750  18.556  0.00  0.00    +0.000 A 
ATOM      3  C   UNL     1       2.102   8.958  18.040  0.00  0.00    +0.000 A 
ATOM      4  C   UNL     1       1.198   9.731  18.768  0.00  0.00    +0.000 A 
ATOM      5  C   UNL     1       0.726   9.316  20.016  0.00  0.00    +0.000 A 
ATOM      6  C   UNL     1       1.259   8.145  20.567  0.00  0.00    +0.000 A 
ATOM      7  C   UNL     1       2.174   7.373  19.847  0.00  0.00    +0.000 A 
BRANCH   2  14
ATOM      8  C   UNL     1       4.906   3.713  16.885  0.00  0.00    +0.000 A 
ATOM      9  N   UNL     1       5.955   3.619  16.052  0.00  0.00    +0.000 NA
ATOM     10  C   UNL     1       6.454   4.754  15.515  0.00  0.00    +0.000 A 
ATOM     11  N   UNL     1       6.029   6.012  15.694  0.00  0.00    +0.000 NA
ATOM     12  C   UNL     1       4.981   6.084  16.532  0.00  0.00    +0.000 A 
ATOM     13  N   UNL     1       4.369   7.234  16.932  0.00  0.00    +0.000 NA
ATOM     14  C   UNL     1       3.424   6.861  17.777  0.00  0.00    +0.000 A 
ATOM     15  N   UNL     1       3.412   5.487  17.907  0.00  0.00    +0.000 N 
ATOM     16  C   UNL     1       4.407   4.975  17.127  0.00  0.00    +0.000 A 
ATOM     17  H   UNL     1       2.827   4.965  18.541  0.00  0.00    +0.000 HD
BRANCH   8  18
ATOM     18  N   UNL     1       4.404   2.553  17.444  0.00  0.00    +0.000 N 
ATOM     19  H   UNL     1       4.369   2.642  18.456  0.00  0.00    +0.000 HD
ATOM     20  H   UNL     1       4.783   1.684  17.101  0.00  0.00    +0.000 HD
ENDBRANCH   8  18
ENDBRANCH   2  14
ENDBRANCH   1   5
BRANCH   1  21
ATOM     21  P   UNL     1      -1.013  11.653  20.140  0.00  0.00    +0.000 P 
BRANCH  21  22
ATOM     22  C   UNL     1      -2.063  11.227  18.745  0.00  0.00    +0.000 A 
ATOM     23  C   UNL     1      -1.572  10.413  17.711  0.00  0.00    +0.000 A 
ATOM     24  C   UNL     1      -2.340  10.135  16.575  0.00  0.00    +0.000 A 
ATOM     25  C   UNL     1      -3.606  10.695  16.435  0.00  0.00    +0.000 A 
ATOM     26  C   UNL     1      -4.111  11.508  17.444  0.00  0.00    +0.000 A 
ATOM     27  C   UNL     1      -3.352  11.759  18.593  0.00  0.00    +0.000 A 
ENDBRANCH  21  22
BRANCH  21  28
ATOM     28  C   UNL     1      -1.924  12.355  21.513  0.00  0.00    +0.000 A 
ATOM     29  C   UNL     1      -2.401  13.671  21.412  0.00  0.00    +0.000 A 
ATOM     30  C   UNL     1      -3.022  14.299  22.494  0.00  0.00    +0.000 A 
ATOM     31  C   UNL     1      -3.178  13.618  23.697  0.00  0.00    +0.000 A 
ATOM     32  C   UNL     1      -2.739  12.300  23.806  0.00  0.00    +0.000 A 
ATOM     33  C   UNL     1      -2.131  11.670  22.717  0.00  0.00    +0.000 A 
ENDBRANCH  21  28
BRANCH  21  34
ATOM     34  C   UNL     1       0.346  12.745  19.727  0.00  0.00    +0.000 A 
ATOM     35  C   UNL     1       1.436  12.933  20.593  0.00  0.00    +0.000 A 
ATOM     36  C   UNL     1       2.514  13.747  20.239  0.00  0.00    +0.000 A 
ATOM     37  C   UNL     1       2.509  14.411  19.020  0.00  0.00    +0.000 A 
ATOM     38  C   UNL     1       1.419  14.271  18.164  0.00  0.00    +0.000 A 
ATOM     39  C   UNL     1       0.343  13.451  18.518  0.00  0.00    +0.000 A 
ENDBRANCH  21  34
ENDBRANCH   1  21
TORSDOF 7
ENDMDL
MODEL 6
REMARK VINA RESULT:      -8.8      0.919      1.194
REMARK  Name = 
REMARK  7 active torsions:
REMARK  status: ('A' for Active; 'I' for Inactive)
REMARK    1  A    between atoms: N_1  and  C_2
REMARK    2  A    between atoms: C_8  and  C_9
REMARK    3  A    between atoms: C_12  and  C_13
REMARK    4  A    between atoms: C_13  and  P_14
REMARK    5  A    between atoms: P_14  and  C_15
REMARK    6  A    between atoms: P_14  and  C_21
REMARK    7  A    between atoms: P_14  and  C_27
REMARK                            x       y       z     vdW  Elec       q    Type
REMARK                         _______ _______ _______ _____ _____    ______ ____
ROOT
ATOM      1  C   UNL     1      -0.383  10.306  20.690  0.00  0.00    +0.000 C 
ENDROOT
BRANCH   1   5
ATOM      2  C   UNL     1       2.459   7.884  18.489  0.00  0.00    +0.000 A 
ATOM      3  C   UNL     1       1.892   9.007  17.888  0.00  0.00    +0.000 A 
ATOM      4  C   UNL     1       1.006   9.814  18.601  0.00  0.00    +0.000 A 
ATOM      5  C   UNL     1       0.651   9.516  19.919  0.00  0.00    +0.000 A 
ATOM      6  C   UNL     1       1.284   8.437  20.546  0.00  0.00    +0.000 A 
ATOM      7  C   UNL     1       2.182   7.632  19.839  0.00  0.00    +0.000 A 
BRANCH   2  14
ATOM      8  C   UNL     1       4.721   3.750  16.957  0.00  0.00    +0.000 A 
ATOM      9  N   UNL     1       5.770   3.609  16.130  0.00  0.00    +0.000 NA
ATOM     10  C   UNL     1       6.292   4.717  15.557  0.00  0.00    +0.000 A 
ATOM     11  N   UNL     1       5.891   5.988  15.694  0.00  0.00    +0.000 NA
ATOM     12  C   UNL     1       4.842   6.107  16.527  0.00  0.00    +0.000 A 
ATOM     13  N   UNL     1       4.252   7.280  16.887  0.00  0.00    +0.000 NA
ATOM     14  C   UNL     1       3.298   6.953  17.741  0.00  0.00    +0.000 A 
ATOM     15  N   UNL     1       3.260   5.584  17.916  0.00  0.00    +0.000 N 
ATOM     16  C   UNL     1       4.246   5.029  17.156  0.00  0.00    +0.000 A 
ATOM     17  H   UNL     1       2.663   5.096  18.566  0.00  0.00    +0.000 HD
BRANCH   8  18
ATOM     18  N   UNL     1       4.197   2.619  17.553  0.00  0.00    +0.000 N 
ATOM     19  H   UNL     1       3.681   2.874  18.390  0.00  0.00    +0.000 HD
ATOM     20  H   UNL     1       4.817   1.830  17.652  0.00  0.00    +0.000 HD
ENDBRANCH   8  18
ENDBRANCH   2  14
ENDBRANCH   1   5
BRANCH   1  21
ATOM     21  P   UNL     1      -1.242  11.735  19.912  0.00  0.00    +0.000 P 
BRANCH  21  22
ATOM     22  C   UNL     1      -2.049  11.109  18.434  0.00  0.00    +0.000 A 
ATOM     23  C   UNL     1      -2.770   9.904  18.476  0.00  0.00    +0.000 A 
ATOM     24  C   UNL     1      -3.338   9.353  17.322  0.00  0.00    +0.000 A 
ATOM     25  C   UNL     1      -3.165   9.981  16.093  0.00  0.00    +0.000 A 
ATOM     26  C   UNL     1      -2.450  11.172  16.025  0.00  0.00    +0.000 A 
ATOM     27  C   UNL     1      -1.911  11.737  17.187  0.00  0.00    +0.000 A 
ENDBRANCH  21  22
BRANCH  21  28
ATOM     28  C   UNL     1      -2.400  12.302  21.155  0.00  0.00    +0.000 A 
ATOM     29  C   UNL     1      -2.089  12.117  22.511  0.00  0.00    +0.000 A 
ATOM     30  C   UNL     1      -3.005  12.445  23.513  0.00  0.00    +0.000 A 
ATOM     31  C   UNL     1      -4.250  12.964  23.174  0.00  0.00    +0.000 A 
ATOM     32  C   UNL     1      -4.564  13.184  21.835  0.00  0.00    +0.000 A 
ATOM     33  C   UNL     1      -3.640  12.869  20.835  0.00  0.00    +0.000 A 
ENDBRANCH  21  28
BRANCH  21  34
ATOM     34  C   UNL     1      -0.044  13.030  19.601  0.00  0.00    +0.000 A 
ATOM     35  C   UNL     1      -0.434  14.327  19.226  0.00  0.00    +0.000 A 
ATOM     36  C   UNL     1       0.505  15.342  19.034  0.00  0.00    +0.000 A 
ATOM     37  C   UNL     1       1.858  15.071  19.189  0.00  0.00    +0.000 A 
ATOM     38  C   UNL     1       2.269  13.783  19.520  0.00  0.00    +0.000 A 
ATOM     39  C   UNL     1       1.326  12.768  19.716  0.00  0.00    +0.000 A 
ENDBRANCH  21  34
ENDBRANCH   1  21
TORSDOF 7
ENDMDL
MODEL 7
REMARK VINA RESULT:      -8.8      0.758      1.794
REMARK  Name = 
REMARK  7 active torsions:
REMARK  status: ('A' for Active; 'I' for Inactive)
REMARK    1  A    between atoms: N_1  and  C_2
REMARK    2  A    between atoms: C_8  and  C_9
REMARK    3  A    between atoms: C_12  and  C_13
REMARK    4  A    between atoms: C_13  and  P_14
REMARK    5  A    between atoms: P_14  and  C_15
REMARK    6  A    between atoms: P_14  and  C_21
REMARK    7  A    between atoms: P_14  and  C_27
REMARK                            x       y       z     vdW  Elec       q    Type
REMARK                         _______ _______ _______ _____ _____    ______ ____
ROOT
ATOM      1  C   UNL     1      -0.104  10.023  20.903  0.00  0.00    +0.000 C 
ENDROOT
BRANCH   1   5
ATOM      2  C   UNL     1       2.593   7.361  18.798  0.00  0.00    +0.000 A 
ATOM      3  C   UNL     1       2.085   6.992  20.043  0.00  0.00    +0.000 A 
ATOM      4  C   UNL     1       1.187   7.825  20.711  0.00  0.00    +0.000 A 
ATOM      5  C   UNL     1       0.785   9.047  20.166  0.00  0.00    +0.000 A 
ATOM      6  C   UNL     1       1.231   9.375  18.880  0.00  0.00    +0.000 A 
ATOM      7  C   UNL     1       2.122   8.539  18.203  0.00  0.00    +0.000 A 
BRANCH   2  14
ATOM      8  C   UNL     1       6.793   6.028  16.534  0.00  0.00    +0.000 A 
ATOM      9  N   UNL     1       7.065   4.918  15.827  0.00  0.00    +0.000 NA
ATOM     10  C   UNL     1       6.112   3.965  15.732  0.00  0.00    +0.000 A 
ATOM     11  N   UNL     1       4.886   3.963  16.272  0.00  0.00    +0.000 NA
ATOM     12  C   UNL     1       4.633   5.082  16.973  0.00  0.00    +0.000 A 
ATOM     13  N   UNL     1       3.456   5.374  17.594  0.00  0.00    +0.000 NA
ATOM     14  C   UNL     1       3.619   6.574  18.123  0.00  0.00    +0.000 A 
ATOM     15  N   UNL     1       4.891   7.044  17.864  0.00  0.00    +0.000 N 
ATOM     16  C   UNL     1       5.549   6.108  17.122  0.00  0.00    +0.000 A 
ATOM     17  H   UNL     1       5.236   7.960  18.107  0.00  0.00    +0.000 HD
BRANCH   8  18
ATOM     18  N   UNL     1       7.764   7.008  16.619  0.00  0.00    +0.000 N 
ATOM     19  H   UNL     1       7.586   7.733  15.929  0.00  0.00    +0.000 HD
ATOM     20  H   UNL     1       8.720   6.695  16.679  0.00  0.00    +0.000 HD
ENDBRANCH   8  18
ENDBRANCH   2  14
ENDBRANCH   1   5
BRANCH   1  21
ATOM     21  P   UNL     1      -0.602  11.612  20.122  0.00  0.00    +0.000 P 
BRANCH  21  22
ATOM     22  C   UNL     1      -1.667  11.193  18.737  0.00  0.00    +0.000 A 
ATOM     23  C   UNL     1      -2.970  11.717  18.661  0.00  0.00    +0.000 A 
ATOM     24  C   UNL     1      -3.847  11.342  17.637  0.00  0.00    +0.000 A 
ATOM     25  C   UNL     1      -3.450  10.407  16.686  0.00  0.00    +0.000 A 
ATOM     26  C   UNL     1      -2.168   9.871  16.745  0.00  0.00    +0.000 A 
ATOM     27  C   UNL     1      -1.282  10.273  17.752  0.00  0.00    +0.000 A 
ENDBRANCH  21  22
BRANCH  21  28
ATOM     28  C   UNL     1      -1.456  12.509  21.416  0.00  0.00    +0.000 A 
ATOM     29  C   UNL     1      -1.927  11.805  22.535  0.00  0.00    +0.000 A 
ATOM     30  C   UNL     1      -2.691  12.439  23.518  0.00  0.00    +0.000 A 
ATOM     31  C   UNL     1      -2.996  13.791  23.396  0.00  0.00    +0.000 A 
ATOM     32  C   UNL     1      -2.511  14.512  22.308  0.00  0.00    +0.000 A 
ATOM     33  C   UNL     1      -1.735  13.878  21.334  0.00  0.00    +0.000 A 
ENDBRANCH  21  28
BRANCH  21  34
ATOM     34  C   UNL     1       0.873  12.519  19.664  0.00  0.00    +0.000 A 
ATOM     35  C   UNL     1       1.166  12.832  18.325  0.00  0.00    +0.000 A 
ATOM     36  C   UNL     1       2.293  13.583  17.984  0.00  0.00    +0.000 A 
ATOM     37  C   UNL     1       3.164  14.013  18.975  0.00  0.00    +0.000 A 
ATOM     38  C   UNL     1       2.915  13.679  20.304  0.00  0.00    +0.000 A 
ATOM     39  C   UNL     1       1.783  12.931  20.645  0.00  0.00    +0.000 A 
ENDBRANCH  21  34
ENDBRANCH   1  21
TORSDOF 7
ENDMDL
MODEL 8
REMARK VINA RESULT:      -8.8      0.378      1.184
REMARK  Name = 
REMARK  7 active torsions:
REMARK  status: ('A' for Active; 'I' for Inactive)
REMARK    1  A    between atoms: N_1  and  C_2
REMARK    2  A    between atoms: C_8  and  C_9
REMARK    3  A    between atoms: C_12  and  C_13
REMARK    4  A    between atoms: C_13  and  P_14
REMARK    5  A    between atoms: P_14  and  C_15
REMARK    6  A    between atoms: P_14  and  C_21
REMARK    7  A    between atoms: P_14  and  C_27
REMARK                            x       y       z     vdW  Elec       q    Type
REMARK                         _______ _______ _______ _____ _____    ______ ____
ROOT
ATOM      1  C   UNL     1      -0.657  10.311  20.706  0.00  0.00    +0.000 C 
ENDROOT
BRANCH   1   5
ATOM      2  C   UNL     1       2.330   8.005  18.572  0.00  0.00    +0.000 A 
ATOM      3  C   UNL     1       1.693   9.072  17.939  0.00  0.00    +0.000 A 
ATOM      4  C   UNL     1       0.759   9.843  18.629  0.00  0.00    +0.000 A 
ATOM      5  C   UNL     1       0.424   9.564  19.957  0.00  0.00    +0.000 A 
ATOM      6  C   UNL     1       1.124   8.546  20.614  0.00  0.00    +0.000 A 
ATOM      7  C   UNL     1       2.069   7.778  19.930  0.00  0.00    +0.000 A 
BRANCH   2  14
ATOM      8  C   UNL     1       4.733   3.944  17.062  0.00  0.00    +0.000 A 
ATOM      9  N   UNL     1       5.833   3.839  16.298  0.00  0.00    +0.000 NA
ATOM     10  C   UNL     1       6.375   4.969  15.792  0.00  0.00    +0.000 A 
ATOM     11  N   UNL     1       5.951   6.231  15.941  0.00  0.00    +0.000 NA
ATOM     12  C   UNL     1       4.851   6.313  16.710  0.00  0.00    +0.000 A 
ATOM     13  N   UNL     1       4.225   7.469  17.067  0.00  0.00    +0.000 NA
ATOM     14  C   UNL     1       3.225   7.106  17.851  0.00  0.00    +0.000 A 
ATOM     15  N   UNL     1       3.193   5.733  17.982  0.00  0.00    +0.000 N 
ATOM     16  C   UNL     1       4.231   5.211  17.268  0.00  0.00    +0.000 A 
ATOM     17  H   UNL     1       2.563   5.218  18.579  0.00  0.00    +0.000 HD
BRANCH   8  18
ATOM     18  N   UNL     1       4.187   2.789  17.590  0.00  0.00    +0.000 N 
ATOM     19  H   UNL     1       3.314   3.003  18.064  0.00  0.00    +0.000 HD
ATOM     20  H   UNL     1       4.814   2.181  18.094  0.00  0.00    +0.000 HD
ENDBRANCH   8  18
ENDBRANCH   2  14
ENDBRANCH   1   5
BRANCH   1  21
ATOM     21  P   UNL     1      -1.187  11.986  20.163  0.00  0.00    +0.000 P 
BRANCH  21  22
ATOM     22  C   UNL     1      -2.257  11.752  18.739  0.00  0.00    +0.000 A 
ATOM     23  C   UNL     1      -3.651  11.880  18.870  0.00  0.00    +0.000 A 
ATOM     24  C   UNL     1      -4.511  11.622  17.797  0.00  0.00    +0.000 A 
ATOM     25  C   UNL     1      -3.995  11.196  16.577  0.00  0.00    +0.000 A 
ATOM     26  C   UNL     1      -2.620  11.056  16.425  0.00  0.00    +0.000 A 
ATOM     27  C   UNL     1      -1.760  11.346  17.491  0.00  0.00    +0.000 A 
ENDBRANCH  21  22
BRANCH  21  28
ATOM     28  C   UNL     1      -2.044  12.675  21.576  0.00  0.00    +0.000 A 
ATOM     29  C   UNL     1      -2.380  14.038  21.571  0.00  0.00    +0.000 A 
ATOM     30  C   UNL     1      -2.952  14.644  22.692  0.00  0.00    +0.000 A 
ATOM     31  C   UNL     1      -3.198  13.895  23.838  0.00  0.00    +0.000 A 
ATOM     32  C   UNL     1      -2.900  12.535  23.850  0.00  0.00    +0.000 A 
ATOM     33  C   UNL     1      -2.341  11.928  22.723  0.00  0.00    +0.000 A 
ENDBRANCH  21  28
BRANCH  21  34
ATOM     34  C   UNL     1       0.270  12.974  19.829  0.00  0.00    +0.000 A 
ATOM     35  C   UNL     1       0.322  13.881  18.757  0.00  0.00    +0.000 A 
ATOM     36  C   UNL     1       1.444  14.682  18.536  0.00  0.00    +0.000 A 
ATOM     37  C   UNL     1       2.548  14.573  19.372  0.00  0.00    +0.000 A 
ATOM     38  C   UNL     1       2.533  13.652  20.416  0.00  0.00    +0.000 A 
ATOM     39  C   UNL     1       1.406  12.853  20.638  0.00  0.00    +0.000 A 
ENDBRANCH  21  34
ENDBRANCH   1  21
TORSDOF 7
ENDMDL
MODEL 9
REMARK VINA RESULT:      -8.8      0.220      4.035
REMARK  Name = 
REMARK  7 active torsions:
REMARK  status: ('A' for Active; 'I' for Inactive)
REMARK    1  A    between atoms: N_1  and  C_2
REMARK    2  A    between atoms: C_8  and  C_9
REMARK    3  A    between atoms: C_12  and  C_13
REMARK    4  A    between atoms: C_13  and  P_14
REMARK    5  A    between atoms: P_14  and  C_15
REMARK    6  A    between atoms: P_14  and  C_21
REMARK    7  A    between atoms: P_14  and  C_27
REMARK                            x       y       z     vdW  Elec       q    Type
REMARK                         _______ _______ _______ _____ _____    ______ ____
ROOT
ATOM      1  C   UNL     1      -0.242  10.126  20.918  0.00  0.00    +0.000 C 
ENDROOT
BRANCH   1   5
ATOM      2  C   UNL     1       2.569   7.758  18.620  0.00  0.00    +0.000 A 
ATOM      3  C   UNL     1       2.130   8.986  18.127  0.00  0.00    +0.000 A 
ATOM      4  C   UNL     1       1.255   9.772  18.876  0.00  0.00    +0.000 A 
ATOM      5  C   UNL     1       0.785   9.351  20.123  0.00  0.00    +0.000 A 
ATOM      6  C   UNL     1       1.292   8.158  20.651  0.00  0.00    +0.000 A 
ATOM      7  C   UNL     1       2.178   7.373  19.909  0.00  0.00    +0.000 A 
BRANCH   2  14
ATOM      8  C   UNL     1       4.829   3.695  16.906  0.00  0.00    +0.000 A 
ATOM      9  N   UNL     1       5.844   3.589  16.033  0.00  0.00    +0.000 NA
ATOM     10  C   UNL     1       6.324   4.716  15.463  0.00  0.00    +0.000 A 
ATOM     11  N   UNL     1       5.909   5.977  15.644  0.00  0.00    +0.000 NA
ATOM     12  C   UNL     1       4.895   6.061  16.522  0.00  0.00    +0.000 A 
ATOM     13  N   UNL     1       4.302   7.217  16.932  0.00  0.00    +0.000 NA
ATOM     14  C   UNL     1       3.390   6.857  17.818  0.00  0.00    +0.000 A 
ATOM     15  N   UNL     1       3.381   5.484  17.965  0.00  0.00    +0.000 N 
ATOM     16  C   UNL     1       4.343   4.961  17.152  0.00  0.00    +0.000 A 
ATOM     17  H   UNL     1       2.820   4.972  18.629  0.00  0.00    +0.000 HD
BRANCH   8  18
ATOM     18  N   UNL     1       4.348   2.543  17.500  0.00  0.00    +0.000 N 
ATOM     19  H   UNL     1       5.101   2.061  17.983  0.00  0.00    +0.000 HD
ATOM     20  H   UNL     1       3.753   1.957  16.935  0.00  0.00    +0.000 HD
ENDBRANCH   8  18
ENDBRANCH   2  14
ENDBRANCH   1   5
BRANCH   1  21
ATOM     21  P   UNL     1      -0.876  11.740  20.308  0.00  0.00    +0.000 P 
BRANCH  21  22
ATOM     22  C   UNL     1       0.552  12.680  19.754  0.00  0.00    +0.000 A 
ATOM     23  C   UNL     1       1.650  12.871  20.610  0.00  0.00    +0.000 A 
ATOM     24  C   UNL     1       2.738  13.667  20.233  0.00  0.00    +0.000 A 
ATOM     25  C   UNL     1       2.733  14.316  19.003  0.00  0.00    +0.000 A 
ATOM     26  C   UNL     1       1.654  14.146  18.141  0.00  0.00    +0.000 A 
ATOM     27  C   UNL     1       0.583  13.323  18.508  0.00  0.00    +0.000 A 
ENDBRANCH  21  22
BRANCH  21  28
ATOM     28  C   UNL     1      -1.995  11.317  18.976  0.00  0.00    +0.000 A 
ATOM     29  C   UNL     1      -1.542  10.475  17.948  0.00  0.00    +0.000 A 
ATOM     30  C   UNL     1      -2.340  10.202  16.834  0.00  0.00    +0.000 A 
ATOM     31  C   UNL     1      -3.606  10.768  16.731  0.00  0.00    +0.000 A 
ATOM     32  C   UNL     1      -4.084  11.581  17.755  0.00  0.00    +0.000 A 
ATOM     33  C   UNL     1      -3.290  11.840  18.875  0.00  0.00    +0.000 A 
ENDBRANCH  21  28
BRANCH  21  34
ATOM     34  C   UNL     1      -1.808  12.530  21.619  0.00  0.00    +0.000 A 
ATOM     35  C   UNL     1      -2.346  11.798  22.692  0.00  0.00    +0.000 A 
ATOM     36  C   UNL     1      -3.027  12.430  23.734  0.00  0.00    +0.000 A 
ATOM     37  C   UNL     1      -3.206  13.807  23.710  0.00  0.00    +0.000 A 
ATOM     38  C   UNL     1      -2.716  14.546  22.636  0.00  0.00    +0.000 A 
ATOM     39  C   UNL     1      -2.030  13.912  21.595  0.00  0.00    +0.000 A 
ENDBRANCH  21  34
ENDBRANCH   1  21
TORSDOF 7
ENDMDL
