MODEL 1
REMARK VINA RESULT:      -7.4      0.000      0.000
REMARK  Name = 
REMARK  3 active torsions:
REMARK  status: ('A' for Active; 'I' for Inactive)
REMARK    1  A    between atoms: C_1  and  C_2
REMARK    2  A    between atoms: C_5  and  C_6
REMARK    3  A    between atoms: C_12  and  C_13
REMARK                            x       y       z     vdW  Elec       q    Type
REMARK                         _______ _______ _______ _____ _____    ______ ____
ROOT
ATOM      1  C   UNL     1       5.075   3.996  17.039  0.00  0.00    +0.000 C 
ATOM      2  C   UNL     1       4.378   5.258  17.361  0.00  0.00    +0.000 A 
ATOM      3  O   UNL     1       4.804   6.342  16.656  0.00  0.00    +0.000 OA
ATOM      4  N   UNL     1       4.048   7.447  16.989  0.00  0.00    +0.000 NA
ATOM      5  C   UNL     1       3.210   7.033  17.947  0.00  0.00    +0.000 A 
ATOM      6  C   UNL     1       3.335   5.634  18.190  0.00  0.00    +0.000 A 
ENDROOT
BRANCH   5   7
ATOM      7  C   UNL     1       2.284   7.983  18.637  0.00  0.00    +0.000 A 
ATOM      8  C   UNL     1       1.614   9.037  18.048  0.00  0.00    +0.000 A 
ATOM      9  C   UNL     1       0.847   9.655  19.068  0.00  0.00    +0.000 A 
ATOM     10  C   UNL     1       1.135   8.972  20.225  0.00  0.00    +0.000 A 
ATOM     11 BR   UNL     1       0.473   9.391  21.918  0.00  0.00    +0.000 Br
ATOM     12  O   UNL     1       1.977   7.940  19.969  0.00  0.00    +0.000 OA
ENDBRANCH   5   7
BRANCH   6  13
ATOM     13  C   UNL     1       2.504   4.729  18.977  0.00  0.00    +0.000 A 
ATOM     14  C   UNL     1       2.678   4.668  20.371  0.00  0.00    +0.000 A 
ATOM     15  C   UNL     1       1.928   3.793  21.159  0.00  0.00    +0.000 A 
ATOM     16  C   UNL     1       0.961   2.989  20.565  0.00  0.00    +0.000 A 
ATOM     17  C   UNL     1       0.753   3.057  19.188  0.00  0.00    +0.000 A 
ATOM     18  C   UNL     1       1.527   3.914  18.397  0.00  0.00    +0.000 A 
ENDBRANCH   6  13
TORSDOF 2
ENDMDL
MODEL 2
REMARK VINA RESULT:      -7.3      0.116      1.141
REMARK  Name = 
REMARK  3 active torsions:
REMARK  status: ('A' for Active; 'I' for Inactive)
REMARK    1  A    between atoms: C_1  and  C_2
REMARK    2  A    between atoms: C_5  and  C_6
REMARK    3  A    between atoms: C_12  and  C_13
REMARK                            x       y       z     vdW  Elec       q    Type
REMARK                         _______ _______ _______ _____ _____    ______ ____
ROOT
ATOM      1  C   UNL     1       5.173   4.003  16.978  0.00  0.00    +0.000 C 
ATOM      2  C   UNL     1       4.459   5.254  17.303  0.00  0.00    +0.000 A 
ATOM      3  O   UNL     1       4.861   6.343  16.591  0.00  0.00    +0.000 OA
ATOM      4  N   UNL     1       4.090   7.437  16.929  0.00  0.00    +0.000 NA
ATOM      5  C   UNL     1       3.268   7.012  17.896  0.00  0.00    +0.000 A 
ATOM      6  C   UNL     1       3.418   5.616  18.141  0.00  0.00    +0.000 A 
ENDROOT
BRANCH   5   7
ATOM      7  C   UNL     1       2.333   7.949  18.592  0.00  0.00    +0.000 A 
ATOM      8  C   UNL     1       1.691   9.029  18.022  0.00  0.00    +0.000 A 
ATOM      9  C   UNL     1       0.902   9.622  19.041  0.00  0.00    +0.000 A 
ATOM     10  C   UNL     1       1.151   8.896  20.182  0.00  0.00    +0.000 A 
ATOM     11 BR   UNL     1       0.447   9.264  21.869  0.00  0.00    +0.000 Br
ATOM     12  O   UNL     1       1.988   7.863  19.913  0.00  0.00    +0.000 OA
ENDBRANCH   5   7
BRANCH   6  13
ATOM     13  C   UNL     1       2.610   4.700  18.939  0.00  0.00    +0.000 A 
ATOM     14  C   UNL     1       1.666   3.877  18.300  0.00  0.00    +0.000 A 
ATOM     15  C   UNL     1       0.848   3.009  19.027  0.00  0.00    +0.000 A 
ATOM     16  C   UNL     1       0.990   2.926  20.408  0.00  0.00    +0.000 A 
ATOM     17  C   UNL     1       1.940   3.713  21.056  0.00  0.00    +0.000 A 
ATOM     18  C   UNL     1       2.739   4.602  20.328  0.00  0.00    +0.000 A 
ENDBRANCH   6  13
TORSDOF 2
ENDMDL
MODEL 3
REMARK VINA RESULT:      -7.1      1.995      2.583
REMARK  Name = 
REMARK  3 active torsions:
REMARK  status: ('A' for Active; 'I' for Inactive)
REMARK    1  A    between atoms: C_1  and  C_2
REMARK    2  A    between atoms: C_5  and  C_6
REMARK    3  A    between atoms: C_12  and  C_13
REMARK                            x       y       z     vdW  Elec       q    Type
REMARK                         _______ _______ _______ _____ _____    ______ ____
ROOT
ATOM      1  C   UNL     1       6.597   3.891  15.466  0.00  0.00    +0.000 C 
ATOM      2  C   UNL     1       5.752   4.982  15.992  0.00  0.00    +0.000 A 
ATOM      3  O   UNL     1       5.953   6.194  15.403  0.00  0.00    +0.000 OA
ATOM      4  N   UNL     1       5.073   7.121  15.925  0.00  0.00    +0.000 NA
ATOM      5  C   UNL     1       4.391   6.473  16.876  0.00  0.00    +0.000 A 
ATOM      6  C   UNL     1       4.741   5.092  16.930  0.00  0.00    +0.000 A 
ENDROOT
BRANCH   5   7
ATOM      7  C   UNL     1       3.398   7.180  17.742  0.00  0.00    +0.000 A 
ATOM      8  C   UNL     1       3.006   6.797  19.009  0.00  0.00    +0.000 A 
ATOM      9  C   UNL     1       2.062   7.758  19.453  0.00  0.00    +0.000 A 
ATOM     10  C   UNL     1       1.897   8.638  18.410  0.00  0.00    +0.000 A 
ATOM     11 BR   UNL     1       0.710  10.076  18.389  0.00  0.00    +0.000 Br
ATOM     12  O   UNL     1       2.725   8.317  17.384  0.00  0.00    +0.000 OA
ENDBRANCH   5   7
BRANCH   6  13
ATOM     13  C   UNL     1       4.123   3.984  17.650  0.00  0.00    +0.000 A 
ATOM     14  C   UNL     1       2.975   3.369  17.119  0.00  0.00    +0.000 A 
ATOM     15  C   UNL     1       2.331   2.328  17.790  0.00  0.00    +0.000 A 
ATOM     16  C   UNL     1       2.852   1.858  18.991  0.00  0.00    +0.000 A 
ATOM     17  C   UNL     1       4.006   2.435  19.519  0.00  0.00    +0.000 A 
ATOM     18  C   UNL     1       4.633   3.498  18.859  0.00  0.00    +0.000 A 
ENDBRANCH   6  13
TORSDOF 2
ENDMDL
MODEL 4
REMARK VINA RESULT:      -7.0      0.976      1.191
REMARK  Name = 
REMARK  3 active torsions:
REMARK  status: ('A' for Active; 'I' for Inactive)
REMARK    1  A    between atoms: C_1  and  C_2
REMARK    2  A    between atoms: C_5  and  C_6
REMARK    3  A    between atoms: C_12  and  C_13
REMARK                            x       y       z     vdW  Elec       q    Type
REMARK                         _______ _______ _______ _____ _____    ______ ____
ROOT
ATOM      1  C   UNL     1       4.881   4.074  16.979  0.00  0.00    +0.000 C 
ATOM      2  C   UNL     1       4.188   5.297  17.432  0.00  0.00    +0.000 A 
ATOM      3  O   UNL     1       4.525   6.429  16.754  0.00  0.00    +0.000 OA
ATOM      4  N   UNL     1       3.777   7.494  17.216  0.00  0.00    +0.000 NA
ATOM      5  C   UNL     1       3.040   7.006  18.220  0.00  0.00    +0.000 A 
ATOM      6  C   UNL     1       3.217   5.599  18.372  0.00  0.00    +0.000 A 
ENDROOT
BRANCH   5   7
ATOM      7  C   UNL     1       2.159   7.891  19.042  0.00  0.00    +0.000 A 
ATOM      8  C   UNL     1       1.864   7.727  20.381  0.00  0.00    +0.000 A 
ATOM      9  C   UNL     1       1.006   8.796  20.745  0.00  0.00    +0.000 A 
ATOM     10  C   UNL     1       0.791   9.518  19.595  0.00  0.00    +0.000 A 
ATOM     11 BR   UNL     1      -0.327  11.003  19.447  0.00  0.00    +0.000 Br
ATOM     12  O   UNL     1       1.510   8.999  18.569  0.00  0.00    +0.000 OA
ENDBRANCH   5   7
BRANCH   6  13
ATOM     13  C   UNL     1       2.482   4.631  19.178  0.00  0.00    +0.000 A 
ATOM     14  C   UNL     1       2.830   4.450  20.528  0.00  0.00    +0.000 A 
ATOM     15  C   UNL     1       2.175   3.511  21.327  0.00  0.00    +0.000 A 
ATOM     16  C   UNL     1       1.131   2.762  20.795  0.00  0.00    +0.000 A 
ATOM     17  C   UNL     1       0.752   2.949  19.466  0.00  0.00    +0.000 A 
ATOM     18  C   UNL     1       1.429   3.870  18.659  0.00  0.00    +0.000 A 
ENDBRANCH   6  13
TORSDOF 2
ENDMDL
MODEL 5
REMARK VINA RESULT:      -7.0      2.932      5.063
REMARK  Name = 
REMARK  3 active torsions:
REMARK  status: ('A' for Active; 'I' for Inactive)
REMARK    1  A    between atoms: C_1  and  C_2
REMARK    2  A    between atoms: C_5  and  C_6
REMARK    3  A    between atoms: C_12  and  C_13
REMARK                            x       y       z     vdW  Elec       q    Type
REMARK                         _______ _______ _______ _____ _____    ______ ____
ROOT
ATOM      1  C   UNL     1       0.972   3.471  20.211  0.00  0.00    +0.000 C 
ATOM      2  C   UNL     1       2.238   3.688  19.483  0.00  0.00    +0.000 A 
ATOM      3  O   UNL     1       2.887   2.548  19.115  0.00  0.00    +0.000 OA
ATOM      4  N   UNL     1       4.019   2.865  18.391  0.00  0.00    +0.000 NA
ATOM      5  C   UNL     1       4.080   4.202  18.386  0.00  0.00    +0.000 A 
ATOM      6  C   UNL     1       2.944   4.785  19.020  0.00  0.00    +0.000 A 
ENDROOT
BRANCH   5   7
ATOM      7  C   UNL     1       5.234   4.928  17.772  0.00  0.00    +0.000 A 
ATOM      8  C   UNL     1       5.953   4.523  16.666  0.00  0.00    +0.000 A 
ATOM      9  C   UNL     1       6.941   5.514  16.434  0.00  0.00    +0.000 A 
ATOM     10  C   UNL     1       6.797   6.435  17.444  0.00  0.00    +0.000 A 
ATOM     11 BR   UNL     1       7.880   7.932  17.702  0.00  0.00    +0.000 Br
ATOM     12  O   UNL     1       5.747   6.108  18.238  0.00  0.00    +0.000 OA
ENDBRANCH   5   7
BRANCH   6  13
ATOM     13  C   UNL     1       2.490   6.171  19.066  0.00  0.00    +0.000 A 
ATOM     14  C   UNL     1       2.102   6.730  20.296  0.00  0.00    +0.000 A 
ATOM     15  C   UNL     1       1.630   8.041  20.382  0.00  0.00    +0.000 A 
ATOM     16  C   UNL     1       1.574   8.828  19.237  0.00  0.00    +0.000 A 
ATOM     17  C   UNL     1       1.981   8.301  18.012  0.00  0.00    +0.000 A 
ATOM     18  C   UNL     1       2.427   6.977  17.924  0.00  0.00    +0.000 A 
ENDBRANCH   6  13
TORSDOF 2
ENDMDL
MODEL 6
REMARK VINA RESULT:      -7.0      3.719      5.221
REMARK  Name = 
REMARK  3 active torsions:
REMARK  status: ('A' for Active; 'I' for Inactive)
REMARK    1  A    between atoms: C_1  and  C_2
REMARK    2  A    between atoms: C_5  and  C_6
REMARK    3  A    between atoms: C_12  and  C_13
REMARK                            x       y       z     vdW  Elec       q    Type
REMARK                         _______ _______ _______ _____ _____    ______ ____
ROOT
ATOM      1  C   UNL     1       4.941   3.405  13.487  0.00  0.00    +0.000 C 
ATOM      2  C   UNL     1       5.807   4.260  14.323  0.00  0.00    +0.000 A 
ATOM      3  O   UNL     1       6.952   4.679  13.717  0.00  0.00    +0.000 OA
ATOM      4  N   UNL     1       7.652   5.517  14.561  0.00  0.00    +0.000 NA
ATOM      5  C   UNL     1       6.953   5.544  15.702  0.00  0.00    +0.000 A 
ATOM      6  C   UNL     1       5.738   4.805  15.594  0.00  0.00    +0.000 A 
ENDROOT
BRANCH   5   7
ATOM      7  C   UNL     1       7.449   6.280  16.904  0.00  0.00    +0.000 A 
ATOM      8  C   UNL     1       7.587   5.761  18.176  0.00  0.00    +0.000 A 
ATOM      9  C   UNL     1       8.097   6.803  18.991  0.00  0.00    +0.000 A 
ATOM     10  C   UNL     1       8.190   7.908  18.178  0.00  0.00    +0.000 A 
ATOM     11 BR   UNL     1       8.730   9.608  18.726  0.00  0.00    +0.000 Br
ATOM     12  O   UNL     1       7.833   7.593  16.908  0.00  0.00    +0.000 OA
ENDBRANCH   5   7
BRANCH   6  13
ATOM     13  C   UNL     1       4.590   4.729  16.492  0.00  0.00    +0.000 A 
ATOM     14  C   UNL     1       4.039   3.474  16.804  0.00  0.00    +0.000 A 
ATOM     15  C   UNL     1       2.921   3.356  17.631  0.00  0.00    +0.000 A 
ATOM     16  C   UNL     1       2.358   4.497  18.193  0.00  0.00    +0.000 A 
ATOM     17  C   UNL     1       2.908   5.748  17.919  0.00  0.00    +0.000 A 
ATOM     18  C   UNL     1       4.012   5.866  17.066  0.00  0.00    +0.000 A 
ENDBRANCH   6  13
TORSDOF 2
ENDMDL
MODEL 7
REMARK VINA RESULT:      -7.0      1.469      1.591
REMARK  Name = 
REMARK  3 active torsions:
REMARK  status: ('A' for Active; 'I' for Inactive)
REMARK    1  A    between atoms: C_1  and  C_2
REMARK    2  A    between atoms: C_5  and  C_6
REMARK    3  A    between atoms: C_12  and  C_13
REMARK                            x       y       z     vdW  Elec       q    Type
REMARK                         _______ _______ _______ _____ _____    ______ ____
ROOT
ATOM      1  C   UNL     1       6.098   3.873  15.769  0.00  0.00    +0.000 C 
ATOM      2  C   UNL     1       5.340   5.038  16.268  0.00  0.00    +0.000 A 
ATOM      3  O   UNL     1       5.701   6.232  15.720  0.00  0.00    +0.000 OA
ATOM      4  N   UNL     1       4.891   7.237  16.209  0.00  0.00    +0.000 NA
ATOM      5  C   UNL     1       4.088   6.649  17.103  0.00  0.00    +0.000 A 
ATOM      6  C   UNL     1       4.289   5.238  17.147  0.00  0.00    +0.000 A 
ENDROOT
BRANCH   5   7
ATOM      7  C   UNL     1       3.122   7.442  17.924  0.00  0.00    +0.000 A 
ATOM      8  C   UNL     1       2.465   8.588  17.523  0.00  0.00    +0.000 A 
ATOM      9  C   UNL     1       1.647   8.992  18.610  0.00  0.00    +0.000 A 
ATOM     10  C   UNL     1       1.895   8.097  19.623  0.00  0.00    +0.000 A 
ATOM     11 BR   UNL     1       1.157   8.173  21.334  0.00  0.00    +0.000 Br
ATOM     12  O   UNL     1       2.759   7.137  19.207  0.00  0.00    +0.000 OA
ENDBRANCH   5   7
BRANCH   6  13
ATOM     13  C   UNL     1       3.516   4.189  17.803  0.00  0.00    +0.000 A 
ATOM     14  C   UNL     1       4.153   3.330  18.715  0.00  0.00    +0.000 A 
ATOM     15  C   UNL     1       3.460   2.291  19.341  0.00  0.00    +0.000 A 
ATOM     16  C   UNL     1       2.103   2.121  19.090  0.00  0.00    +0.000 A 
ATOM     17  C   UNL     1       1.447   2.981  18.211  0.00  0.00    +0.000 A 
ATOM     18  C   UNL     1       2.151   4.003  17.563  0.00  0.00    +0.000 A 
ENDBRANCH   6  13
TORSDOF 2
ENDMDL
MODEL 8
REMARK VINA RESULT:      -7.0      1.442      1.877
REMARK  Name = 
REMARK  3 active torsions:
REMARK  status: ('A' for Active; 'I' for Inactive)
REMARK    1  A    between atoms: C_1  and  C_2
REMARK    2  A    between atoms: C_5  and  C_6
REMARK    3  A    between atoms: C_12  and  C_13
REMARK                            x       y       z     vdW  Elec       q    Type
REMARK                         _______ _______ _______ _____ _____    ______ ____
ROOT
ATOM      1  C   UNL     1       6.184   3.803  15.856  0.00  0.00    +0.000 C 
ATOM      2  C   UNL     1       5.408   4.971  16.320  0.00  0.00    +0.000 A 
ATOM      3  O   UNL     1       5.730   6.148  15.717  0.00  0.00    +0.000 OA
ATOM      4  N   UNL     1       4.906   7.154  16.178  0.00  0.00    +0.000 NA
ATOM      5  C   UNL     1       4.134   6.586  17.112  0.00  0.00    +0.000 A 
ATOM      6  C   UNL     1       4.369   5.183  17.210  0.00  0.00    +0.000 A 
ENDROOT
BRANCH   5   7
ATOM      7  C   UNL     1       3.163   7.390  17.916  0.00  0.00    +0.000 A 
ATOM      8  C   UNL     1       2.531   8.547  17.508  0.00  0.00    +0.000 A 
ATOM      9  C   UNL     1       1.699   8.959  18.580  0.00  0.00    +0.000 A 
ATOM     10  C   UNL     1       1.914   8.057  19.595  0.00  0.00    +0.000 A 
ATOM     11 BR   UNL     1       1.145   8.138  21.292  0.00  0.00    +0.000 Br
ATOM     12  O   UNL     1       2.772   7.086  19.192  0.00  0.00    +0.000 OA
ENDBRANCH   5   7
BRANCH   6  13
ATOM     13  C   UNL     1       3.633   4.145  17.924  0.00  0.00    +0.000 A 
ATOM     14  C   UNL     1       2.324   3.825  17.522  0.00  0.00    +0.000 A 
ATOM     15  C   UNL     1       1.571   2.863  18.197  0.00  0.00    +0.000 A 
ATOM     16  C   UNL     1       2.135   2.175  19.266  0.00  0.00    +0.000 A 
ATOM     17  C   UNL     1       3.442   2.456  19.661  0.00  0.00    +0.000 A 
ATOM     18  C   UNL     1       4.184   3.443  19.001  0.00  0.00    +0.000 A 
ENDBRANCH   6  13
TORSDOF 2
ENDMDL
MODEL 9
REMARK VINA RESULT:      -7.0      3.463      5.588
REMARK  Name = 
REMARK  3 active torsions:
REMARK  status: ('A' for Active; 'I' for Inactive)
REMARK    1  A    between atoms: C_1  and  C_2
REMARK    2  A    between atoms: C_5  and  C_6
REMARK    3  A    between atoms: C_12  and  C_13
REMARK                            x       y       z     vdW  Elec       q    Type
REMARK                         _______ _______ _______ _____ _____    ______ ____
ROOT
ATOM      1  C   UNL     1       1.164   3.354  20.932  0.00  0.00    +0.000 C 
ATOM      2  C   UNL     1       2.350   3.367  20.053  0.00  0.00    +0.000 A 
ATOM      3  O   UNL     1       2.897   2.143  19.813  0.00  0.00    +0.000 OA
ATOM      4  N   UNL     1       3.956   2.265  18.936  0.00  0.00    +0.000 NA
ATOM      5  C   UNL     1       4.081   3.576  18.704  0.00  0.00    +0.000 A 
ATOM      6  C   UNL     1       3.053   4.327  19.345  0.00  0.00    +0.000 A 
ENDROOT
BRANCH   5   7
ATOM      7  C   UNL     1       5.194   4.117  17.864  0.00  0.00    +0.000 A 
ATOM      8  C   UNL     1       6.279   4.839  18.319  0.00  0.00    +0.000 A 
ATOM      9  C   UNL     1       7.078   5.135  17.185  0.00  0.00    +0.000 A 
ATOM     10  C   UNL     1       6.405   4.620  16.103  0.00  0.00    +0.000 A 
ATOM     11 BR   UNL     1       6.944   4.775  14.324  0.00  0.00    +0.000 Br
ATOM     12  O   UNL     1       5.283   3.974  16.506  0.00  0.00    +0.000 OA
ENDBRANCH   5   7
BRANCH   6  13
ATOM     13  C   UNL     1       2.675   5.730  19.208  0.00  0.00    +0.000 A 
ATOM     14  C   UNL     1       2.199   6.430  20.330  0.00  0.00    +0.000 A 
ATOM     15  C   UNL     1       1.795   7.763  20.237  0.00  0.00    +0.000 A 
ATOM     16  C   UNL     1       1.898   8.430  19.021  0.00  0.00    +0.000 A 
ATOM     17  C   UNL     1       2.396   7.762  17.904  0.00  0.00    +0.000 A 
ATOM     18  C   UNL     1       2.773   6.416  17.993  0.00  0.00    +0.000 A 
ENDBRANCH   6  13
TORSDOF 2
ENDMDL
