MODEL 1
REMARK VINA RESULT:      -6.6      0.000      0.000
REMARK  Name = 
REMARK  7 active torsions:
REMARK  status: ('A' for Active; 'I' for Inactive)
REMARK    1  A    between atoms: C_1  and  O_2
REMARK    2  A    between atoms: O_2  and  C_3
REMARK    3  A    between atoms: C_3  and  C_4
REMARK    4  A    between atoms: C_4  and  N_5
REMARK    5  A    between atoms: C_8  and  C_9
REMARK    6  A    between atoms: C_14  and  O_15
REMARK    7  A    between atoms: O_15  and  C_16
REMARK                            x       y       z     vdW  Elec       q    Type
REMARK                         _______ _______ _______ _____ _____    ______ ____
ROOT
ATOM      1  N   UNL     1       5.703   4.194  17.019  0.00  0.00    +0.000 N 
ATOM      2  C   UNL     1       6.932   4.689  17.436  0.00  0.00    +0.000 A 
ATOM      3  O   UNL     1       7.991   4.553  16.842  0.00  0.00    +0.000 OA
ATOM      4  C   UNL     1       6.936   5.435  18.772  0.00  0.00    +0.000 A 
ATOM      5  C   UNL     1       8.238   6.028  19.242  0.00  0.00    +0.000 C 
ATOM      6  N   UNL     1       5.880   5.570  19.517  0.00  0.00    +0.000 NA
ATOM      7  C   UNL     1       4.689   4.993  19.052  0.00  0.00    +0.000 A 
ATOM      8  C   UNL     1       3.531   5.074  19.799  0.00  0.00    +0.000 A 
ATOM      9  N   UNL     1       2.349   4.544  19.429  0.00  0.00    +0.000 NA
ATOM     10  C   UNL     1       2.345   3.896  18.255  0.00  0.00    +0.000 A 
ATOM     11  N   UNL     1       3.404   3.740  17.451  0.00  0.00    +0.000 NA
ATOM     12  C   UNL     1       4.560   4.307  17.850  0.00  0.00    +0.000 A 
ENDROOT
BRANCH  10  13
ATOM     13  O   UNL     1       1.181   3.336  17.779  0.00  0.00    +0.000 OA
ATOM     14  C   UNL     1       0.665   2.320  18.629  0.00  0.00    +0.000 C 
ENDBRANCH  10  13
BRANCH   1  15
ATOM     15  C   UNL     1       5.605   3.464  15.754  0.00  0.00    +0.000 C 
BRANCH  15  16
ATOM     16  C   UNL     1       5.540   4.335  14.491  0.00  0.00    +0.000 C 
BRANCH  16  18
ATOM     17  C   UNL     1       5.961   3.379  12.391  0.00  0.00    +0.000 C 
ATOM     18  O   UNL     1       6.551   3.968  13.548  0.00  0.00    +0.000 OA
ENDBRANCH  16  18
ENDBRANCH  15  16
ENDBRANCH   1  15
TORSDOF 4
ENDMDL
MODEL 2
REMARK VINA RESULT:      -6.5      1.009      1.023
REMARK  Name = 
REMARK  7 active torsions:
REMARK  status: ('A' for Active; 'I' for Inactive)
REMARK    1  A    between atoms: C_1  and  O_2
REMARK    2  A    between atoms: O_2  and  C_3
REMARK    3  A    between atoms: C_3  and  C_4
REMARK    4  A    between atoms: C_4  and  N_5
REMARK    5  A    between atoms: C_8  and  C_9
REMARK    6  A    between atoms: C_14  and  O_15
REMARK    7  A    between atoms: O_15  and  C_16
REMARK                            x       y       z     vdW  Elec       q    Type
REMARK                         _______ _______ _______ _____ _____    ______ ____
ROOT
ATOM      1  N   UNL     1       5.635   5.013  16.681  0.00  0.00    +0.000 N 
ATOM      2  C   UNL     1       6.772   5.710  17.069  0.00  0.00    +0.000 A 
ATOM      3  O   UNL     1       7.574   6.238  16.312  0.00  0.00    +0.000 OA
ATOM      4  C   UNL     1       7.036   5.780  18.574  0.00  0.00    +0.000 A 
ATOM      5  C   UNL     1       8.232   6.564  19.043  0.00  0.00    +0.000 C 
ATOM      6  N   UNL     1       6.287   5.191  19.458  0.00  0.00    +0.000 NA
ATOM      7  C   UNL     1       5.189   4.459  18.982  0.00  0.00    +0.000 A 
ATOM      8  C   UNL     1       4.361   3.785  19.857  0.00  0.00    +0.000 A 
ATOM      9  N   UNL     1       3.291   3.056  19.485  0.00  0.00    +0.000 NA
ATOM     10  C   UNL     1       3.058   3.001  18.165  0.00  0.00    +0.000 A 
ATOM     11  N   UNL     1       3.794   3.600  17.221  0.00  0.00    +0.000 NA
ATOM     12  C   UNL     1       4.842   4.337  17.642  0.00  0.00    +0.000 A 
ENDROOT
BRANCH  10  13
ATOM     13  O   UNL     1       1.976   2.299  17.684  0.00  0.00    +0.000 OA
ATOM     14  C   UNL     1       0.883   2.271  18.592  0.00  0.00    +0.000 C 
ENDBRANCH  10  13
BRANCH   1  15
ATOM     15  C   UNL     1       5.306   4.893  15.260  0.00  0.00    +0.000 C 
BRANCH  15  16
ATOM     16  C   UNL     1       6.041   3.778  14.503  0.00  0.00    +0.000 C 
BRANCH  16  18
ATOM     17  C   UNL     1       6.389   3.429  12.210  0.00  0.00    +0.000 C 
ATOM     18  O   UNL     1       6.675   4.276  13.321  0.00  0.00    +0.000 OA
ENDBRANCH  16  18
ENDBRANCH  15  16
ENDBRANCH   1  15
TORSDOF 4
ENDMDL
MODEL 3
REMARK VINA RESULT:      -6.3      1.269      1.270
REMARK  Name = 
REMARK  7 active torsions:
REMARK  status: ('A' for Active; 'I' for Inactive)
REMARK    1  A    between atoms: C_1  and  O_2
REMARK    2  A    between atoms: O_2  and  C_3
REMARK    3  A    between atoms: C_3  and  C_4
REMARK    4  A    between atoms: C_4  and  N_5
REMARK    5  A    between atoms: C_8  and  C_9
REMARK    6  A    between atoms: C_14  and  O_15
REMARK    7  A    between atoms: O_15  and  C_16
REMARK                            x       y       z     vdW  Elec       q    Type
REMARK                         _______ _______ _______ _____ _____    ______ ____
ROOT
ATOM      1  N   UNL     1       5.911   4.523  16.283  0.00  0.00    +0.000 N 
ATOM      2  C   UNL     1       6.822   5.570  16.318  0.00  0.00    +0.000 A 
ATOM      3  O   UNL     1       7.697   5.778  15.490  0.00  0.00    +0.000 OA
ATOM      4  C   UNL     1       6.721   6.507  17.523  0.00  0.00    +0.000 A 
ATOM      5  C   UNL     1       7.660   7.683  17.580  0.00  0.00    +0.000 C 
ATOM      6  N   UNL     1       5.877   6.332  18.495  0.00  0.00    +0.000 NA
ATOM      7  C   UNL     1       5.028   5.218  18.413  0.00  0.00    +0.000 A 
ATOM      8  C   UNL     1       4.121   4.951  19.419  0.00  0.00    +0.000 A 
ATOM      9  N   UNL     1       3.275   3.902  19.422  0.00  0.00    +0.000 NA
ATOM     10  C   UNL     1       3.360   3.085  18.362  0.00  0.00    +0.000 A 
ATOM     11  N   UNL     1       4.205   3.232  17.334  0.00  0.00    +0.000 NA
ATOM     12  C   UNL     1       5.018   4.308  17.363  0.00  0.00    +0.000 A 
ENDROOT
BRANCH  10  13
ATOM     13  O   UNL     1       2.524   1.996  18.261  0.00  0.00    +0.000 OA
ATOM     14  C   UNL     1       1.210   2.258  18.735  0.00  0.00    +0.000 C 
ENDBRANCH  10  13
BRANCH   1  15
ATOM     15  C   UNL     1       5.936   3.574  15.169  0.00  0.00    +0.000 C 
BRANCH  15  16
ATOM     16  C   UNL     1       5.474   4.131  13.815  0.00  0.00    +0.000 C 
BRANCH  16  18
ATOM     17  C   UNL     1       5.200   2.987  11.786  0.00  0.00    +0.000 C 
ATOM     18  O   UNL     1       6.146   3.491  12.726  0.00  0.00    +0.000 OA
ENDBRANCH  16  18
ENDBRANCH  15  16
ENDBRANCH   1  15
TORSDOF 4
ENDMDL
MODEL 4
REMARK VINA RESULT:      -6.2      2.034      5.157
REMARK  Name = 
REMARK  7 active torsions:
REMARK  status: ('A' for Active; 'I' for Inactive)
REMARK    1  A    between atoms: C_1  and  O_2
REMARK    2  A    between atoms: O_2  and  C_3
REMARK    3  A    between atoms: C_3  and  C_4
REMARK    4  A    between atoms: C_4  and  N_5
REMARK    5  A    between atoms: C_8  and  C_9
REMARK    6  A    between atoms: C_14  and  O_15
REMARK    7  A    between atoms: O_15  and  C_16
REMARK                            x       y       z     vdW  Elec       q    Type
REMARK                         _______ _______ _______ _____ _____    ______ ____
ROOT
ATOM      1  N   UNL     1       3.889   4.431  18.875  0.00  0.00    +0.000 N 
ATOM      2  C   UNL     1       3.042   5.201  19.660  0.00  0.00    +0.000 A 
ATOM      3  O   UNL     1       2.426   4.805  20.639  0.00  0.00    +0.000 OA
ATOM      4  C   UNL     1       2.858   6.656  19.223  0.00  0.00    +0.000 A 
ATOM      5  C   UNL     1       1.984   7.540  20.071  0.00  0.00    +0.000 C 
ATOM      6  N   UNL     1       3.409   7.155  18.157  0.00  0.00    +0.000 NA
ATOM      7  C   UNL     1       4.206   6.297  17.385  0.00  0.00    +0.000 A 
ATOM      8  C   UNL     1       4.804   6.747  16.225  0.00  0.00    +0.000 A 
ATOM      9  N   UNL     1       5.578   5.989  15.424  0.00  0.00    +0.000 NA
ATOM     10  C   UNL     1       5.743   4.717  15.813  0.00  0.00    +0.000 A 
ATOM     11  N   UNL     1       5.206   4.162  16.906  0.00  0.00    +0.000 NA
ATOM     12  C   UNL     1       4.457   4.964  17.690  0.00  0.00    +0.000 A 
ENDROOT
BRANCH  10  13
ATOM     13  O   UNL     1       6.533   3.866  15.073  0.00  0.00    +0.000 OA
ATOM     14  C   UNL     1       6.218   3.879  13.686  0.00  0.00    +0.000 C 
ENDBRANCH  10  13
BRANCH   1  15
ATOM     15  C   UNL     1       4.122   3.028  19.217  0.00  0.00    +0.000 C 
BRANCH  15  16
ATOM     16  C   UNL     1       3.162   2.020  18.568  0.00  0.00    +0.000 C 
BRANCH  16  18
ATOM     17  C   UNL     1       0.846   2.361  18.710  0.00  0.00    +0.000 C 
ATOM     18  O   UNL     1       1.992   1.821  19.365  0.00  0.00    +0.000 OA
ENDBRANCH  16  18
ENDBRANCH  15  16
ENDBRANCH   1  15
TORSDOF 4
ENDMDL
MODEL 5
REMARK VINA RESULT:      -5.9      2.042      5.143
REMARK  Name = 
REMARK  7 active torsions:
REMARK  status: ('A' for Active; 'I' for Inactive)
REMARK    1  A    between atoms: C_1  and  O_2
REMARK    2  A    between atoms: O_2  and  C_3
REMARK    3  A    between atoms: C_3  and  C_4
REMARK    4  A    between atoms: C_4  and  N_5
REMARK    5  A    between atoms: C_8  and  C_9
REMARK    6  A    between atoms: C_14  and  O_15
REMARK    7  A    between atoms: O_15  and  C_16
REMARK                            x       y       z     vdW  Elec       q    Type
REMARK                         _______ _______ _______ _____ _____    ______ ____
ROOT
ATOM      1  N   UNL     1       3.133   4.236  17.632  0.00  0.00    +0.000 N 
ATOM      2  C   UNL     1       2.397   5.015  18.515  0.00  0.00    +0.000 A 
ATOM      3  O   UNL     1       1.387   4.658  19.105  0.00  0.00    +0.000 OA
ATOM      4  C   UNL     1       2.895   6.447  18.722  0.00  0.00    +0.000 A 
ATOM      5  C   UNL     1       2.154   7.314  19.705  0.00  0.00    +0.000 C 
ATOM      6  N   UNL     1       3.913   6.948  18.088  0.00  0.00    +0.000 NA
ATOM      7  C   UNL     1       4.570   6.113  17.171  0.00  0.00    +0.000 A 
ATOM      8  C   UNL     1       5.643   6.581  16.441  0.00  0.00    +0.000 A 
ATOM      9  N   UNL     1       6.326   5.850  15.537  0.00  0.00    +0.000 NA
ATOM     10  C   UNL     1       5.892   4.594  15.362  0.00  0.00    +0.000 A 
ATOM     11  N   UNL     1       4.857   4.032  15.999  0.00  0.00    +0.000 NA
ATOM     12  C   UNL     1       4.218   4.794  16.910  0.00  0.00    +0.000 A 
ENDROOT
BRANCH  10  13
ATOM     13  O   UNL     1       6.535   3.759  14.475  0.00  0.00    +0.000 OA
ATOM     14  C   UNL     1       5.949   3.765  13.180  0.00  0.00    +0.000 C 
ENDBRANCH  10  13
BRANCH   1  15
ATOM     15  C   UNL     1       2.728   2.854  17.370  0.00  0.00    +0.000 C 
BRANCH  15  16
ATOM     16  C   UNL     1       3.472   1.782  18.179  0.00  0.00    +0.000 C 
BRANCH  16  18
ATOM     17  C   UNL     1       4.468   2.219  20.257  0.00  0.00    +0.000 C 
ATOM     18  O   UNL     1       3.245   1.931  19.583  0.00  0.00    +0.000 OA
ENDBRANCH  16  18
ENDBRANCH  15  16
ENDBRANCH   1  15
TORSDOF 4
ENDMDL
MODEL 6
REMARK VINA RESULT:      -5.9      2.900      4.396
REMARK  Name = 
REMARK  7 active torsions:
REMARK  status: ('A' for Active; 'I' for Inactive)
REMARK    1  A    between atoms: C_1  and  O_2
REMARK    2  A    between atoms: O_2  and  C_3
REMARK    3  A    between atoms: C_3  and  C_4
REMARK    4  A    between atoms: C_4  and  N_5
REMARK    5  A    between atoms: C_8  and  C_9
REMARK    6  A    between atoms: C_14  and  O_15
REMARK    7  A    between atoms: O_15  and  C_16
REMARK                            x       y       z     vdW  Elec       q    Type
REMARK                         _______ _______ _______ _____ _____    ______ ____
ROOT
ATOM      1  N   UNL     1       4.214   6.104  17.521  0.00  0.00    +0.000 N 
ATOM      2  C   UNL     1       4.874   6.039  16.302  0.00  0.00    +0.000 A 
ATOM      3  O   UNL     1       5.117   6.990  15.574  0.00  0.00    +0.000 OA
ATOM      4  C   UNL     1       5.293   4.642  15.840  0.00  0.00    +0.000 A 
ATOM      5  C   UNL     1       6.053   4.527  14.545  0.00  0.00    +0.000 C 
ATOM      6  N   UNL     1       5.018   3.558  16.502  0.00  0.00    +0.000 NA
ATOM      7  C   UNL     1       4.298   3.703  17.697  0.00  0.00    +0.000 A 
ATOM      8  C   UNL     1       3.946   2.597  18.444  0.00  0.00    +0.000 A 
ATOM      9  N   UNL     1       3.252   2.647  19.598  0.00  0.00    +0.000 NA
ATOM     10  C   UNL     1       2.891   3.873  20.005  0.00  0.00    +0.000 A 
ATOM     11  N   UNL     1       3.161   5.016  19.362  0.00  0.00    +0.000 NA
ATOM     12  C   UNL     1       3.878   4.919  18.224  0.00  0.00    +0.000 A 
ENDROOT
BRANCH  10  13
ATOM     13  O   UNL     1       2.196   4.032  21.183  0.00  0.00    +0.000 OA
ATOM     14  C   UNL     1       1.508   2.856  21.586  0.00  0.00    +0.000 C 
ENDBRANCH  10  13
BRANCH   1  15
ATOM     15  C   UNL     1       3.773   7.399  18.041  0.00  0.00    +0.000 C 
BRANCH  15  16
ATOM     16  C   UNL     1       2.332   7.796  17.693  0.00  0.00    +0.000 C 
BRANCH  16  18
ATOM     17  C   UNL     1       1.293   9.822  18.256  0.00  0.00    +0.000 C 
ATOM     18  O   UNL     1       2.229   9.190  17.388  0.00  0.00    +0.000 OA
ENDBRANCH  16  18
ENDBRANCH  15  16
ENDBRANCH   1  15
TORSDOF 4
ENDMDL
MODEL 7
REMARK VINA RESULT:      -5.9      2.447      5.988
REMARK  Name = 
REMARK  7 active torsions:
REMARK  status: ('A' for Active; 'I' for Inactive)
REMARK    1  A    between atoms: C_1  and  O_2
REMARK    2  A    between atoms: O_2  and  C_3
REMARK    3  A    between atoms: C_3  and  C_4
REMARK    4  A    between atoms: C_4  and  N_5
REMARK    5  A    between atoms: C_8  and  C_9
REMARK    6  A    between atoms: C_14  and  O_15
REMARK    7  A    between atoms: O_15  and  C_16
REMARK                            x       y       z     vdW  Elec       q    Type
REMARK                         _______ _______ _______ _____ _____    ______ ____
ROOT
ATOM      1  N   UNL     1       3.736   5.729  18.185  0.00  0.00    +0.000 N 
ATOM      2  C   UNL     1       2.829   4.696  18.377  0.00  0.00    +0.000 A 
ATOM      3  O   UNL     1       1.800   4.766  19.033  0.00  0.00    +0.000 OA
ATOM      4  C   UNL     1       3.189   3.358  17.729  0.00  0.00    +0.000 A 
ATOM      5  C   UNL     1       2.213   2.221  17.872  0.00  0.00    +0.000 C 
ATOM      6  N   UNL     1       4.294   3.156  17.074  0.00  0.00    +0.000 NA
ATOM      7  C   UNL     1       5.184   4.235  16.973  0.00  0.00    +0.000 A 
ATOM      8  C   UNL     1       6.389   4.092  16.314  0.00  0.00    +0.000 A 
ATOM      9  N   UNL     1       7.303   5.073  16.176  0.00  0.00    +0.000 NA
ATOM     10  C   UNL     1       6.982   6.247  16.739  0.00  0.00    +0.000 A 
ATOM     11  N   UNL     1       5.854   6.504  17.413  0.00  0.00    +0.000 NA
ATOM     12  C   UNL     1       4.959   5.499  17.506  0.00  0.00    +0.000 A 
ENDROOT
BRANCH  10  13
ATOM     13  O   UNL     1       7.840   7.319  16.636  0.00  0.00    +0.000 OA
ATOM     14  C   UNL     1       7.738   8.220  17.731  0.00  0.00    +0.000 C 
ENDBRANCH  10  13
BRANCH   1  15
ATOM     15  C   UNL     1       3.474   7.044  18.771  0.00  0.00    +0.000 C 
BRANCH  15  16
ATOM     16  C   UNL     1       2.511   7.941  17.982  0.00  0.00    +0.000 C 
BRANCH  16  18
ATOM     17  C   UNL     1       1.658   8.163  20.155  0.00  0.00    +0.000 C 
ATOM     18  O   UNL     1       1.702   8.738  18.852  0.00  0.00    +0.000 OA
ENDBRANCH  16  18
ENDBRANCH  15  16
ENDBRANCH   1  15
TORSDOF 4
ENDMDL
MODEL 8
REMARK VINA RESULT:      -5.9      1.868      4.885
REMARK  Name = 
REMARK  7 active torsions:
REMARK  status: ('A' for Active; 'I' for Inactive)
REMARK    1  A    between atoms: C_1  and  O_2
REMARK    2  A    between atoms: O_2  and  C_3
REMARK    3  A    between atoms: C_3  and  C_4
REMARK    4  A    between atoms: C_4  and  N_5
REMARK    5  A    between atoms: C_8  and  C_9
REMARK    6  A    between atoms: C_14  and  O_15
REMARK    7  A    between atoms: O_15  and  C_16
REMARK                            x       y       z     vdW  Elec       q    Type
REMARK                         _______ _______ _______ _____ _____    ______ ____
ROOT
ATOM      1  N   UNL     1       4.909   4.337  17.341  0.00  0.00    +0.000 N 
ATOM      2  C   UNL     1       5.531   4.794  18.495  0.00  0.00    +0.000 A 
ATOM      3  O   UNL     1       5.012   4.872  19.599  0.00  0.00    +0.000 OA
ATOM      4  C   UNL     1       6.978   5.265  18.336  0.00  0.00    +0.000 A 
ATOM      5  C   UNL     1       7.708   5.727  19.569  0.00  0.00    +0.000 C 
ATOM      6  N   UNL     1       7.598   5.294  17.193  0.00  0.00    +0.000 NA
ATOM      7  C   UNL     1       6.881   4.868  16.065  0.00  0.00    +0.000 A 
ATOM      8  C   UNL     1       7.463   4.892  14.814  0.00  0.00    +0.000 A 
ATOM      9  N   UNL     1       6.845   4.507  13.679  0.00  0.00    +0.000 NA
ATOM     10  C   UNL     1       5.579   4.089  13.822  0.00  0.00    +0.000 A 
ATOM     11  N   UNL     1       4.905   4.033  14.977  0.00  0.00    +0.000 NA
ATOM     12  C   UNL     1       5.570   4.406  16.089  0.00  0.00    +0.000 A 
ENDROOT
BRANCH  10  13
ATOM     13  O   UNL     1       4.867   3.656  12.726  0.00  0.00    +0.000 OA
ATOM     14  C   UNL     1       5.625   2.811  11.870  0.00  0.00    +0.000 C 
ENDBRANCH  10  13
BRANCH   1  15
ATOM     15  C   UNL     1       3.523   3.870  17.399  0.00  0.00    +0.000 C 
BRANCH  15  16
ATOM     16  C   UNL     1       3.334   2.411  17.840  0.00  0.00    +0.000 C 
BRANCH  16  18
ATOM     17  C   UNL     1       1.173   2.360  18.750  0.00  0.00    +0.000 C 
ATOM     18  O   UNL     1       2.567   2.322  19.045  0.00  0.00    +0.000 OA
ENDBRANCH  16  18
ENDBRANCH  15  16
ENDBRANCH   1  15
TORSDOF 4
ENDMDL
MODEL 9
REMARK VINA RESULT:      -5.9      2.465      6.224
REMARK  Name = 
REMARK  7 active torsions:
REMARK  status: ('A' for Active; 'I' for Inactive)
REMARK    1  A    between atoms: C_1  and  O_2
REMARK    2  A    between atoms: O_2  and  C_3
REMARK    3  A    between atoms: C_3  and  C_4
REMARK    4  A    between atoms: C_4  and  N_5
REMARK    5  A    between atoms: C_8  and  C_9
REMARK    6  A    between atoms: C_14  and  O_15
REMARK    7  A    between atoms: O_15  and  C_16
REMARK                            x       y       z     vdW  Elec       q    Type
REMARK                         _______ _______ _______ _____ _____    ______ ____
ROOT
ATOM      1  N   UNL     1       2.775   5.637  18.867  0.00  0.00    +0.000 N 
ATOM      2  C   UNL     1       1.873   4.640  19.209  0.00  0.00    +0.000 A 
ATOM      3  O   UNL     1       1.032   4.716  20.094  0.00  0.00    +0.000 OA
ATOM      4  C   UNL     1       1.983   3.335  18.419  0.00  0.00    +0.000 A 
ATOM      5  C   UNL     1       0.995   2.241  18.725  0.00  0.00    +0.000 C 
ATOM      6  N   UNL     1       2.888   3.124  17.511  0.00  0.00    +0.000 NA
ATOM      7  C   UNL     1       3.800   4.162  17.262  0.00  0.00    +0.000 A 
ATOM      8  C   UNL     1       4.805   4.005  16.330  0.00  0.00    +0.000 A 
ATOM      9  N   UNL     1       5.724   4.947  16.035  0.00  0.00    +0.000 NA
ATOM     10  C   UNL     1       5.621   6.092  16.725  0.00  0.00    +0.000 A 
ATOM     11  N   UNL     1       4.701   6.357  17.660  0.00  0.00    +0.000 NA
ATOM     12  C   UNL     1       3.789   5.394  17.905  0.00  0.00    +0.000 A 
ENDROOT
BRANCH  10  13
ATOM     13  O   UNL     1       6.500   7.124  16.482  0.00  0.00    +0.000 OA
ATOM     14  C   UNL     1       7.456   7.296  17.521  0.00  0.00    +0.000 C 
ENDBRANCH  10  13
BRANCH   1  15
ATOM     15  C   UNL     1       2.745   6.919  19.573  0.00  0.00    +0.000 C 
BRANCH  15  16
ATOM     16  C   UNL     1       1.974   8.044  18.869  0.00  0.00    +0.000 C 
BRANCH  16  18
ATOM     17  C   UNL     1       1.241   8.259  21.086  0.00  0.00    +0.000 C 
ATOM     18  O   UNL     1       1.299   8.886  19.808  0.00  0.00    +0.000 OA
ENDBRANCH  16  18
ENDBRANCH  15  16
ENDBRANCH   1  15
TORSDOF 4
ENDMDL
