MODEL 1
REMARK VINA RESULT:      -6.2      0.000      0.000
REMARK  Name = 
REMARK  6 active torsions:
REMARK  status: ('A' for Active; 'I' for Inactive)
REMARK    1  A    between atoms: S_2  and  O_4
REMARK    2  A    between atoms: S_2  and  C_5
REMARK    3  A    between atoms: C_5  and  C_6
REMARK    4  A    between atoms: C_6  and  C_7
REMARK    5  A    between atoms: C_7  and  S_8
REMARK    6  A    between atoms: S_8  and  C_9
REMARK                            x       y       z     vdW  Elec       q    Type
REMARK                         _______ _______ _______ _____ _____    ______ ____
ROOT
ATOM      1  S   UNL     1       5.028   6.003  16.029  0.00  0.00    +0.000 S 
ENDROOT
BRANCH   1   2
ATOM      2  C   UNL     1       4.033   5.345  17.312  0.00  0.00    +0.000 A 
ATOM      3  N   UNL     1       3.861   4.054  17.468  0.00  0.00    +0.000 NA
ATOM      4  C   UNL     1       2.959   3.828  18.498  0.00  0.00    +0.000 A 
ATOM      5  C   UNL     1       2.491   2.568  18.926  0.00  0.00    +0.000 A 
ATOM      6  C   UNL     1       1.578   2.485  19.983  0.00  0.00    +0.000 A 
ATOM      7  C   UNL     1       1.127   3.638  20.617  0.00  0.00    +0.000 A 
ATOM      8  C   UNL     1       1.569   4.900  20.208  0.00  0.00    +0.000 A 
ATOM      9  C   UNL     1       2.485   4.972  19.143  0.00  0.00    +0.000 A 
ATOM     10  S   UNL     1       3.191   6.358  18.407  0.00  0.00    +0.000 S 
ENDBRANCH   1   2
BRANCH   1  11
ATOM     11  C   UNL     1       6.222   4.656  15.773  0.00  0.00    +0.000 C 
BRANCH  11  12
ATOM     12  C   UNL     1       7.559   5.041  16.411  0.00  0.00    +0.000 C 
BRANCH  12  13
ATOM     13  C   UNL     1       7.702   4.446  17.809  0.00  0.00    +0.000 C 
BRANCH  13  15
ATOM     14  O   UNL     1       6.278   5.586  19.751  0.00  0.00    +0.000 OA
ATOM     15  S   UNL     1       7.549   5.707  19.074  0.00  0.00    +0.000 S 
ATOM     16  O   UNL     1       8.041   6.972  18.585  0.00  0.00    +0.000 OA
BRANCH  15  17
ATOM     17  O   UNL     1       8.664   5.139  20.095  0.00  0.00    +0.000 OA
ATOM     18  H   UNL     1       9.517   5.585  19.904  0.00  0.00    +0.000 HD
ENDBRANCH  15  17
ENDBRANCH  13  15
ENDBRANCH  12  13
ENDBRANCH  11  12
ENDBRANCH   1  11
TORSDOF 6
ENDMDL
MODEL 2
REMARK VINA RESULT:      -6.2      1.522      2.012
REMARK  Name = 
REMARK  6 active torsions:
REMARK  status: ('A' for Active; 'I' for Inactive)
REMARK    1  A    between atoms: S_2  and  O_4
REMARK    2  A    between atoms: S_2  and  C_5
REMARK    3  A    between atoms: C_5  and  C_6
REMARK    4  A    between atoms: C_6  and  C_7
REMARK    5  A    between atoms: C_7  and  S_8
REMARK    6  A    between atoms: S_8  and  C_9
REMARK                            x       y       z     vdW  Elec       q    Type
REMARK                         _______ _______ _______ _____ _____    ______ ____
ROOT
ATOM      1  S   UNL     1       5.284   5.568  16.037  0.00  0.00    +0.000 S 
ENDROOT
BRANCH   1   2
ATOM      2  C   UNL     1       4.151   4.858  17.169  0.00  0.00    +0.000 A 
ATOM      3  N   UNL     1       3.469   5.585  18.021  0.00  0.00    +0.000 NA
ATOM      4  C   UNL     1       2.725   4.755  18.847  0.00  0.00    +0.000 A 
ATOM      5  C   UNL     1       1.903   5.172  19.916  0.00  0.00    +0.000 A 
ATOM      6  C   UNL     1       1.206   4.223  20.670  0.00  0.00    +0.000 A 
ATOM      7  C   UNL     1       1.316   2.868  20.376  0.00  0.00    +0.000 A 
ATOM      8  C   UNL     1       2.129   2.427  19.327  0.00  0.00    +0.000 A 
ATOM      9  C   UNL     1       2.828   3.390  18.577  0.00  0.00    +0.000 A 
ATOM     10  S   UNL     1       3.907   3.165  17.255  0.00  0.00    +0.000 S 
ENDBRANCH   1   2
BRANCH   1  11
ATOM     11  C   UNL     1       5.940   6.957  17.010  0.00  0.00    +0.000 C 
BRANCH  11  12
ATOM     12  C   UNL     1       7.461   6.823  17.118  0.00  0.00    +0.000 C 
BRANCH  12  13
ATOM     13  C   UNL     1       7.925   6.895  18.570  0.00  0.00    +0.000 C 
BRANCH  13  15
ATOM     14  O   UNL     1       6.317   5.169  19.808  0.00  0.00    +0.000 OA
ATOM     15  S   UNL     1       7.697   5.326  19.408  0.00  0.00    +0.000 S 
ATOM     16  O   UNL     1       8.792   5.075  20.312  0.00  0.00    +0.000 OA
BRANCH  15  17
ATOM     17  O   UNL     1       7.915   4.357  18.135  0.00  0.00    +0.000 OA
ATOM     18  H   UNL     1       8.639   4.723  17.585  0.00  0.00    +0.000 HD
ENDBRANCH  15  17
ENDBRANCH  13  15
ENDBRANCH  12  13
ENDBRANCH  11  12
ENDBRANCH   1  11
TORSDOF 6
ENDMDL
MODEL 3
REMARK VINA RESULT:      -6.0      1.405      1.839
REMARK  Name = 
REMARK  6 active torsions:
REMARK  status: ('A' for Active; 'I' for Inactive)
REMARK    1  A    between atoms: S_2  and  O_4
REMARK    2  A    between atoms: S_2  and  C_5
REMARK    3  A    between atoms: C_5  and  C_6
REMARK    4  A    between atoms: C_6  and  C_7
REMARK    5  A    between atoms: C_7  and  S_8
REMARK    6  A    between atoms: S_8  and  C_9
REMARK                            x       y       z     vdW  Elec       q    Type
REMARK                         _______ _______ _______ _____ _____    ______ ____
ROOT
ATOM      1  S   UNL     1       5.277   3.589  16.255  0.00  0.00    +0.000 S 
ENDROOT
BRANCH   1   2
ATOM      2  C   UNL     1       4.149   3.512  17.593  0.00  0.00    +0.000 A 
ATOM      3  N   UNL     1       4.517   3.134  18.794  0.00  0.00    +0.000 NA
ATOM      4  C   UNL     1       3.406   3.081  19.624  0.00  0.00    +0.000 A 
ATOM      5  C   UNL     1       3.401   2.672  20.974  0.00  0.00    +0.000 A 
ATOM      6  C   UNL     1       2.203   2.668  21.697  0.00  0.00    +0.000 A 
ATOM      7  C   UNL     1       1.014   3.065  21.093  0.00  0.00    +0.000 A 
ATOM      8  C   UNL     1       0.990   3.467  19.755  0.00  0.00    +0.000 A 
ATOM      9  C   UNL     1       2.199   3.466  19.037  0.00  0.00    +0.000 A 
ATOM     10  S   UNL     1       2.489   3.884  17.393  0.00  0.00    +0.000 S 
ENDBRANCH   1   2
BRANCH   1  11
ATOM     11  C   UNL     1       5.409   5.384  15.998  0.00  0.00    +0.000 C 
BRANCH  11  12
ATOM     12  C   UNL     1       6.820   5.845  16.371  0.00  0.00    +0.000 C 
BRANCH  12  13
ATOM     13  C   UNL     1       7.455   4.916  17.403  0.00  0.00    +0.000 C 
BRANCH  13  15
ATOM     14  O   UNL     1       7.990   7.176  18.708  0.00  0.00    +0.000 OA
ATOM     15  S   UNL     1       7.761   5.770  18.949  0.00  0.00    +0.000 S 
ATOM     16  O   UNL     1       8.628   4.985  19.793  0.00  0.00    +0.000 OA
BRANCH  15  17
ATOM     17  O   UNL     1       6.276   5.651  19.571  0.00  0.00    +0.000 OA
ATOM     18  H   UNL     1       5.854   4.840  19.216  0.00  0.00    +0.000 HD
ENDBRANCH  15  17
ENDBRANCH  13  15
ENDBRANCH  12  13
ENDBRANCH  11  12
ENDBRANCH   1  11
TORSDOF 6
ENDMDL
MODEL 4
REMARK VINA RESULT:      -6.0      0.467      1.143
REMARK  Name = 
REMARK  6 active torsions:
REMARK  status: ('A' for Active; 'I' for Inactive)
REMARK    1  A    between atoms: S_2  and  O_4
REMARK    2  A    between atoms: S_2  and  C_5
REMARK    3  A    between atoms: C_5  and  C_6
REMARK    4  A    between atoms: C_6  and  C_7
REMARK    5  A    between atoms: C_7  and  S_8
REMARK    6  A    between atoms: S_8  and  C_9
REMARK                            x       y       z     vdW  Elec       q    Type
REMARK                         _______ _______ _______ _____ _____    ______ ____
ROOT
ATOM      1  S   UNL     1       4.707   6.621  16.388  0.00  0.00    +0.000 S 
ENDROOT
BRANCH   1   2
ATOM      2  C   UNL     1       3.749   5.669  17.504  0.00  0.00    +0.000 A 
ATOM      3  N   UNL     1       3.639   4.366  17.392  0.00  0.00    +0.000 NA
ATOM      4  C   UNL     1       2.753   3.892  18.349  0.00  0.00    +0.000 A 
ATOM      5  C   UNL     1       2.347   2.550  18.508  0.00  0.00    +0.000 A 
ATOM      6  C   UNL     1       1.444   2.210  19.520  0.00  0.00    +0.000 A 
ATOM      7  C   UNL     1       0.940   3.187  20.373  0.00  0.00    +0.000 A 
ATOM      8  C   UNL     1       1.320   4.525  20.233  0.00  0.00    +0.000 A 
ATOM      9  C   UNL     1       2.227   4.856  19.211  0.00  0.00    +0.000 A 
ATOM     10  S   UNL     1       2.864   6.395  18.777  0.00  0.00    +0.000 S 
ENDBRANCH   1   2
BRANCH   1  11
ATOM     11  C   UNL     1       5.869   5.373  15.756  0.00  0.00    +0.000 C 
BRANCH  11  12
ATOM     12  C   UNL     1       7.242   5.595  16.395  0.00  0.00    +0.000 C 
BRANCH  12  13
ATOM     13  C   UNL     1       7.484   4.625  17.548  0.00  0.00    +0.000 C 
BRANCH  13  15
ATOM     14  O   UNL     1       8.686   5.017  19.893  0.00  0.00    +0.000 OA
ATOM     15  S   UNL     1       7.557   5.483  19.120  0.00  0.00    +0.000 S 
ATOM     16  O   UNL     1       6.237   5.606  19.688  0.00  0.00    +0.000 OA
BRANCH  15  17
ATOM     17  O   UNL     1       7.959   6.944  18.562  0.00  0.00    +0.000 OA
ATOM     18  H   UNL     1       7.196   7.547  18.689  0.00  0.00    +0.000 HD
ENDBRANCH  15  17
ENDBRANCH  13  15
ENDBRANCH  12  13
ENDBRANCH  11  12
ENDBRANCH   1  11
TORSDOF 6
ENDMDL
MODEL 5
REMARK VINA RESULT:      -5.9      2.490      3.133
REMARK  Name = 
REMARK  6 active torsions:
REMARK  status: ('A' for Active; 'I' for Inactive)
REMARK    1  A    between atoms: S_2  and  O_4
REMARK    2  A    between atoms: S_2  and  C_5
REMARK    3  A    between atoms: C_5  and  C_6
REMARK    4  A    between atoms: C_6  and  C_7
REMARK    5  A    between atoms: C_7  and  S_8
REMARK    6  A    between atoms: S_8  and  C_9
REMARK                            x       y       z     vdW  Elec       q    Type
REMARK                         _______ _______ _______ _____ _____    ______ ____
ROOT
ATOM      1  S   UNL     1       6.965   5.566  19.407  0.00  0.00    +0.000 S 
ENDROOT
BRANCH   1   2
ATOM      2  C   UNL     1       5.362   4.870  19.281  0.00  0.00    +0.000 A 
ATOM      3  N   UNL     1       5.156   3.577  19.355  0.00  0.00    +0.000 NA
ATOM      4  C   UNL     1       3.813   3.308  19.133  0.00  0.00    +0.000 A 
ATOM      5  C   UNL     1       3.221   2.028  19.088  0.00  0.00    +0.000 A 
ATOM      6  C   UNL     1       1.848   1.903  18.854  0.00  0.00    +0.000 A 
ATOM      7  C   UNL     1       1.059   3.033  18.664  0.00  0.00    +0.000 A 
ATOM      8  C   UNL     1       1.621   4.312  18.696  0.00  0.00    +0.000 A 
ATOM      9  C   UNL     1       3.003   4.427  18.929  0.00  0.00    +0.000 A 
ATOM     10  S   UNL     1       3.979   5.842  19.007  0.00  0.00    +0.000 S 
ENDBRANCH   1   2
BRANCH   1  11
ATOM     11  C   UNL     1       7.368   5.860  17.658  0.00  0.00    +0.000 C 
BRANCH  11  12
ATOM     12  C   UNL     1       7.417   4.521  16.920  0.00  0.00    +0.000 C 
BRANCH  12  13
ATOM     13  C   UNL     1       7.322   4.712  15.409  0.00  0.00    +0.000 C 
BRANCH  13  15
ATOM     14  O   UNL     1       5.400   4.185  13.642  0.00  0.00    +0.000 OA
ATOM     15  S   UNL     1       5.619   4.897  14.880  0.00  0.00    +0.000 S 
ATOM     16  O   UNL     1       5.177   6.256  15.073  0.00  0.00    +0.000 OA
BRANCH  15  17
ATOM     17  O   UNL     1       4.925   4.015  16.041  0.00  0.00    +0.000 OA
ATOM     18  H   UNL     1       4.581   4.622  16.730  0.00  0.00    +0.000 HD
ENDBRANCH  15  17
ENDBRANCH  13  15
ENDBRANCH  12  13
ENDBRANCH  11  12
ENDBRANCH   1  11
TORSDOF 6
ENDMDL
MODEL 6
REMARK VINA RESULT:      -5.9      3.179      6.144
REMARK  Name = 
REMARK  6 active torsions:
REMARK  status: ('A' for Active; 'I' for Inactive)
REMARK    1  A    between atoms: S_2  and  O_4
REMARK    2  A    between atoms: S_2  and  C_5
REMARK    3  A    between atoms: C_5  and  C_6
REMARK    4  A    between atoms: C_6  and  C_7
REMARK    5  A    between atoms: C_7  and  S_8
REMARK    6  A    between atoms: S_8  and  C_9
REMARK                            x       y       z     vdW  Elec       q    Type
REMARK                         _______ _______ _______ _____ _____    ______ ____
ROOT
ATOM      1  S   UNL     1       6.447   5.728  17.963  0.00  0.00    +0.000 S 
ENDROOT
BRANCH   1   2
ATOM      2  C   UNL     1       6.536   5.132  16.318  0.00  0.00    +0.000 A 
ATOM      3  N   UNL     1       7.386   5.620  15.446  0.00  0.00    +0.000 NA
ATOM      4  C   UNL     1       7.172   5.027  14.209  0.00  0.00    +0.000 A 
ATOM      5  C   UNL     1       7.861   5.330  13.016  0.00  0.00    +0.000 A 
ATOM      6  C   UNL     1       7.542   4.651  11.835  0.00  0.00    +0.000 A 
ATOM      7  C   UNL     1       6.547   3.679  11.827  0.00  0.00    +0.000 A 
ATOM      8  C   UNL     1       5.843   3.365  12.994  0.00  0.00    +0.000 A 
ATOM      9  C   UNL     1       6.171   4.055  14.175  0.00  0.00    +0.000 A 
ATOM     10  S   UNL     1       5.482   3.910  15.745  0.00  0.00    +0.000 S 
ENDBRANCH   1   2
BRANCH   1  11
ATOM     11  C   UNL     1       4.699   6.219  18.074  0.00  0.00    +0.000 C 
BRANCH  11  12
ATOM     12  C   UNL     1       3.936   5.183  18.902  0.00  0.00    +0.000 C 
BRANCH  12  13
ATOM     13  C   UNL     1       4.866   4.090  19.422  0.00  0.00    +0.000 C 
BRANCH  13  15
ATOM     14  O   UNL     1       3.634   1.981  18.359  0.00  0.00    +0.000 OA
ATOM     15  S   UNL     1       3.993   2.540  19.642  0.00  0.00    +0.000 S 
ATOM     16  O   UNL     1       3.047   2.645  20.726  0.00  0.00    +0.000 OA
BRANCH  15  17
ATOM     17  O   UNL     1       5.231   1.660  20.191  0.00  0.00    +0.000 OA
ATOM     18  H   UNL     1       5.892   1.570  19.472  0.00  0.00    +0.000 HD
ENDBRANCH  15  17
ENDBRANCH  13  15
ENDBRANCH  12  13
ENDBRANCH  11  12
ENDBRANCH   1  11
TORSDOF 6
ENDMDL
MODEL 7
REMARK VINA RESULT:      -5.9      3.041      5.845
REMARK  Name = 
REMARK  6 active torsions:
REMARK  status: ('A' for Active; 'I' for Inactive)
REMARK    1  A    between atoms: S_2  and  O_4
REMARK    2  A    between atoms: S_2  and  C_5
REMARK    3  A    between atoms: C_5  and  C_6
REMARK    4  A    between atoms: C_6  and  C_7
REMARK    5  A    between atoms: C_7  and  S_8
REMARK    6  A    between atoms: S_8  and  C_9
REMARK                            x       y       z     vdW  Elec       q    Type
REMARK                         _______ _______ _______ _____ _____    ______ ____
ROOT
ATOM      1  S   UNL     1       3.713   2.740  17.490  0.00  0.00    +0.000 S 
ENDROOT
BRANCH   1   2
ATOM      2  C   UNL     1       4.885   4.040  17.565  0.00  0.00    +0.000 A 
ATOM      3  N   UNL     1       5.828   4.076  18.477  0.00  0.00    +0.000 NA
ATOM      4  C   UNL     1       6.548   5.256  18.353  0.00  0.00    +0.000 A 
ATOM      5  C   UNL     1       7.609   5.669  19.186  0.00  0.00    +0.000 A 
ATOM      6  C   UNL     1       8.249   6.889  18.945  0.00  0.00    +0.000 A 
ATOM      7  C   UNL     1       7.847   7.700  17.889  0.00  0.00    +0.000 A 
ATOM      8  C   UNL     1       6.794   7.318  17.053  0.00  0.00    +0.000 A 
ATOM      9  C   UNL     1       6.155   6.091  17.305  0.00  0.00    +0.000 A 
ATOM     10  S   UNL     1       4.834   5.362  16.478  0.00  0.00    +0.000 S 
ENDBRANCH   1   2
BRANCH   1  11
ATOM     11  C   UNL     1       2.164   3.634  17.819  0.00  0.00    +0.000 C 
BRANCH  11  12
ATOM     12  C   UNL     1       1.267   2.776  18.715  0.00  0.00    +0.000 C 
BRANCH  12  13
ATOM     13  C   UNL     1       0.883   3.516  19.993  0.00  0.00    +0.000 C 
BRANCH  13  15
ATOM     14  O   UNL     1       3.223   2.530  20.799  0.00  0.00    +0.000 OA
ATOM     15  S   UNL     1       2.036   3.171  21.321  0.00  0.00    +0.000 S 
ATOM     16  O   UNL     1       1.337   2.665  22.476  0.00  0.00    +0.000 OA
BRANCH  15  17
ATOM     17  O   UNL     1       2.453   4.693  21.660  0.00  0.00    +0.000 OA
ATOM     18  H   UNL     1       2.833   5.099  20.852  0.00  0.00    +0.000 HD
ENDBRANCH  15  17
ENDBRANCH  13  15
ENDBRANCH  12  13
ENDBRANCH  11  12
ENDBRANCH   1  11
TORSDOF 6
ENDMDL
MODEL 8
REMARK VINA RESULT:      -5.9      3.122      5.726
REMARK  Name = 
REMARK  6 active torsions:
REMARK  status: ('A' for Active; 'I' for Inactive)
REMARK    1  A    between atoms: S_2  and  O_4
REMARK    2  A    between atoms: S_2  and  C_5
REMARK    3  A    between atoms: C_5  and  C_6
REMARK    4  A    between atoms: C_6  and  C_7
REMARK    5  A    between atoms: C_7  and  S_8
REMARK    6  A    between atoms: S_8  and  C_9
REMARK                            x       y       z     vdW  Elec       q    Type
REMARK                         _______ _______ _______ _____ _____    ______ ____
ROOT
ATOM      1  S   UNL     1       2.903   3.153  17.235  0.00  0.00    +0.000 S 
ENDROOT
BRANCH   1   2
ATOM      2  C   UNL     1       4.244   4.204  17.647  0.00  0.00    +0.000 A 
ATOM      3  N   UNL     1       4.573   5.236  16.907  0.00  0.00    +0.000 NA
ATOM      4  C   UNL     1       5.718   5.827  17.419  0.00  0.00    +0.000 A 
ATOM      5  C   UNL     1       6.397   6.933  16.866  0.00  0.00    +0.000 A 
ATOM      6  C   UNL     1       7.546   7.430  17.490  0.00  0.00    +0.000 A 
ATOM      7  C   UNL     1       8.027   6.840  18.655  0.00  0.00    +0.000 A 
ATOM      8  C   UNL     1       7.378   5.738  19.220  0.00  0.00    +0.000 A 
ATOM      9  C   UNL     1       6.225   5.246  18.583  0.00  0.00    +0.000 A 
ATOM     10  S   UNL     1       5.228   3.912  19.017  0.00  0.00    +0.000 S 
ENDBRANCH   1   2
BRANCH   1  11
ATOM     11  C   UNL     1       1.480   4.193  17.683  0.00  0.00    +0.000 C 
BRANCH  11  12
ATOM     12  C   UNL     1       1.372   4.270  19.207  0.00  0.00    +0.000 C 
BRANCH  12  13
ATOM     13  C   UNL     1       1.531   2.894  19.848  0.00  0.00    +0.000 C 
BRANCH  13  15
ATOM     14  O   UNL     1       2.422   4.383  21.869  0.00  0.00    +0.000 OA
ATOM     15  S   UNL     1       2.346   3.005  21.441  0.00  0.00    +0.000 S 
ATOM     16  O   UNL     1       3.486   2.123  21.485  0.00  0.00    +0.000 OA
BRANCH  15  17
ATOM     17  O   UNL     1       1.191   2.315  22.334  0.00  0.00    +0.000 OA
ATOM     18  H   UNL     1       0.458   2.044  21.741  0.00  0.00    +0.000 HD
ENDBRANCH  15  17
ENDBRANCH  13  15
ENDBRANCH  12  13
ENDBRANCH  11  12
ENDBRANCH   1  11
TORSDOF 6
ENDMDL
MODEL 9
REMARK VINA RESULT:      -5.9      3.697      4.220
REMARK  Name = 
REMARK  6 active torsions:
REMARK  status: ('A' for Active; 'I' for Inactive)
REMARK    1  A    between atoms: S_2  and  O_4
REMARK    2  A    between atoms: S_2  and  C_5
REMARK    3  A    between atoms: C_5  and  C_6
REMARK    4  A    between atoms: C_6  and  C_7
REMARK    5  A    between atoms: C_7  and  S_8
REMARK    6  A    between atoms: S_8  and  C_9
REMARK                            x       y       z     vdW  Elec       q    Type
REMARK                         _______ _______ _______ _____ _____    ______ ____
ROOT
ATOM      1  S   UNL     1       5.287   5.934  16.380  0.00  0.00    +0.000 S 
ENDROOT
BRANCH   1   2
ATOM      2  C   UNL     1       4.240   5.175  17.563  0.00  0.00    +0.000 A 
ATOM      3  N   UNL     1       3.280   4.350  17.217  0.00  0.00    +0.000 NA
ATOM      4  C   UNL     1       2.561   3.977  18.343  0.00  0.00    +0.000 A 
ATOM      5  C   UNL     1       1.427   3.138  18.361  0.00  0.00    +0.000 A 
ATOM      6  C   UNL     1       0.797   2.843  19.574  0.00  0.00    +0.000 A 
ATOM      7  C   UNL     1       1.279   3.373  20.767  0.00  0.00    +0.000 A 
ATOM      8  C   UNL     1       2.396   4.213  20.777  0.00  0.00    +0.000 A 
ATOM      9  C   UNL     1       3.021   4.505  19.551  0.00  0.00    +0.000 A 
ATOM     10  S   UNL     1       4.384   5.507  19.237  0.00  0.00    +0.000 S 
ENDBRANCH   1   2
BRANCH   1  11
ATOM     11  C   UNL     1       6.557   4.653  16.151  0.00  0.00    +0.000 C 
BRANCH  11  12
ATOM     12  C   UNL     1       6.806   4.453  14.654  0.00  0.00    +0.000 C 
BRANCH  12  13
ATOM     13  C   UNL     1       5.734   3.569  14.023  0.00  0.00    +0.000 C 
BRANCH  13  15
ATOM     14  O   UNL     1       7.092   4.216  11.824  0.00  0.00    +0.000 OA
ATOM     15  S   UNL     1       5.895   3.519  12.238  0.00  0.00    +0.000 S 
ATOM     16  O   UNL     1       4.617   3.749  11.612  0.00  0.00    +0.000 OA
BRANCH  15  17
ATOM     17  O   UNL     1       6.211   1.943  12.084  0.00  0.00    +0.000 OA
ATOM     18  H   UNL     1       5.551   1.440  12.607  0.00  0.00    +0.000 HD
ENDBRANCH  15  17
ENDBRANCH  13  15
ENDBRANCH  12  13
ENDBRANCH  11  12
ENDBRANCH   1  11
TORSDOF 6
ENDMDL
