MODEL 1
REMARK VINA RESULT:      -8.2      0.000      0.000
REMARK  Name = 
REMARK  5 active torsions:
REMARK  status: ('A' for Active; 'I' for Inactive)
REMARK    1  A    between atoms: C_1  and  C_2
REMARK    2  A    between atoms: N_4  and  C_5
REMARK    3  A    between atoms: C_8  and  S_9
REMARK    4  A    between atoms: S_9  and  N_12
REMARK    5  A    between atoms: N_12  and  C_13
REMARK                            x       y       z     vdW  Elec       q    Type
REMARK                         _______ _______ _______ _____ _____    ______ ____
ROOT
ATOM      1  S   UNL     1       2.673   2.935  17.950  0.00  0.00    +0.000 S 
ATOM      2  O   UNL     1       2.275   1.835  18.799  0.00  0.00    +0.000 OA
ATOM      3  O   UNL     1       2.074   3.125  16.648  0.00  0.00    +0.000 OA
ENDROOT
BRANCH   1   7
ATOM      4  C   UNL     1       1.976   6.818  20.295  0.00  0.00    +0.000 A 
ATOM      5  C   UNL     1       2.203   6.837  18.914  0.00  0.00    +0.000 A 
ATOM      6  C   UNL     1       2.411   5.654  18.205  0.00  0.00    +0.000 A 
ATOM      7  C   UNL     1       2.417   4.434  18.881  0.00  0.00    +0.000 A 
ATOM      8  C   UNL     1       2.148   4.383  20.249  0.00  0.00    +0.000 A 
ATOM      9  C   UNL     1       1.943   5.578  20.954  0.00  0.00    +0.000 A 
BRANCH   4  13
ATOM     10  C   UNL     1       0.752   9.884  22.123  0.00  0.00    +0.000 C 
ATOM     11  C   UNL     1       0.602   8.530  21.483  0.00  0.00    +0.000 C 
ATOM     12  O   UNL     1      -0.514   8.027  21.362  0.00  0.00    +0.000 OA
ATOM     13  N   UNL     1       1.803   7.989  21.058  0.00  0.00    +0.000 N 
ATOM     14  H   UNL     1       2.650   8.464  21.352  0.00  0.00    +0.000 HD
ENDBRANCH   4  13
ENDBRANCH   1   7
BRANCH   1  15
ATOM     15  N   UNL     1       4.383   2.851  17.826  0.00  0.00    +0.000 N 
ATOM     16  H   UNL     1       4.583   1.941  17.395  0.00  0.00    +0.000 HD
BRANCH  15  17
ATOM     17  C   UNL     1       4.987   3.931  17.087  0.00  0.00    +0.000 A 
ATOM     18  C   UNL     1       4.798   3.971  15.703  0.00  0.00    +0.000 A 
ATOM     19  C   UNL     1       5.509   4.887  14.936  0.00  0.00    +0.000 A 
ATOM     20  C   UNL     1       6.462   5.699  15.546  0.00  0.00    +0.000 A 
ATOM     21  C   UNL     1       6.674   5.631  16.935  0.00  0.00    +0.000 A 
ATOM     22  C   UNL     1       7.712   6.339  17.551  0.00  0.00    +0.000 A 
ATOM     23  C   UNL     1       7.884   6.259  18.928  0.00  0.00    +0.000 A 
ATOM     24  C   UNL     1       6.971   5.517  19.651  0.00  0.00    +0.000 A 
ATOM     25  N   UNL     1       5.979   4.792  19.092  0.00  0.00    +0.000 NA
ATOM     26  C   UNL     1       5.873   4.799  17.742  0.00  0.00    +0.000 A 
ENDBRANCH  15  17
ENDBRANCH   1  15
TORSDOF 4
ENDMDL
MODEL 2
REMARK VINA RESULT:      -8.0      2.968      4.383
REMARK  Name = 
REMARK  5 active torsions:
REMARK  status: ('A' for Active; 'I' for Inactive)
REMARK    1  A    between atoms: C_1  and  C_2
REMARK    2  A    between atoms: N_4  and  C_5
REMARK    3  A    between atoms: C_8  and  S_9
REMARK    4  A    between atoms: S_9  and  N_12
REMARK    5  A    between atoms: N_12  and  C_13
REMARK                            x       y       z     vdW  Elec       q    Type
REMARK                         _______ _______ _______ _____ _____    ______ ____
ROOT
ATOM      1  S   UNL     1       6.233   4.901  18.721  0.00  0.00    +0.000 S 
ATOM      2  O   UNL     1       6.809   4.845  17.396  0.00  0.00    +0.000 OA
ATOM      3  O   UNL     1       7.011   5.356  19.852  0.00  0.00    +0.000 OA
ENDROOT
BRANCH   1   7
ATOM      4  C   UNL     1       2.495   7.544  18.390  0.00  0.00    +0.000 A 
ATOM      5  C   UNL     1       3.417   7.459  17.340  0.00  0.00    +0.000 A 
ATOM      6  C   UNL     1       4.550   6.652  17.444  0.00  0.00    +0.000 A 
ATOM      7  C   UNL     1       4.784   5.935  18.618  0.00  0.00    +0.000 A 
ATOM      8  C   UNL     1       3.859   5.966  19.662  0.00  0.00    +0.000 A 
ATOM      9  C   UNL     1       2.723   6.783  19.549  0.00  0.00    +0.000 A 
BRANCH   4  13
ATOM     10  C   UNL     1      -0.014  10.362  18.372  0.00  0.00    +0.000 C 
ATOM     11  C   UNL     1       1.351   9.753  18.195  0.00  0.00    +0.000 C 
ATOM     12  O   UNL     1       2.322  10.474  17.965  0.00  0.00    +0.000 OA
ATOM     13  N   UNL     1       1.361   8.377  18.347  0.00  0.00    +0.000 N 
ATOM     14  H   UNL     1       0.459   7.915  18.399  0.00  0.00    +0.000 HD
ENDBRANCH   4  13
ENDBRANCH   1   7
BRANCH   1  15
ATOM     15  N   UNL     1       5.571   3.347  19.023  0.00  0.00    +0.000 N 
ATOM     16  H   UNL     1       5.658   3.204  20.037  0.00  0.00    +0.000 HD
BRANCH  15  17
ATOM     17  C   UNL     1       4.211   3.175  18.579  0.00  0.00    +0.000 A 
ATOM     18  C   UNL     1       3.920   3.412  17.233  0.00  0.00    +0.000 A 
ATOM     19  C   UNL     1       2.597   3.432  16.806  0.00  0.00    +0.000 A 
ATOM     20  C   UNL     1       1.574   3.297  17.741  0.00  0.00    +0.000 A 
ATOM     21  C   UNL     1       1.870   3.093  19.100  0.00  0.00    +0.000 A 
ATOM     22  C   UNL     1       0.865   3.085  20.074  0.00  0.00    +0.000 A 
ATOM     23  C   UNL     1       1.192   2.867  21.407  0.00  0.00    +0.000 A 
ATOM     24  C   UNL     1       2.513   2.605  21.713  0.00  0.00    +0.000 A 
ATOM     25  N   UNL     1       3.517   2.639  20.810  0.00  0.00    +0.000 NA
ATOM     26  C   UNL     1       3.204   2.943  19.528  0.00  0.00    +0.000 A 
ENDBRANCH  15  17
ENDBRANCH   1  15
TORSDOF 4
ENDMDL
MODEL 3
REMARK VINA RESULT:      -7.9      2.841      4.432
REMARK  Name = 
REMARK  5 active torsions:
REMARK  status: ('A' for Active; 'I' for Inactive)
REMARK    1  A    between atoms: C_1  and  C_2
REMARK    2  A    between atoms: N_4  and  C_5
REMARK    3  A    between atoms: C_8  and  S_9
REMARK    4  A    between atoms: S_9  and  N_12
REMARK    5  A    between atoms: N_12  and  C_13
REMARK                            x       y       z     vdW  Elec       q    Type
REMARK                         _______ _______ _______ _____ _____    ______ ____
ROOT
ATOM      1  S   UNL     1       6.278   4.894  18.746  0.00  0.00    +0.000 S 
ATOM      2  O   UNL     1       6.985   4.799  17.488  0.00  0.00    +0.000 OA
ATOM      3  O   UNL     1       6.942   5.368  19.939  0.00  0.00    +0.000 OA
ENDROOT
BRANCH   1   7
ATOM      4  C   UNL     1       2.634   7.609  18.102  0.00  0.00    +0.000 A 
ATOM      5  C   UNL     1       2.797   6.886  19.289  0.00  0.00    +0.000 A 
ATOM      6  C   UNL     1       3.908   6.064  19.481  0.00  0.00    +0.000 A 
ATOM      7  C   UNL     1       4.861   5.941  18.470  0.00  0.00    +0.000 A 
ATOM      8  C   UNL     1       4.746   6.685  17.296  0.00  0.00    +0.000 A 
ATOM      9  C   UNL     1       3.624   7.507  17.110  0.00  0.00    +0.000 A 
BRANCH   4  13
ATOM     10  C   UNL     1      -0.303   9.978  18.182  0.00  0.00    +0.000 C 
ATOM     11  C   UNL     1       1.020   9.433  18.650  0.00  0.00    +0.000 C 
ATOM     12  O   UNL     1       1.544   9.879  19.670  0.00  0.00    +0.000 OA
ATOM     13  N   UNL     1       1.509   8.416  17.847  0.00  0.00    +0.000 N 
ATOM     14  H   UNL     1       1.028   8.256  16.968  0.00  0.00    +0.000 HD
ENDBRANCH   4  13
ENDBRANCH   1   7
BRANCH   1  15
ATOM     15  N   UNL     1       5.568   3.355  19.015  0.00  0.00    +0.000 N 
ATOM     16  H   UNL     1       5.638   3.193  20.026  0.00  0.00    +0.000 HD
BRANCH  15  17
ATOM     17  C   UNL     1       4.209   3.229  18.552  0.00  0.00    +0.000 A 
ATOM     18  C   UNL     1       3.942   3.489  17.205  0.00  0.00    +0.000 A 
ATOM     19  C   UNL     1       2.626   3.555  16.762  0.00  0.00    +0.000 A 
ATOM     20  C   UNL     1       1.587   3.442  17.683  0.00  0.00    +0.000 A 
ATOM     21  C   UNL     1       1.860   3.216  19.044  0.00  0.00    +0.000 A 
ATOM     22  C   UNL     1       0.843   3.230  20.005  0.00  0.00    +0.000 A 
ATOM     23  C   UNL     1       1.147   2.989  21.339  0.00  0.00    +0.000 A 
ATOM     24  C   UNL     1       2.455   2.682  21.659  0.00  0.00    +0.000 A 
ATOM     25  N   UNL     1       3.470   2.694  20.768  0.00  0.00    +0.000 NA
ATOM     26  C   UNL     1       3.183   3.020  19.487  0.00  0.00    +0.000 A 
ENDBRANCH  15  17
ENDBRANCH   1  15
TORSDOF 4
ENDMDL
MODEL 4
REMARK VINA RESULT:      -7.9      2.286      6.689
REMARK  Name = 
REMARK  5 active torsions:
REMARK  status: ('A' for Active; 'I' for Inactive)
REMARK    1  A    between atoms: C_1  and  C_2
REMARK    2  A    between atoms: N_4  and  C_5
REMARK    3  A    between atoms: C_8  and  S_9
REMARK    4  A    between atoms: S_9  and  N_12
REMARK    5  A    between atoms: N_12  and  C_13
REMARK                            x       y       z     vdW  Elec       q    Type
REMARK                         _______ _______ _______ _____ _____    ______ ____
ROOT
ATOM      1  S   UNL     1       1.971   4.880  20.613  0.00  0.00    +0.000 S 
ATOM      2  O   UNL     1       0.600   4.914  20.154  0.00  0.00    +0.000 OA
ATOM      3  O   UNL     1       2.380   3.984  21.671  0.00  0.00    +0.000 OA
ENDROOT
BRANCH   1   7
ATOM      4  C   UNL     1       4.639   3.952  16.995  0.00  0.00    +0.000 A 
ATOM      5  C   UNL     1       5.183   4.430  18.193  0.00  0.00    +0.000 A 
ATOM      6  C   UNL     1       4.369   4.708  19.291  0.00  0.00    +0.000 A 
ATOM      7  C   UNL     1       2.989   4.530  19.191  0.00  0.00    +0.000 A 
ATOM      8  C   UNL     1       2.425   4.012  18.025  0.00  0.00    +0.000 A 
ATOM      9  C   UNL     1       3.252   3.738  16.925  0.00  0.00    +0.000 A 
BRANCH   4  13
ATOM     10  C   UNL     1       6.493   4.005  13.709  0.00  0.00    +0.000 C 
ATOM     11  C   UNL     1       5.831   4.627  14.909  0.00  0.00    +0.000 C 
ATOM     12  O   UNL     1       5.686   5.848  14.969  0.00  0.00    +0.000 OA
ATOM     13  N   UNL     1       5.416   3.699  15.849  0.00  0.00    +0.000 N 
ATOM     14  H   UNL     1       5.730   2.743  15.718  0.00  0.00    +0.000 HD
ENDBRANCH   4  13
ENDBRANCH   1   7
BRANCH   1  15
ATOM     15  N   UNL     1       2.391   6.501  20.992  0.00  0.00    +0.000 N 
ATOM     16  H   UNL     1       3.417   6.518  21.023  0.00  0.00    +0.000 HD
BRANCH  15  17
ATOM     17  C   UNL     1       1.873   7.487  20.078  0.00  0.00    +0.000 A 
ATOM     18  C   UNL     1       2.411   7.542  18.789  0.00  0.00    +0.000 A 
ATOM     19  C   UNL     1       2.067   8.590  17.942  0.00  0.00    +0.000 A 
ATOM     20  C   UNL     1       1.254   9.616  18.416  0.00  0.00    +0.000 A 
ATOM     21  C   UNL     1       0.742   9.574  19.725  0.00  0.00    +0.000 A 
ATOM     22  C   UNL     1       0.033  10.652  20.267  0.00  0.00    +0.000 A 
ATOM     23  C   UNL     1      -0.471  10.572  21.560  0.00  0.00    +0.000 A 
ATOM     24  C   UNL     1      -0.297   9.387  22.248  0.00  0.00    +0.000 A 
ATOM     25  N   UNL     1       0.411   8.338  21.775  0.00  0.00    +0.000 NA
ATOM     26  C   UNL     1       0.977   8.458  20.552  0.00  0.00    +0.000 A 
ENDBRANCH  15  17
ENDBRANCH   1  15
TORSDOF 4
ENDMDL
MODEL 5
REMARK VINA RESULT:      -7.8      0.556      1.119
REMARK  Name = 
REMARK  5 active torsions:
REMARK  status: ('A' for Active; 'I' for Inactive)
REMARK    1  A    between atoms: C_1  and  C_2
REMARK    2  A    between atoms: N_4  and  C_5
REMARK    3  A    between atoms: C_8  and  S_9
REMARK    4  A    between atoms: S_9  and  N_12
REMARK    5  A    between atoms: N_12  and  C_13
REMARK                            x       y       z     vdW  Elec       q    Type
REMARK                         _______ _______ _______ _____ _____    ______ ____
ROOT
ATOM      1  S   UNL     1       2.764   2.931  18.543  0.00  0.00    +0.000 S 
ATOM      2  O   UNL     1       2.493   2.080  19.679  0.00  0.00    +0.000 OA
ATOM      3  O   UNL     1       2.098   2.717  17.277  0.00  0.00    +0.000 OA
ENDROOT
BRANCH   1   7
ATOM      4  C   UNL     1       1.925   7.233  19.905  0.00  0.00    +0.000 A 
ATOM      5  C   UNL     1       2.021   6.186  20.830  0.00  0.00    +0.000 A 
ATOM      6  C   UNL     1       2.280   4.881  20.411  0.00  0.00    +0.000 A 
ATOM      7  C   UNL     1       2.422   4.606  19.051  0.00  0.00    +0.000 A 
ATOM      8  C   UNL     1       2.376   5.637  18.112  0.00  0.00    +0.000 A 
ATOM      9  C   UNL     1       2.113   6.946  18.542  0.00  0.00    +0.000 A 
BRANCH   4  13
ATOM     10  C   UNL     1       0.399  10.483  21.065  0.00  0.00    +0.000 C 
ATOM     11  C   UNL     1       0.517   8.984  20.990  0.00  0.00    +0.000 C 
ATOM     12  O   UNL     1      -0.338   8.272  21.515  0.00  0.00    +0.000 OA
ATOM     13  N   UNL     1       1.624   8.556  20.277  0.00  0.00    +0.000 N 
ATOM     14  H   UNL     1       2.306   9.263  20.024  0.00  0.00    +0.000 HD
ENDBRANCH   4  13
ENDBRANCH   1   7
BRANCH   1  15
ATOM     15  N   UNL     1       4.469   2.935  18.341  0.00  0.00    +0.000 N 
ATOM     16  H   UNL     1       4.705   1.999  17.989  0.00  0.00    +0.000 HD
BRANCH  15  17
ATOM     17  C   UNL     1       4.970   3.969  17.472  0.00  0.00    +0.000 A 
ATOM     18  C   UNL     1       4.620   3.925  16.119  0.00  0.00    +0.000 A 
ATOM     19  C   UNL     1       5.226   4.795  15.221  0.00  0.00    +0.000 A 
ATOM     20  C   UNL     1       6.234   5.646  15.665  0.00  0.00    +0.000 A 
ATOM     21  C   UNL     1       6.608   5.664  17.021  0.00  0.00    +0.000 A 
ATOM     22  C   UNL     1       7.703   6.413  17.466  0.00  0.00    +0.000 A 
ATOM     23  C   UNL     1       8.036   6.418  18.816  0.00  0.00    +0.000 A 
ATOM     24  C   UNL     1       7.222   5.718  19.685  0.00  0.00    +0.000 A 
ATOM     25  N   UNL     1       6.179   4.955  19.291  0.00  0.00    +0.000 NA
ATOM     26  C   UNL     1       5.917   4.880  17.965  0.00  0.00    +0.000 A 
ENDBRANCH  15  17
ENDBRANCH   1  15
TORSDOF 4
ENDMDL
MODEL 6
REMARK VINA RESULT:      -7.7      3.507      6.999
REMARK  Name = 
REMARK  5 active torsions:
REMARK  status: ('A' for Active; 'I' for Inactive)
REMARK    1  A    between atoms: C_1  and  C_2
REMARK    2  A    between atoms: N_4  and  C_5
REMARK    3  A    between atoms: C_8  and  S_9
REMARK    4  A    between atoms: S_9  and  N_12
REMARK    5  A    between atoms: N_12  and  C_13
REMARK                            x       y       z     vdW  Elec       q    Type
REMARK                         _______ _______ _______ _____ _____    ______ ____
ROOT
ATOM      1  S   UNL     1       5.725   5.051  19.224  0.00  0.00    +0.000 S 
ATOM      2  O   UNL     1       6.963   5.364  19.901  0.00  0.00    +0.000 OA
ATOM      3  O   UNL     1       4.526   5.819  19.474  0.00  0.00    +0.000 OA
ENDROOT
BRANCH   1   7
ATOM      4  C   UNL     1       6.589   5.176  14.718  0.00  0.00    +0.000 A 
ATOM      5  C   UNL     1       7.411   4.457  15.593  0.00  0.00    +0.000 A 
ATOM      6  C   UNL     1       7.143   4.419  16.962  0.00  0.00    +0.000 A 
ATOM      7  C   UNL     1       6.054   5.126  17.473  0.00  0.00    +0.000 A 
ATOM      8  C   UNL     1       5.192   5.813  16.618  0.00  0.00    +0.000 A 
ATOM      9  C   UNL     1       5.472   5.848  15.244  0.00  0.00    +0.000 A 
BRANCH   4  13
ATOM     10  C   UNL     1       7.891   5.895  11.251  0.00  0.00    +0.000 C 
ATOM     11  C   UNL     1       8.006   5.744  12.744  0.00  0.00    +0.000 C 
ATOM     12  O   UNL     1       9.052   6.048  13.315  0.00  0.00    +0.000 OA
ATOM     13  N   UNL     1       6.845   5.278  13.338  0.00  0.00    +0.000 N 
ATOM     14  H   UNL     1       6.115   4.944  12.717  0.00  0.00    +0.000 HD
ENDBRANCH   4  13
ENDBRANCH   1   7
BRANCH   1  15
ATOM     15  N   UNL     1       5.442   3.379  19.488  0.00  0.00    +0.000 N 
ATOM     16  H   UNL     1       5.558   3.237  20.498  0.00  0.00    +0.000 HD
BRANCH  15  17
ATOM     17  C   UNL     1       4.162   2.905  19.029  0.00  0.00    +0.000 A 
ATOM     18  C   UNL     1       3.965   2.754  17.654  0.00  0.00    +0.000 A 
ATOM     19  C   UNL     1       2.695   2.475  17.164  0.00  0.00    +0.000 A 
ATOM     20  C   UNL     1       1.616   2.429  18.044  0.00  0.00    +0.000 A 
ATOM     21  C   UNL     1       1.812   2.615  19.424  0.00  0.00    +0.000 A 
ATOM     22  C   UNL     1       0.732   2.703  20.309  0.00  0.00    +0.000 A 
ATOM     23  C   UNL     1       0.963   2.874  21.669  0.00  0.00    +0.000 A 
ATOM     24  C   UNL     1       2.273   2.892  22.105  0.00  0.00    +0.000 A 
ATOM     25  N   UNL     1       3.342   2.846  21.281  0.00  0.00    +0.000 NA
ATOM     26  C   UNL     1       3.110   2.773  19.949  0.00  0.00    +0.000 A 
ENDBRANCH  15  17
ENDBRANCH   1  15
TORSDOF 4
ENDMDL
MODEL 7
REMARK VINA RESULT:      -7.6      3.341      6.298
REMARK  Name = 
REMARK  5 active torsions:
REMARK  status: ('A' for Active; 'I' for Inactive)
REMARK    1  A    between atoms: C_1  and  C_2
REMARK    2  A    between atoms: N_4  and  C_5
REMARK    3  A    between atoms: C_8  and  S_9
REMARK    4  A    between atoms: S_9  and  N_12
REMARK    5  A    between atoms: N_12  and  C_13
REMARK                            x       y       z     vdW  Elec       q    Type
REMARK                         _______ _______ _______ _____ _____    ______ ____
ROOT
ATOM      1  S   UNL     1       5.648   4.614  17.865  0.00  0.00    +0.000 S 
ATOM      2  O   UNL     1       6.231   3.795  16.826  0.00  0.00    +0.000 OA
ATOM      3  O   UNL     1       5.534   4.126  19.221  0.00  0.00    +0.000 OA
ENDROOT
BRANCH   1   7
ATOM      4  C   UNL     1       8.110   8.485  18.007  0.00  0.00    +0.000 A 
ATOM      5  C   UNL     1       8.452   7.380  18.796  0.00  0.00    +0.000 A 
ATOM      6  C   UNL     1       7.703   6.205  18.747  0.00  0.00    +0.000 A 
ATOM      7  C   UNL     1       6.582   6.132  17.919  0.00  0.00    +0.000 A 
ATOM      8  C   UNL     1       6.246   7.202  17.089  0.00  0.00    +0.000 A 
ATOM      9  C   UNL     1       7.004   8.381  17.147  0.00  0.00    +0.000 A 
BRANCH   4  13
ATOM     10  C   UNL     1       9.750  11.765  18.894  0.00  0.00    +0.000 C 
ATOM     11  C   UNL     1       9.169  10.409  19.192  0.00  0.00    +0.000 C 
ATOM     12  O   UNL     1       9.034  10.039  20.358  0.00  0.00    +0.000 OA
ATOM     13  N   UNL     1       8.811   9.705  18.055  0.00  0.00    +0.000 N 
ATOM     14  H   UNL     1       9.112  10.088  17.165  0.00  0.00    +0.000 HD
ENDBRANCH   4  13
ENDBRANCH   1   7
BRANCH   1  15
ATOM     15  N   UNL     1       4.121   5.127  17.272  0.00  0.00    +0.000 N 
ATOM     16  H   UNL     1       3.797   4.370  16.659  0.00  0.00    +0.000 HD
BRANCH  15  17
ATOM     17  C   UNL     1       3.152   5.434  18.293  0.00  0.00    +0.000 A 
ATOM     18  C   UNL     1       3.104   6.740  18.789  0.00  0.00    +0.000 A 
ATOM     19  C   UNL     1       2.312   7.031  19.893  0.00  0.00    +0.000 A 
ATOM     20  C   UNL     1       1.638   6.000  20.543  0.00  0.00    +0.000 A 
ATOM     21  C   UNL     1       1.716   4.681  20.062  0.00  0.00    +0.000 A 
ATOM     22  C   UNL     1       1.157   3.611  20.770  0.00  0.00    +0.000 A 
ATOM     23  C   UNL     1       1.240   2.322  20.258  0.00  0.00    +0.000 A 
ATOM     24  C   UNL     1       1.832   2.155  19.021  0.00  0.00    +0.000 A 
ATOM     25  N   UNL     1       2.414   3.154  18.324  0.00  0.00    +0.000 NA
ATOM     26  C   UNL     1       2.411   4.392  18.871  0.00  0.00    +0.000 A 
ENDBRANCH  15  17
ENDBRANCH   1  15
TORSDOF 4
ENDMDL
MODEL 8
REMARK VINA RESULT:      -7.6      3.454      6.318
REMARK  Name = 
REMARK  5 active torsions:
REMARK  status: ('A' for Active; 'I' for Inactive)
REMARK    1  A    between atoms: C_1  and  C_2
REMARK    2  A    between atoms: N_4  and  C_5
REMARK    3  A    between atoms: C_8  and  S_9
REMARK    4  A    between atoms: S_9  and  N_12
REMARK    5  A    between atoms: N_12  and  C_13
REMARK                            x       y       z     vdW  Elec       q    Type
REMARK                         _______ _______ _______ _____ _____    ______ ____
ROOT
ATOM      1  S   UNL     1       5.809   4.771  17.839  0.00  0.00    +0.000 S 
ATOM      2  O   UNL     1       6.407   3.955  16.806  0.00  0.00    +0.000 OA
ATOM      3  O   UNL     1       5.661   4.275  19.189  0.00  0.00    +0.000 OA
ENDROOT
BRANCH   1   7
ATOM      4  C   UNL     1       8.180   8.695  18.057  0.00  0.00    +0.000 A 
ATOM      5  C   UNL     1       7.051   8.576  17.239  0.00  0.00    +0.000 A 
ATOM      6  C   UNL     1       6.331   7.383  17.179  0.00  0.00    +0.000 A 
ATOM      7  C   UNL     1       6.753   6.281  17.924  0.00  0.00    +0.000 A 
ATOM      8  C   UNL     1       7.849   6.386  18.781  0.00  0.00    +0.000 A 
ATOM      9  C   UNL     1       8.568   7.590  18.834  0.00  0.00    +0.000 A 
BRANCH   4  13
ATOM     10  C   UNL     1       9.985  11.884  18.958  0.00  0.00    +0.000 C 
ATOM     11  C   UNL     1       9.291  10.582  19.255  0.00  0.00    +0.000 C 
ATOM     12  O   UNL     1       9.050  10.264  20.419  0.00  0.00    +0.000 OA
ATOM     13  N   UNL     1       8.961   9.864  18.118  0.00  0.00    +0.000 N 
ATOM     14  H   UNL     1       9.348  10.194  17.240  0.00  0.00    +0.000 HD
ENDBRANCH   4  13
ENDBRANCH   1   7
BRANCH   1  15
ATOM     15  N   UNL     1       4.299   5.301  17.217  0.00  0.00    +0.000 N 
ATOM     16  H   UNL     1       4.043   4.615  16.497  0.00  0.00    +0.000 HD
BRANCH  15  17
ATOM     17  C   UNL     1       3.259   5.446  18.204  0.00  0.00    +0.000 A 
ATOM     18  C   UNL     1       3.175   6.652  18.905  0.00  0.00    +0.000 A 
ATOM     19  C   UNL     1       2.306   6.764  19.984  0.00  0.00    +0.000 A 
ATOM     20  C   UNL     1       1.588   5.647  20.405  0.00  0.00    +0.000 A 
ATOM     21  C   UNL     1       1.701   4.425  19.718  0.00  0.00    +0.000 A 
ATOM     22  C   UNL     1       1.095   3.259  20.197  0.00  0.00    +0.000 A 
ATOM     23  C   UNL     1       1.216   2.071  19.485  0.00  0.00    +0.000 A 
ATOM     24  C   UNL     1       1.894   2.105  18.283  0.00  0.00    +0.000 A 
ATOM     25  N   UNL     1       2.523   3.200  17.804  0.00  0.00    +0.000 NA
ATOM     26  C   UNL     1       2.480   4.330  18.548  0.00  0.00    +0.000 A 
ENDBRANCH  15  17
ENDBRANCH   1  15
TORSDOF 4
ENDMDL
MODEL 9
REMARK VINA RESULT:      -7.6      1.021      1.021
REMARK  Name = 
REMARK  5 active torsions:
REMARK  status: ('A' for Active; 'I' for Inactive)
REMARK    1  A    between atoms: C_1  and  C_2
REMARK    2  A    between atoms: N_4  and  C_5
REMARK    3  A    between atoms: C_8  and  S_9
REMARK    4  A    between atoms: S_9  and  N_12
REMARK    5  A    between atoms: N_12  and  C_13
REMARK                            x       y       z     vdW  Elec       q    Type
REMARK                         _______ _______ _______ _____ _____    ______ ____
ROOT
ATOM      1  S   UNL     1       2.827   2.896  18.309  0.00  0.00    +0.000 S 
ATOM      2  O   UNL     1       2.523   1.995  19.399  0.00  0.00    +0.000 OA
ATOM      3  O   UNL     1       2.193   2.743  17.019  0.00  0.00    +0.000 OA
ENDROOT
BRANCH   1   7
ATOM      4  C   UNL     1       1.894   7.159  19.731  0.00  0.00    +0.000 A 
ATOM      5  C   UNL     1       2.197   6.893  18.390  0.00  0.00    +0.000 A 
ATOM      6  C   UNL     1       2.476   5.595  17.962  0.00  0.00    +0.000 A 
ATOM      7  C   UNL     1       2.478   4.547  18.884  0.00  0.00    +0.000 A 
ATOM      8  C   UNL     1       2.136   4.778  20.217  0.00  0.00    +0.000 A 
ATOM      9  C   UNL     1       1.859   6.087  20.638  0.00  0.00    +0.000 A 
BRANCH   4  13
ATOM     10  C   UNL     1       1.106  10.810  20.264  0.00  0.00    +0.000 C 
ATOM     11  C   UNL     1       1.057   9.501  19.524  0.00  0.00    +0.000 C 
ATOM     12  O   UNL     1       0.546   9.444  18.406  0.00  0.00    +0.000 OA
ATOM     13  N   UNL     1       1.648   8.457  20.216  0.00  0.00    +0.000 N 
ATOM     14  H   UNL     1       1.901   8.634  21.182  0.00  0.00    +0.000 HD
ENDBRANCH   4  13
ENDBRANCH   1   7
BRANCH   1  15
ATOM     15  N   UNL     1       4.536   2.900  18.152  0.00  0.00    +0.000 N 
ATOM     16  H   UNL     1       4.779   1.974  17.781  0.00  0.00    +0.000 HD
BRANCH  15  17
ATOM     17  C   UNL     1       5.062   3.956  17.325  0.00  0.00    +0.000 A 
ATOM     18  C   UNL     1       4.784   3.925  15.955  0.00  0.00    +0.000 A 
ATOM     19  C   UNL     1       5.419   4.820  15.102  0.00  0.00    +0.000 A 
ATOM     20  C   UNL     1       6.386   5.684  15.611  0.00  0.00    +0.000 A 
ATOM     21  C   UNL     1       6.688   5.689  16.985  0.00  0.00    +0.000 A 
ATOM     22  C   UNL     1       7.743   6.451  17.498  0.00  0.00    +0.000 A 
ATOM     23  C   UNL     1       8.004   6.442  18.863  0.00  0.00    +0.000 A 
ATOM     24  C   UNL     1       7.160   5.714  19.678  0.00  0.00    +0.000 A 
ATOM     25  N   UNL     1       6.154   4.938  19.219  0.00  0.00    +0.000 NA
ATOM     26  C   UNL     1       5.963   4.878  17.880  0.00  0.00    +0.000 A 
ENDBRANCH  15  17
ENDBRANCH   1  15
TORSDOF 4
ENDMDL
