MODEL 1
REMARK VINA RESULT:      -7.9      0.000      0.000
REMARK  Name = 
REMARK  2 active torsions:
REMARK  status: ('A' for Active; 'I' for Inactive)
REMARK    1  A    between atoms: C_1  and  N_2
REMARK    2  A    between atoms: N_5  and  C_6
REMARK                            x       y       z     vdW  Elec       q    Type
REMARK                         _______ _______ _______ _____ _____    ______ ____
ROOT
ATOM      1  C   UNL     1       1.933   7.527  19.323  0.00  0.00    +0.000 A 
ATOM      2  C   UNL     1       2.629   7.906  18.077  0.00  0.00    +0.000 A 
ATOM      3  C   UNL     1       2.746   9.212  17.528  0.00  0.00    +0.000 A 
ATOM      4  C   UNL     1       2.119  10.238  18.172  0.00  0.00    +0.000 A 
ATOM      5  C   UNL     1       1.283   9.776  19.214  0.00  0.00    +0.000 A 
ATOM      6  C   UNL     1       1.312   8.642  20.063  0.00  0.00    +0.000 A 
ATOM      7  C   UNL     1       0.558   8.974  21.613  0.00  0.00    +0.000 C 
ATOM      8  C   UNL     1       0.091  10.441  22.717  0.00  0.00    +0.000 C 
ATOM      9  C   UNL     1      -1.051  11.676  22.757  0.00  0.00    +0.000 A 
ATOM     10  C   UNL     1      -2.369  11.531  23.182  0.00  0.00    +0.000 A 
ATOM     11  C   UNL     1      -3.390  12.324  22.614  0.00  0.00    +0.000 A 
ATOM     12  C   UNL     1      -3.160  13.220  21.548  0.00  0.00    +0.000 A 
ATOM     13  C   UNL     1      -1.815  13.508  21.312  0.00  0.00    +0.000 A 
ATOM     14  C   UNL     1      -0.840  12.973  22.200  0.00  0.00    +0.000 A 
ATOM     15  N   UNL     1      -1.362  13.956  19.934  0.00  0.00    +0.000 N 
ATOM     16  C   UNL     1      -0.229  13.185  19.348  0.00  0.00    +0.000 A 
ATOM     17  N   UNL     1       0.669  13.463  18.376  0.00  0.00    +0.000 NA
ATOM     18  C   UNL     1       1.826  12.771  18.518  0.00  0.00    +0.000 A 
ATOM     19  N   UNL     1       2.269  12.598  19.738  0.00  0.00    +0.000 NA
ATOM     20  C   UNL     1       1.306  12.013  20.458  0.00  0.00    +0.000 A 
ATOM     21  C   UNL     1       0.008  12.029  19.987  0.00  0.00    +0.000 A 
ATOM     22 CL   UNL     1      -1.342  10.889  19.996  0.00  0.00    +0.000 Cl
ATOM     23  N   UNL     1       2.088  11.598  17.670  0.00  0.00    +0.000 N 
ATOM     24  H   UNL     1      -2.143  13.773  19.297  0.00  0.00    +0.000 HD
ATOM     25  H   UNL     1       1.460  11.707  16.882  0.00  0.00    +0.000 HD
ENDROOT
BRANCH   1  30
ATOM     26  C   UNL     1       3.000   1.761  18.731  0.00  0.00    +0.000 C 
ATOM     27  N   UNL     1       3.004   3.231  18.704  0.00  0.00    +0.000 NA
ATOM     28  C   UNL     1       3.159   3.828  20.057  0.00  0.00    +0.000 C 
ATOM     29  C   UNL     1       3.120   5.420  20.081  0.00  0.00    +0.000 C 
ATOM     30  N   UNL     1       1.827   6.035  19.501  0.00  0.00    +0.000 N 
ATOM     31  C   UNL     1       1.701   5.350  18.111  0.00  0.00    +0.000 C 
ATOM     32  C   UNL     1       1.749   3.778  18.136  0.00  0.00    +0.000 C 
ENDBRANCH   1  30
TORSDOF 1
ENDMDL
MODEL 2
REMARK VINA RESULT:      -7.6      9.065     11.869
REMARK  Name = 
REMARK  2 active torsions:
REMARK  status: ('A' for Active; 'I' for Inactive)
REMARK    1  A    between atoms: C_1  and  N_2
REMARK    2  A    between atoms: N_5  and  C_6
REMARK                            x       y       z     vdW  Elec       q    Type
REMARK                         _______ _______ _______ _____ _____    ______ ____
ROOT
ATOM      1  C   UNL     1       8.466  13.304  23.348  0.00  0.00    +0.000 A 
ATOM      2  C   UNL     1       8.171  11.876  23.115  0.00  0.00    +0.000 A 
ATOM      3  C   UNL     1       8.604  11.084  22.017  0.00  0.00    +0.000 A 
ATOM      4  C   UNL     1       9.328  11.689  21.033  0.00  0.00    +0.000 A 
ATOM      5  C   UNL     1       9.371  13.093  21.197  0.00  0.00    +0.000 A 
ATOM      6  C   UNL     1       9.308  13.949  22.323  0.00  0.00    +0.000 A 
ATOM      7  C   UNL     1      10.186  15.445  22.049  0.00  0.00    +0.000 C 
ATOM      8  C   UNL     1      11.547  16.148  20.934  0.00  0.00    +0.000 C 
ATOM      9  C   UNL     1      11.741  16.632  19.334  0.00  0.00    +0.000 A 
ATOM     10  C   UNL     1      11.324  17.854  18.813  0.00  0.00    +0.000 A 
ATOM     11  C   UNL     1      10.916  17.949  17.465  0.00  0.00    +0.000 A 
ATOM     12  C   UNL     1      10.818  16.828  16.613  0.00  0.00    +0.000 A 
ATOM     13  C   UNL     1      11.457  15.681  17.088  0.00  0.00    +0.000 A 
ATOM     14  C   UNL     1      12.206  15.772  18.294  0.00  0.00    +0.000 A 
ATOM     15  N   UNL     1      10.999  14.309  16.629  0.00  0.00    +0.000 N 
ATOM     16  C   UNL     1      10.697  13.335  17.717  0.00  0.00    +0.000 A 
ATOM     17  N   UNL     1      10.625  11.985  17.751  0.00  0.00    +0.000 NA
ATOM     18  C   UNL     1      10.869  11.478  18.984  0.00  0.00    +0.000 A 
ATOM     19  N   UNL     1      11.799  12.065  19.694  0.00  0.00    +0.000 NA
ATOM     20  C   UNL     1      11.497  13.363  19.796  0.00  0.00    +0.000 A 
ATOM     21  C   UNL     1      10.578  13.912  18.922  0.00  0.00    +0.000 A 
ATOM     22 CL   UNL     1       9.298  15.124  19.049  0.00  0.00    +0.000 Cl
ATOM     23  N   UNL     1       9.752  11.016  19.821  0.00  0.00    +0.000 N 
ATOM     24  H   UNL     1      10.099  14.444  16.160  0.00  0.00    +0.000 HD
ATOM     25  H   UNL     1       8.990  10.868  19.171  0.00  0.00    +0.000 HD
ENDROOT
BRANCH   1  30
ATOM     26  C   UNL     1       5.500  13.684  28.427  0.00  0.00    +0.000 C 
ATOM     27  N   UNL     1       6.304  13.289  27.261  0.00  0.00    +0.000 NA
ATOM     28  C   UNL     1       7.547  14.095  27.123  0.00  0.00    +0.000 C 
ATOM     29  C   UNL     1       8.426  13.733  25.846  0.00  0.00    +0.000 C 
ATOM     30  N   UNL     1       7.684  13.881  24.498  0.00  0.00    +0.000 N 
ATOM     31  C   UNL     1       6.385  13.053  24.716  0.00  0.00    +0.000 C 
ATOM     32  C   UNL     1       5.553  13.442  25.992  0.00  0.00    +0.000 C 
ENDBRANCH   1  30
TORSDOF 1
ENDMDL
MODEL 3
REMARK VINA RESULT:      -7.6      8.837     11.985
REMARK  Name = 
REMARK  2 active torsions:
REMARK  status: ('A' for Active; 'I' for Inactive)
REMARK    1  A    between atoms: C_1  and  N_2
REMARK    2  A    between atoms: N_5  and  C_6
REMARK                            x       y       z     vdW  Elec       q    Type
REMARK                         _______ _______ _______ _____ _____    ______ ____
ROOT
ATOM      1  C   UNL     1       8.310  13.867  23.773  0.00  0.00    +0.000 A 
ATOM      2  C   UNL     1       7.886  12.453  23.711  0.00  0.00    +0.000 A 
ATOM      3  C   UNL     1       8.209  11.509  22.699  0.00  0.00    +0.000 A 
ATOM      4  C   UNL     1       8.946  11.935  21.634  0.00  0.00    +0.000 A 
ATOM      5  C   UNL     1       9.117  13.339  21.637  0.00  0.00    +0.000 A 
ATOM      6  C   UNL     1       9.167  14.317  22.660  0.00  0.00    +0.000 A 
ATOM      7  C   UNL     1      10.160  15.688  22.196  0.00  0.00    +0.000 C 
ATOM      8  C   UNL     1      11.535  16.139  20.973  0.00  0.00    +0.000 C 
ATOM      9  C   UNL     1      11.714  16.424  19.324  0.00  0.00    +0.000 A 
ATOM     10  C   UNL     1      11.385  17.614  18.680  0.00  0.00    +0.000 A 
ATOM     11  C   UNL     1      10.938  17.595  17.340  0.00  0.00    +0.000 A 
ATOM     12  C   UNL     1      10.714  16.400  16.624  0.00  0.00    +0.000 A 
ATOM     13  C   UNL     1      11.268  15.260  17.209  0.00  0.00    +0.000 A 
ATOM     14  C   UNL     1      12.066  15.416  18.377  0.00  0.00    +0.000 A 
ATOM     15  N   UNL     1      10.678  13.892  16.920  0.00  0.00    +0.000 N 
ATOM     16  C   UNL     1      10.333  13.075  18.119  0.00  0.00    +0.000 A 
ATOM     17  N   UNL     1      10.146  11.749  18.307  0.00  0.00    +0.000 NA
ATOM     18  C   UNL     1      10.390  11.362  19.583  0.00  0.00    +0.000 A 
ATOM     19  N   UNL     1      11.392  11.938  20.198  0.00  0.00    +0.000 NA
ATOM     20  C   UNL     1      11.206  13.261  20.159  0.00  0.00    +0.000 A 
ATOM     21  C   UNL     1      10.307  13.790  19.253  0.00  0.00    +0.000 A 
ATOM     22 CL   UNL     1       9.141  15.118  19.275  0.00  0.00    +0.000 Cl
ATOM     23  N   UNL     1       9.268  11.097  20.496  0.00  0.00    +0.000 N 
ATOM     24  H   UNL     1       9.777  14.054  16.462  0.00  0.00    +0.000 HD
ATOM     25  H   UNL     1       8.473  10.947  19.887  0.00  0.00    +0.000 HD
ENDROOT
BRANCH   1  30
ATOM     26  C   UNL     1       4.045  16.123  27.158  0.00  0.00    +0.000 C 
ATOM     27  N   UNL     1       4.866  15.393  26.181  0.00  0.00    +0.000 NA
ATOM     28  C   UNL     1       5.859  14.492  26.826  0.00  0.00    +0.000 C 
ATOM     29  C   UNL     1       6.803  13.717  25.805  0.00  0.00    +0.000 C 
ATOM     30  N   UNL     1       7.622  14.635  24.870  0.00  0.00    +0.000 N 
ATOM     31  C   UNL     1       6.542  15.570  24.256  0.00  0.00    +0.000 C 
ATOM     32  C   UNL     1       5.629  16.311  25.302  0.00  0.00    +0.000 C 
ENDBRANCH   1  30
TORSDOF 1
ENDMDL
MODEL 4
REMARK VINA RESULT:      -7.5      2.289      4.392
REMARK  Name = 
REMARK  2 active torsions:
REMARK  status: ('A' for Active; 'I' for Inactive)
REMARK    1  A    between atoms: C_1  and  N_2
REMARK    2  A    between atoms: N_5  and  C_6
REMARK                            x       y       z     vdW  Elec       q    Type
REMARK                         _______ _______ _______ _____ _____    ______ ____
ROOT
ATOM      1  C   UNL     1       1.061   9.056  20.604  0.00  0.00    +0.000 A 
ATOM      2  C   UNL     1       0.409   8.491  21.803  0.00  0.00    +0.000 A 
ATOM      3  C   UNL     1      -0.490   9.157  22.680  0.00  0.00    +0.000 A 
ATOM      4  C   UNL     1      -0.761  10.473  22.444  0.00  0.00    +0.000 A 
ATOM      5  C   UNL     1       0.070  11.011  21.434  0.00  0.00    +0.000 A 
ATOM      6  C   UNL     1       0.718  10.458  20.302  0.00  0.00    +0.000 A 
ATOM      7  C   UNL     1       0.915  11.647  19.026  0.00  0.00    +0.000 C 
ATOM      8  C   UNL     1       0.191  13.303  18.457  0.00  0.00    +0.000 C 
ATOM      9  C   UNL     1       0.222  14.920  18.923  0.00  0.00    +0.000 A 
ATOM     10  C   UNL     1       1.260  15.808  18.653  0.00  0.00    +0.000 A 
ATOM     11  C   UNL     1       1.550  16.856  19.554  0.00  0.00    +0.000 A 
ATOM     12  C   UNL     1       0.887  17.008  20.791  0.00  0.00    +0.000 A 
ATOM     13  C   UNL     1      -0.283  16.258  20.918  0.00  0.00    +0.000 A 
ATOM     14  C   UNL     1      -0.739  15.515  19.793  0.00  0.00    +0.000 A 
ATOM     15  N   UNL     1      -0.788  15.860  22.293  0.00  0.00    +0.000 N 
ATOM     16  C   UNL     1      -1.068  14.407  22.479  0.00  0.00    +0.000 A 
ATOM     17  N   UNL     1      -1.829  13.722  23.362  0.00  0.00    +0.000 NA
ATOM     18  C   UNL     1      -2.248  12.528  22.876  0.00  0.00    +0.000 A 
ATOM     19  N   UNL     1      -2.577  12.484  21.610  0.00  0.00    +0.000 NA
ATOM     20  C   UNL     1      -1.542  12.923  20.888  0.00  0.00    +0.000 A 
ATOM     21  C   UNL     1      -0.541  13.642  21.512  0.00  0.00    +0.000 A 
ATOM     22 CL   UNL     1       1.218  13.734  21.358  0.00  0.00    +0.000 Cl
ATOM     23  N   UNL     1      -1.589  11.288  23.312  0.00  0.00    +0.000 N 
ATOM     24  H   UNL     1      -0.025  16.053  22.950  0.00  0.00    +0.000 HD
ATOM     25  H   UNL     1      -1.119  11.537  24.174  0.00  0.00    +0.000 HD
ENDROOT
BRANCH   1  30
ATOM     26  C   UNL     1       3.546   4.651  17.578  0.00  0.00    +0.000 C 
ATOM     27  N   UNL     1       2.657   5.655  18.181  0.00  0.00    +0.000 NA
ATOM     28  C   UNL     1       3.028   7.046  17.810  0.00  0.00    +0.000 C 
ATOM     29  C   UNL     1       2.121   8.170  18.480  0.00  0.00    +0.000 C 
ATOM     30  N   UNL     1       2.108   8.143  20.024  0.00  0.00    +0.000 N 
ATOM     31  C   UNL     1       1.751   6.664  20.350  0.00  0.00    +0.000 C 
ATOM     32  C   UNL     1       2.671   5.589  19.662  0.00  0.00    +0.000 C 
ENDBRANCH   1  30
TORSDOF 1
ENDMDL
MODEL 5
REMARK VINA RESULT:      -7.5      1.226      1.440
REMARK  Name = 
REMARK  2 active torsions:
REMARK  status: ('A' for Active; 'I' for Inactive)
REMARK    1  A    between atoms: C_1  and  N_2
REMARK    2  A    between atoms: N_5  and  C_6
REMARK                            x       y       z     vdW  Elec       q    Type
REMARK                         _______ _______ _______ _____ _____    ______ ____
ROOT
ATOM      1  C   UNL     1       1.523   8.789  19.301  0.00  0.00    +0.000 A 
ATOM      2  C   UNL     1       2.271   9.337  18.151  0.00  0.00    +0.000 A 
ATOM      3  C   UNL     1       2.347  10.700  17.754  0.00  0.00    +0.000 A 
ATOM      4  C   UNL     1       1.626  11.617  18.461  0.00  0.00    +0.000 A 
ATOM      5  C   UNL     1       0.755  11.001  19.390  0.00  0.00    +0.000 A 
ATOM      6  C   UNL     1       0.796   9.783  20.112  0.00  0.00    +0.000 A 
ATOM      7  C   UNL     1      -0.068   9.905  21.635  0.00  0.00    +0.000 C 
ATOM      8  C   UNL     1      -0.684  11.216  22.856  0.00  0.00    +0.000 C 
ATOM      9  C   UNL     1      -1.894  12.382  22.951  0.00  0.00    +0.000 A 
ATOM     10  C   UNL     1      -3.225  12.125  23.270  0.00  0.00    +0.000 A 
ATOM     11  C   UNL     1      -4.252  12.926  22.723  0.00  0.00    +0.000 A 
ATOM     12  C   UNL     1      -4.009  13.943  21.777  0.00  0.00    +0.000 A 
ATOM     13  C   UNL     1      -2.670  14.322  21.663  0.00  0.00    +0.000 A 
ATOM     14  C   UNL     1      -1.723  13.741  22.551  0.00  0.00    +0.000 A 
ATOM     15  N   UNL     1      -2.160  14.941  20.374  0.00  0.00    +0.000 N 
ATOM     16  C   UNL     1      -0.951  14.296  19.786  0.00  0.00    +0.000 A 
ATOM     17  N   UNL     1      -0.013  14.723  18.911  0.00  0.00    +0.000 NA
ATOM     18  C   UNL     1       1.170  14.078  19.056  0.00  0.00    +0.000 A 
ATOM     19  N   UNL     1       1.547  13.794  20.277  0.00  0.00    +0.000 NA
ATOM     20  C   UNL     1       0.577  13.087  20.864  0.00  0.00    +0.000 A 
ATOM     21  C   UNL     1      -0.690  13.090  20.312  0.00  0.00    +0.000 A 
ATOM     22 CL   UNL     1      -1.971  11.890  20.109  0.00  0.00    +0.000 Cl
ATOM     23  N   UNL     1       1.549  13.020  18.107  0.00  0.00    +0.000 N 
ATOM     24  H   UNL     1      -2.889  14.791  19.671  0.00  0.00    +0.000 HD
ATOM     25  H   UNL     1       0.965  13.184  17.295  0.00  0.00    +0.000 HD
ENDROOT
BRANCH   1  30
ATOM     26  C   UNL     1       3.270   3.187  19.859  0.00  0.00    +0.000 C 
ATOM     27  N   UNL     1       3.124   4.650  19.847  0.00  0.00    +0.000 NA
ATOM     28  C   UNL     1       2.021   5.123  20.727  0.00  0.00    +0.000 C 
ATOM     29  C   UNL     1       1.795   6.699  20.708  0.00  0.00    +0.000 C 
ATOM     30  N   UNL     1       1.491   7.284  19.311  0.00  0.00    +0.000 N 
ATOM     31  C   UNL     1       2.650   6.729  18.434  0.00  0.00    +0.000 C 
ATOM     32  C   UNL     1       2.838   5.168  18.487  0.00  0.00    +0.000 C 
ENDBRANCH   1  30
TORSDOF 1
ENDMDL
MODEL 6
REMARK VINA RESULT:      -7.4      9.026     11.676
REMARK  Name = 
REMARK  2 active torsions:
REMARK  status: ('A' for Active; 'I' for Inactive)
REMARK    1  A    between atoms: C_1  and  N_2
REMARK    2  A    between atoms: N_5  and  C_6
REMARK                            x       y       z     vdW  Elec       q    Type
REMARK                         _______ _______ _______ _____ _____    ______ ____
ROOT
ATOM      1  C   UNL     1       8.772  12.072  22.259  0.00  0.00    +0.000 A 
ATOM      2  C   UNL     1       8.745  10.752  21.597  0.00  0.00    +0.000 A 
ATOM      3  C   UNL     1       9.330  10.412  20.348  0.00  0.00    +0.000 A 
ATOM      4  C   UNL     1       9.949  11.398  19.637  0.00  0.00    +0.000 A 
ATOM      5  C   UNL     1       9.735  12.674  20.209  0.00  0.00    +0.000 A 
ATOM      6  C   UNL     1       9.500  13.128  21.529  0.00  0.00    +0.000 A 
ATOM      7  C   UNL     1      10.097  14.761  21.768  0.00  0.00    +0.000 C 
ATOM      8  C   UNL     1      11.326  15.986  21.005  0.00  0.00    +0.000 C 
ATOM      9  C   UNL     1      11.456  16.954  19.635  0.00  0.00    +0.000 A 
ATOM     10  C   UNL     1      10.833  18.188  19.468  0.00  0.00    +0.000 A 
ATOM     11  C   UNL     1      10.435  18.614  18.182  0.00  0.00    +0.000 A 
ATOM     12  C   UNL     1      10.556  17.802  17.035  0.00  0.00    +0.000 A 
ATOM     13  C   UNL     1      11.384  16.690  17.195  0.00  0.00    +0.000 A 
ATOM     14  C   UNL     1      12.085  16.538  18.424  0.00  0.00    +0.000 A 
ATOM     15  N   UNL     1      11.189  15.463  16.323  0.00  0.00    +0.000 N 
ATOM     16  C   UNL     1      11.051  14.170  17.054  0.00  0.00    +0.000 A 
ATOM     17  N   UNL     1      11.223  12.881  16.685  0.00  0.00    +0.000 NA
ATOM     18  C   UNL     1      11.536  12.075  17.729  0.00  0.00    +0.000 A 
ATOM     19  N   UNL     1      12.333  12.568  18.643  0.00  0.00    +0.000 NA
ATOM     20  C   UNL     1      11.799  13.705  19.100  0.00  0.00    +0.000 A 
ATOM     21  C   UNL     1      10.810  14.330  18.364  0.00  0.00    +0.000 A 
ATOM     22 CL   UNL     1       9.330  15.214  18.751  0.00  0.00    +0.000 Cl
ATOM     23  N   UNL     1      10.508  11.202  18.314  0.00  0.00    +0.000 N 
ATOM     24  H   UNL     1      10.287  15.580  15.853  0.00  0.00    +0.000 HD
ATOM     25  H   UNL     1       9.795  11.131  17.598  0.00  0.00    +0.000 HD
ENDROOT
BRANCH   1  30
ATOM     26  C   UNL     1       5.667  14.238  26.776  0.00  0.00    +0.000 C 
ATOM     27  N   UNL     1       6.477  14.009  25.571  0.00  0.00    +0.000 NA
ATOM     28  C   UNL     1       5.739  13.265  24.516  0.00  0.00    +0.000 C 
ATOM     29  C   UNL     1       6.594  12.952  23.211  0.00  0.00    +0.000 C 
ATOM     30  N   UNL     1       7.880  12.137  23.470  0.00  0.00    +0.000 N 
ATOM     31  C   UNL     1       8.588  12.940  24.599  0.00  0.00    +0.000 C 
ATOM     32  C   UNL     1       7.703  13.229  25.867  0.00  0.00    +0.000 C 
ENDBRANCH   1  30
TORSDOF 1
ENDMDL
MODEL 7
REMARK VINA RESULT:      -7.2      9.172     12.209
REMARK  Name = 
REMARK  2 active torsions:
REMARK  status: ('A' for Active; 'I' for Inactive)
REMARK    1  A    between atoms: C_1  and  N_2
REMARK    2  A    between atoms: N_5  and  C_6
REMARK                            x       y       z     vdW  Elec       q    Type
REMARK                         _______ _______ _______ _____ _____    ______ ____
ROOT
ATOM      1  C   UNL     1       8.481  13.188  23.278  0.00  0.00    +0.000 A 
ATOM      2  C   UNL     1       8.234  11.755  23.018  0.00  0.00    +0.000 A 
ATOM      3  C   UNL     1       8.701  10.996  21.912  0.00  0.00    +0.000 A 
ATOM      4  C   UNL     1       9.415  11.640  20.945  0.00  0.00    +0.000 A 
ATOM      5  C   UNL     1       9.413  13.042  21.133  0.00  0.00    +0.000 A 
ATOM      6  C   UNL     1       9.312  13.876  22.272  0.00  0.00    +0.000 A 
ATOM      7  C   UNL     1      10.145  15.403  22.032  0.00  0.00    +0.000 C 
ATOM      8  C   UNL     1      11.494  16.167  20.942  0.00  0.00    +0.000 C 
ATOM      9  C   UNL     1      11.689  16.684  19.353  0.00  0.00    +0.000 A 
ATOM     10  C   UNL     1      11.239  17.901  18.849  0.00  0.00    +0.000 A 
ATOM     11  C   UNL     1      10.841  18.005  17.498  0.00  0.00    +0.000 A 
ATOM     12  C   UNL     1      10.787  16.897  16.627  0.00  0.00    +0.000 A 
ATOM     13  C   UNL     1      11.456  15.762  17.089  0.00  0.00    +0.000 A 
ATOM     14  C   UNL     1      12.191  15.856  18.304  0.00  0.00    +0.000 A 
ATOM     15  N   UNL     1      11.047  14.384  16.603  0.00  0.00    +0.000 N 
ATOM     16  C   UNL     1      10.765  13.383  17.671  0.00  0.00    +0.000 A 
ATOM     17  N   UNL     1      10.734  12.031  17.682  0.00  0.00    +0.000 NA
ATOM     18  C   UNL     1      10.983  11.511  18.909  0.00  0.00    +0.000 A 
ATOM     19  N   UNL     1      11.887  12.115  19.638  0.00  0.00    +0.000 NA
ATOM     20  C   UNL     1      11.543  13.401  19.758  0.00  0.00    +0.000 A 
ATOM     21  C   UNL     1      10.616  13.936  18.884  0.00  0.00    +0.000 A 
ATOM     22 CL   UNL     1       9.297  15.105  19.018  0.00  0.00    +0.000 Cl
ATOM     23  N   UNL     1       9.873  11.001  19.727  0.00  0.00    +0.000 N 
ATOM     24  H   UNL     1      10.147  14.499  16.126  0.00  0.00    +0.000 HD
ATOM     25  H   UNL     1       9.121  10.840  19.067  0.00  0.00    +0.000 HD
ENDROOT
BRANCH   1  30
ATOM     26  C   UNL     1       6.418  16.851  27.409  0.00  0.00    +0.000 C 
ATOM     27  N   UNL     1       7.089  16.201  26.274  0.00  0.00    +0.000 NA
ATOM     28  C   UNL     1       6.131  15.697  25.253  0.00  0.00    +0.000 C 
ATOM     29  C   UNL     1       6.812  14.942  24.029  0.00  0.00    +0.000 C 
ATOM     30  N   UNL     1       7.670  13.721  24.429  0.00  0.00    +0.000 N 
ATOM     31  C   UNL     1       8.621  14.298  25.517  0.00  0.00    +0.000 C 
ATOM     32  C   UNL     1       7.904  15.039  26.704  0.00  0.00    +0.000 C 
ENDBRANCH   1  30
TORSDOF 1
ENDMDL
MODEL 8
REMARK VINA RESULT:      -7.1      1.552      2.478
REMARK  Name = 
REMARK  2 active torsions:
REMARK  status: ('A' for Active; 'I' for Inactive)
REMARK    1  A    between atoms: C_1  and  N_2
REMARK    2  A    between atoms: N_5  and  C_6
REMARK                            x       y       z     vdW  Elec       q    Type
REMARK                         _______ _______ _______ _____ _____    ______ ____
ROOT
ATOM      1  C   UNL     1       1.349   9.919  19.304  0.00  0.00    +0.000 A 
ATOM      2  C   UNL     1       2.102  10.667  18.276  0.00  0.00    +0.000 A 
ATOM      3  C   UNL     1       2.102  12.073  18.073  0.00  0.00    +0.000 A 
ATOM      4  C   UNL     1       1.293  12.837  18.862  0.00  0.00    +0.000 A 
ATOM      5  C   UNL     1       0.430  12.047  19.655  0.00  0.00    +0.000 A 
ATOM      6  C   UNL     1       0.525  10.745  20.207  0.00  0.00    +0.000 A 
ATOM      7  C   UNL     1      -0.405  10.601  21.688  0.00  0.00    +0.000 C 
ATOM      8  C   UNL     1      -1.155  11.690  23.046  0.00  0.00    +0.000 C 
ATOM      9  C   UNL     1      -2.444  12.754  23.240  0.00  0.00    +0.000 A 
ATOM     10  C   UNL     1      -3.766  12.375  23.456  0.00  0.00    +0.000 A 
ATOM     11  C   UNL     1      -4.823  13.179  22.974  0.00  0.00    +0.000 A 
ATOM     12  C   UNL     1      -4.612  14.331  22.188  0.00  0.00    +0.000 A 
ATOM     13  C   UNL     1      -3.298  14.803  22.191  0.00  0.00    +0.000 A 
ATOM     14  C   UNL     1      -2.349  14.164  23.037  0.00  0.00    +0.000 A 
ATOM     15  N   UNL     1      -2.781  15.625  21.024  0.00  0.00    +0.000 N 
ATOM     16  C   UNL     1      -1.509  15.143  20.413  0.00  0.00    +0.000 A 
ATOM     17  N   UNL     1      -0.568  15.745  19.650  0.00  0.00    +0.000 NA
ATOM     18  C   UNL     1       0.650  15.160  19.762  0.00  0.00    +0.000 A 
ATOM     19  N   UNL     1       0.996  14.732  20.950  0.00  0.00    +0.000 NA
ATOM     20  C   UNL     1       0.054  13.892  21.389  0.00  0.00    +0.000 A 
ATOM     21  C   UNL     1      -1.188  13.895  20.782  0.00  0.00    +0.000 A 
ATOM     22 CL   UNL     1      -2.376  12.658  20.357  0.00  0.00    +0.000 Cl
ATOM     23  N   UNL     1       1.135  14.269  18.698  0.00  0.00    +0.000 N 
ATOM     24  H   UNL     1      -3.470  15.530  20.273  0.00  0.00    +0.000 HD
ATOM     25  H   UNL     1       0.574  14.508  17.889  0.00  0.00    +0.000 HD
ENDROOT
BRANCH   1  30
ATOM     26  C   UNL     1       3.474   4.426  19.085  0.00  0.00    +0.000 C 
ATOM     27  N   UNL     1       3.230   5.864  19.274  0.00  0.00    +0.000 NA
ATOM     28  C   UNL     1       2.109   6.136  20.213  0.00  0.00    +0.000 C 
ATOM     29  C   UNL     1       1.778   7.680  20.411  0.00  0.00    +0.000 C 
ATOM     30  N   UNL     1       1.417   8.428  19.108  0.00  0.00    +0.000 N 
ATOM     31  C   UNL     1       2.600   8.079  18.160  0.00  0.00    +0.000 C 
ATOM     32  C   UNL     1       2.894   6.542  17.999  0.00  0.00    +0.000 C 
ENDBRANCH   1  30
TORSDOF 1
ENDMDL
MODEL 9
REMARK VINA RESULT:      -7.0      2.271      4.412
REMARK  Name = 
REMARK  2 active torsions:
REMARK  status: ('A' for Active; 'I' for Inactive)
REMARK    1  A    between atoms: C_1  and  N_2
REMARK    2  A    between atoms: N_5  and  C_6
REMARK                            x       y       z     vdW  Elec       q    Type
REMARK                         _______ _______ _______ _____ _____    ______ ____
ROOT
ATOM      1  C   UNL     1      -0.040  11.285  19.689  0.00  0.00    +0.000 A 
ATOM      2  C   UNL     1       0.444  12.226  18.658  0.00  0.00    +0.000 A 
ATOM      3  C   UNL     1       0.141  13.611  18.559  0.00  0.00    +0.000 A 
ATOM      4  C   UNL     1      -0.723  14.147  19.468  0.00  0.00    +0.000 A 
ATOM      5  C   UNL     1      -1.327  13.154  20.272  0.00  0.00    +0.000 A 
ATOM      6  C   UNL     1      -0.919  11.872  20.716  0.00  0.00    +0.000 A 
ATOM      7  C   UNL     1      -1.651  11.459  22.258  0.00  0.00    +0.000 C 
ATOM      8  C   UNL     1      -2.467  12.294  23.750  0.00  0.00    +0.000 C 
ATOM      9  C   UNL     1      -3.918  13.057  24.131  0.00  0.00    +0.000 A 
ATOM     10  C   UNL     1      -5.109  12.402  24.431  0.00  0.00    +0.000 A 
ATOM     11  C   UNL     1      -6.348  12.995  24.101  0.00  0.00    +0.000 A 
ATOM     12  C   UNL     1      -6.451  14.207  23.386  0.00  0.00    +0.000 A 
ATOM     13  C   UNL     1      -5.265  14.939  23.311  0.00  0.00    +0.000 A 
ATOM     14  C   UNL     1      -4.128  14.465  24.024  0.00  0.00    +0.000 A 
ATOM     15  N   UNL     1      -5.040  15.913  22.168  0.00  0.00    +0.000 N 
ATOM     16  C   UNL     1      -3.764  15.738  21.417  0.00  0.00    +0.000 A 
ATOM     17  N   UNL     1      -3.043  16.561  20.623  0.00  0.00    +0.000 NA
ATOM     18  C   UNL     1      -1.727  16.234  20.588  0.00  0.00    +0.000 A 
ATOM     19  N   UNL     1      -1.187  15.824  21.707  0.00  0.00    +0.000 NA
ATOM     20  C   UNL     1      -1.894  14.785  22.162  0.00  0.00    +0.000 A 
ATOM     21  C   UNL     1      -3.164  14.564  21.665  0.00  0.00    +0.000 A 
ATOM     22 CL   UNL     1      -4.116  13.133  21.253  0.00  0.00    +0.000 Cl
ATOM     23  N   UNL     1      -1.180  15.522  19.423  0.00  0.00    +0.000 N 
ATOM     24  H   UNL     1      -5.767  15.718  21.473  0.00  0.00    +0.000 HD
ATOM     25  H   UNL     1      -1.854  15.684  18.685  0.00  0.00    +0.000 HD
ENDROOT
BRANCH   1  30
ATOM     26  C   UNL     1       3.129   6.419  18.677  0.00  0.00    +0.000 C 
ATOM     27  N   UNL     1       2.625   7.759  19.010  0.00  0.00    +0.000 NA
ATOM     28  C   UNL     1       1.688   7.748  20.166  0.00  0.00    +0.000 C 
ATOM     29  C   UNL     1       1.079   9.173  20.532  0.00  0.00    +0.000 C 
ATOM     30  N   UNL     1       0.307   9.852  19.379  0.00  0.00    +0.000 N 
ATOM     31  C   UNL     1       1.318   9.803  18.198  0.00  0.00    +0.000 C 
ATOM     32  C   UNL     1       1.896   8.376  17.875  0.00  0.00    +0.000 C 
ENDBRANCH   1  30
TORSDOF 1
ENDMDL
