MODEL 1
REMARK VINA RESULT:      -6.3      0.000      0.000
REMARK  Name = 
REMARK  17 active torsions:
REMARK  status: ('A' for Active; 'I' for Inactive)
REMARK    1  A    between atoms: C_1  and  O_2
REMARK    2  A    between atoms: O_2  and  N_3
REMARK    3  A    between atoms: N_3  and  C_4
REMARK    4  A    between atoms: N_3  and  C_20
REMARK    5  A    between atoms: C_4  and  C_5
REMARK    6  A    between atoms: C_5  and  C_6
REMARK    7  A    between atoms: C_6  and  C_7
REMARK    8  A    between atoms: C_10  and  N_11
REMARK    9  A    between atoms: N_11  and  C_12
REMARK   10  A    between atoms: N_11  and  C_15
REMARK   11  A    between atoms: C_12  and  C_13
REMARK   12  A    between atoms: C_15  and  C_16
REMARK   13  A    between atoms: C_22  and  C_23
REMARK   14  A    between atoms: C_23  and  O_24
REMARK   15  A    between atoms: C_25  and  O_26
REMARK   16  A    between atoms: C_27  and  O_28
REMARK   17  A    between atoms: C_29  and  O_30
REMARK                            x       y       z     vdW  Elec       q    Type
REMARK                         _______ _______ _______ _____ _____    ______ ____
ROOT
ATOM      1  N   UNL     1       4.214   6.093  18.393  0.00  0.00    +0.000 NA
ENDROOT
BRANCH   1   2
ATOM      2  C   UNL     1       3.544   4.813  17.977  0.00  0.00    +0.000 C 
ATOM      3  O   UNL     1       2.245   4.655  18.581  0.00  0.00    +0.000 OA
ATOM      4  C   UNL     1       2.260   4.287  19.972  0.00  0.00    +0.000 C 
ATOM      5  C   UNL     1       3.024   2.984  20.220  0.00  0.00    +0.000 C 
ATOM      6  C   UNL     1       4.414   3.023  19.581  0.00  0.00    +0.000 C 
ATOM      7  C   UNL     1       4.323   3.482  18.123  0.00  0.00    +0.000 C 
BRANCH   7   8
ATOM      8  O   UNL     1       5.620   3.512  17.518  0.00  0.00    +0.000 OA
ATOM      9  H   UNL     1       6.089   2.723  17.859  0.00  0.00    +0.000 HD
ENDBRANCH   7   8
BRANCH   6  10
ATOM     10  O   UNL     1       5.006   1.712  19.666  0.00  0.00    +0.000 OA
ATOM     11  H   UNL     1       5.840   1.717  19.161  0.00  0.00    +0.000 HD
ENDBRANCH   6  10
BRANCH   5  12
ATOM     12  O   UNL     1       3.094   2.722  21.626  0.00  0.00    +0.000 OA
ATOM     13  H   UNL     1       2.259   2.303  21.902  0.00  0.00    +0.000 HD
ENDBRANCH   5  12
BRANCH   4  14
ATOM     14  C   UNL     1       0.791   4.122  20.413  0.00  0.00    +0.000 C 
BRANCH  14  15
ATOM     15  O   UNL     1       0.480   2.745  20.621  0.00  0.00    +0.000 OA
ATOM     16  H   UNL     1       0.752   2.535  21.535  0.00  0.00    +0.000 HD
ENDBRANCH  14  15
ENDBRANCH   4  14
ENDBRANCH   1   2
BRANCH   1  18
ATOM     17  C   UNL     1       5.284   6.632  16.315  0.00  0.00    +0.000 C 
ATOM     18  O   UNL     1       5.483   6.151  17.655  0.00  0.00    +0.000 OA
ENDBRANCH   1  18
BRANCH   1  19
ATOM     19  C   UNL     1       3.385   7.185  17.808  0.00  0.00    +0.000 C 
BRANCH  19  20
ATOM     20  C   UNL     1       2.239   7.730  18.679  0.00  0.00    +0.000 C 
BRANCH  20  21
ATOM     21  C   UNL     1       1.568   8.943  18.021  0.00  0.00    +0.000 C 
BRANCH  21  22
ATOM     22  C   UNL     1       0.762   9.795  18.967  0.00  0.00    +0.000 A 
ATOM     23  C   UNL     1      -0.239  10.657  18.519  0.00  0.00    +0.000 A 
ATOM     24  C   UNL     1      -0.908  11.492  19.409  0.00  0.00    +0.000 A 
ATOM     25  C   UNL     1      -0.661  11.474  20.788  0.00  0.00    +0.000 A 
ATOM     26  C   UNL     1       0.318  10.560  21.225  0.00  0.00    +0.000 A 
ATOM     27  C   UNL     1       1.023   9.744  20.335  0.00  0.00    +0.000 A 
BRANCH  25  28
ATOM     28  N   UNL     1      -1.331  12.317  21.661  0.00  0.00    +0.000 N 
BRANCH  28  29
ATOM     29  C   UNL     1      -2.799  12.403  21.663  0.00  0.00    +0.000 C 
BRANCH  29  30
ATOM     30  C   UNL     1      -3.315  13.299  22.797  0.00  0.00    +0.000 C 
ATOM     31 CL   UNL     1      -3.848  12.312  24.183  0.00  0.00    +0.000 Cl
ENDBRANCH  29  30
ENDBRANCH  28  29
BRANCH  28  32
ATOM     32  C   UNL     1      -0.595  13.285  22.501  0.00  0.00    +0.000 C 
BRANCH  32  33
ATOM     33  C   UNL     1       0.103  14.392  21.704  0.00  0.00    +0.000 C 
ATOM     34 CL   UNL     1       1.793  13.981  21.306  0.00  0.00    +0.000 Cl
ENDBRANCH  32  33
ENDBRANCH  28  32
ENDBRANCH  25  28
ENDBRANCH  21  22
ENDBRANCH  20  21
ENDBRANCH  19  20
ENDBRANCH   1  19
TORSDOF 16
ENDMDL
MODEL 2
REMARK VINA RESULT:      -6.3      2.313      4.238
REMARK  Name = 
REMARK  17 active torsions:
REMARK  status: ('A' for Active; 'I' for Inactive)
REMARK    1  A    between atoms: C_1  and  O_2
REMARK    2  A    between atoms: O_2  and  N_3
REMARK    3  A    between atoms: N_3  and  C_4
REMARK    4  A    between atoms: N_3  and  C_20
REMARK    5  A    between atoms: C_4  and  C_5
REMARK    6  A    between atoms: C_5  and  C_6
REMARK    7  A    between atoms: C_6  and  C_7
REMARK    8  A    between atoms: C_10  and  N_11
REMARK    9  A    between atoms: N_11  and  C_12
REMARK   10  A    between atoms: N_11  and  C_15
REMARK   11  A    between atoms: C_12  and  C_13
REMARK   12  A    between atoms: C_15  and  C_16
REMARK   13  A    between atoms: C_22  and  C_23
REMARK   14  A    between atoms: C_23  and  O_24
REMARK   15  A    between atoms: C_25  and  O_26
REMARK   16  A    between atoms: C_27  and  O_28
REMARK   17  A    between atoms: C_29  and  O_30
REMARK                            x       y       z     vdW  Elec       q    Type
REMARK                         _______ _______ _______ _____ _____    ______ ____
ROOT
ATOM      1  N   UNL     1       3.889   4.465  17.446  0.00  0.00    +0.000 NA
ENDROOT
BRANCH   1   2
ATOM      2  C   UNL     1       5.254   3.848  17.315  0.00  0.00    +0.000 C 
ATOM      3  O   UNL     1       6.140   4.255  18.376  0.00  0.00    +0.000 OA
ATOM      4  C   UNL     1       6.649   5.597  18.266  0.00  0.00    +0.000 C 
ATOM      5  C   UNL     1       7.398   5.828  16.951  0.00  0.00    +0.000 C 
ATOM      6  C   UNL     1       6.560   5.389  15.747  0.00  0.00    +0.000 C 
ATOM      7  C   UNL     1       6.004   3.979  15.966  0.00  0.00    +0.000 C 
BRANCH   7   8
ATOM      8  O   UNL     1       5.226   3.560  14.839  0.00  0.00    +0.000 OA
ATOM      9  H   UNL     1       5.805   3.683  14.059  0.00  0.00    +0.000 HD
ENDBRANCH   7   8
BRANCH   6  10
ATOM     10  O   UNL     1       7.380   5.434  14.564  0.00  0.00    +0.000 OA
ATOM     11  H   UNL     1       7.987   6.193  14.638  0.00  0.00    +0.000 HD
ENDBRANCH   6  10
BRANCH   5  12
ATOM     12  O   UNL     1       7.791   7.201  16.851  0.00  0.00    +0.000 OA
ATOM     13  H   UNL     1       8.754   7.234  16.706  0.00  0.00    +0.000 HD
ENDBRANCH   5  12
BRANCH   4  14
ATOM     14  C   UNL     1       7.605   5.818  19.456  0.00  0.00    +0.000 C 
BRANCH  14  15
ATOM     15  O   UNL     1       8.462   6.933  19.212  0.00  0.00    +0.000 OA
ATOM     16  H   UNL     1       7.909   7.621  18.795  0.00  0.00    +0.000 HD
ENDBRANCH  14  15
ENDBRANCH   4  14
ENDBRANCH   1   2
BRANCH   1  18
ATOM     17  C   UNL     1       2.919   2.299  17.798  0.00  0.00    +0.000 C 
ATOM     18  O   UNL     1       2.935   3.461  16.952  0.00  0.00    +0.000 OA
ENDBRANCH   1  18
BRANCH   1  19
ATOM     19  C   UNL     1       3.628   4.546  18.911  0.00  0.00    +0.000 C 
BRANCH  19  20
ATOM     20  C   UNL     1       2.970   5.837  19.429  0.00  0.00    +0.000 C 
BRANCH  20  21
ATOM     21  C   UNL     1       2.612   6.781  18.273  0.00  0.00    +0.000 C 
BRANCH  21  22
ATOM     22  C   UNL     1       2.058   8.114  18.709  0.00  0.00    +0.000 A 
ATOM     23  C   UNL     1       1.504   8.309  19.974  0.00  0.00    +0.000 A 
ATOM     24  C   UNL     1       0.927   9.528  20.316  0.00  0.00    +0.000 A 
ATOM     25  C   UNL     1       0.921  10.628  19.447  0.00  0.00    +0.000 A 
ATOM     26  C   UNL     1       1.531  10.424  18.194  0.00  0.00    +0.000 A 
ATOM     27  C   UNL     1       2.080   9.192  17.826  0.00  0.00    +0.000 A 
BRANCH  25  28
ATOM     28  N   UNL     1       0.335  11.834  19.801  0.00  0.00    +0.000 N 
BRANCH  28  29
ATOM     29  C   UNL     1      -0.700  12.455  18.960  0.00  0.00    +0.000 C 
BRANCH  29  30
ATOM     30  C   UNL     1      -2.071  11.799  19.169  0.00  0.00    +0.000 C 
ATOM     31 CL   UNL     1      -2.956  12.604  20.492  0.00  0.00    +0.000 Cl
ENDBRANCH  29  30
ENDBRANCH  28  29
BRANCH  28  32
ATOM     32  C   UNL     1       0.845  12.624  20.940  0.00  0.00    +0.000 C 
BRANCH  32  33
ATOM     33  C   UNL     1       2.104  13.436  20.616  0.00  0.00    +0.000 C 
ATOM     34 CL   UNL     1       1.722  15.075  20.023  0.00  0.00    +0.000 Cl
ENDBRANCH  32  33
ENDBRANCH  28  32
ENDBRANCH  25  28
ENDBRANCH  21  22
ENDBRANCH  20  21
ENDBRANCH  19  20
ENDBRANCH   1  19
TORSDOF 16
ENDMDL
MODEL 3
REMARK VINA RESULT:      -6.2      2.381      4.390
REMARK  Name = 
REMARK  17 active torsions:
REMARK  status: ('A' for Active; 'I' for Inactive)
REMARK    1  A    between atoms: C_1  and  O_2
REMARK    2  A    between atoms: O_2  and  N_3
REMARK    3  A    between atoms: N_3  and  C_4
REMARK    4  A    between atoms: N_3  and  C_20
REMARK    5  A    between atoms: C_4  and  C_5
REMARK    6  A    between atoms: C_5  and  C_6
REMARK    7  A    between atoms: C_6  and  C_7
REMARK    8  A    between atoms: C_10  and  N_11
REMARK    9  A    between atoms: N_11  and  C_12
REMARK   10  A    between atoms: N_11  and  C_15
REMARK   11  A    between atoms: C_12  and  C_13
REMARK   12  A    between atoms: C_15  and  C_16
REMARK   13  A    between atoms: C_22  and  C_23
REMARK   14  A    between atoms: C_23  and  O_24
REMARK   15  A    between atoms: C_25  and  O_26
REMARK   16  A    between atoms: C_27  and  O_28
REMARK   17  A    between atoms: C_29  and  O_30
REMARK                            x       y       z     vdW  Elec       q    Type
REMARK                         _______ _______ _______ _____ _____    ______ ____
ROOT
ATOM      1  N   UNL     1       3.911   4.221  17.450  0.00  0.00    +0.000 NA
ENDROOT
BRANCH   1   2
ATOM      2  C   UNL     1       5.337   3.752  17.359  0.00  0.00    +0.000 C 
ATOM      3  O   UNL     1       6.134   4.210  18.469  0.00  0.00    +0.000 OA
ATOM      4  C   UNL     1       6.505   5.600  18.420  0.00  0.00    +0.000 C 
ATOM      5  C   UNL     1       7.278   5.951  17.146  0.00  0.00    +0.000 C 
ATOM      6  C   UNL     1       6.538   5.470  15.895  0.00  0.00    +0.000 C 
ATOM      7  C   UNL     1       6.122   4.004  16.048  0.00  0.00    +0.000 C 
BRANCH   7   8
ATOM      8  O   UNL     1       5.436   3.546  14.877  0.00  0.00    +0.000 OA
ATOM      9  H   UNL     1       6.120   3.481  14.179  0.00  0.00    +0.000 HD
ENDBRANCH   7   8
BRANCH   6  10
ATOM     10  O   UNL     1       7.395   5.639  14.749  0.00  0.00    +0.000 OA
ATOM     11  H   UNL     1       8.221   6.063  15.043  0.00  0.00    +0.000 HD
ENDBRANCH   6  10
BRANCH   5  12
ATOM     12  O   UNL     1       7.530   7.359  17.104  0.00  0.00    +0.000 OA
ATOM     13  H   UNL     1       8.475   7.495  16.910  0.00  0.00    +0.000 HD
ENDBRANCH   5  12
BRANCH   4  14
ATOM     14  C   UNL     1       7.386   5.877  19.656  0.00  0.00    +0.000 C 
BRANCH  14  15
ATOM     15  O   UNL     1       8.636   6.444  19.267  0.00  0.00    +0.000 OA
ATOM     16  H   UNL     1       9.269   6.233  19.980  0.00  0.00    +0.000 HD
ENDBRANCH  14  15
ENDBRANCH   4  14
ENDBRANCH   1   2
BRANCH   1  18
ATOM     17  C   UNL     1       2.302   2.498  17.895  0.00  0.00    +0.000 C 
ATOM     18  O   UNL     1       3.087   3.146  16.880  0.00  0.00    +0.000 OA
ENDBRANCH   1  18
BRANCH   1  19
ATOM     19  C   UNL     1       3.584   4.218  18.904  0.00  0.00    +0.000 C 
BRANCH  19  20
ATOM     20  C   UNL     1       3.213   5.572  19.535  0.00  0.00    +0.000 C 
BRANCH  20  21
ATOM     21  C   UNL     1       3.154   6.682  18.477  0.00  0.00    +0.000 C 
BRANCH  21  22
ATOM     22  C   UNL     1       2.256   7.837  18.838  0.00  0.00    +0.000 A 
ATOM     23  C   UNL     1       2.016   8.892  17.958  0.00  0.00    +0.000 A 
ATOM     24  C   UNL     1       1.248   9.984  18.352  0.00  0.00    +0.000 A 
ATOM     25  C   UNL     1       0.636  10.058  19.611  0.00  0.00    +0.000 A 
ATOM     26  C   UNL     1       0.850   8.958  20.464  0.00  0.00    +0.000 A 
ATOM     27  C   UNL     1       1.650   7.874  20.093  0.00  0.00    +0.000 A 
BRANCH  25  28
ATOM     28  N   UNL     1      -0.120  11.157  19.991  0.00  0.00    +0.000 N 
BRANCH  28  29
ATOM     29  C   UNL     1      -1.357  11.515  19.280  0.00  0.00    +0.000 C 
BRANCH  29  30
ATOM     30  C   UNL     1      -1.842  10.375  18.376  0.00  0.00    +0.000 C 
ATOM     31 CL   UNL     1      -3.540  10.636  17.894  0.00  0.00    +0.000 Cl
ENDBRANCH  29  30
ENDBRANCH  28  29
BRANCH  28  32
ATOM     32  C   UNL     1       0.374  12.105  21.011  0.00  0.00    +0.000 C 
BRANCH  32  33
ATOM     33  C   UNL     1      -0.604  12.336  22.168  0.00  0.00    +0.000 C 
ATOM     34 CL   UNL     1      -0.990  10.831  23.043  0.00  0.00    +0.000 Cl
ENDBRANCH  32  33
ENDBRANCH  28  32
ENDBRANCH  25  28
ENDBRANCH  21  22
ENDBRANCH  20  21
ENDBRANCH  19  20
ENDBRANCH   1  19
TORSDOF 16
ENDMDL
MODEL 4
REMARK VINA RESULT:      -6.2      2.522      4.011
REMARK  Name = 
REMARK  17 active torsions:
REMARK  status: ('A' for Active; 'I' for Inactive)
REMARK    1  A    between atoms: C_1  and  O_2
REMARK    2  A    between atoms: O_2  and  N_3
REMARK    3  A    between atoms: N_3  and  C_4
REMARK    4  A    between atoms: N_3  and  C_20
REMARK    5  A    between atoms: C_4  and  C_5
REMARK    6  A    between atoms: C_5  and  C_6
REMARK    7  A    between atoms: C_6  and  C_7
REMARK    8  A    between atoms: C_10  and  N_11
REMARK    9  A    between atoms: N_11  and  C_12
REMARK   10  A    between atoms: N_11  and  C_15
REMARK   11  A    between atoms: C_12  and  C_13
REMARK   12  A    between atoms: C_15  and  C_16
REMARK   13  A    between atoms: C_22  and  C_23
REMARK   14  A    between atoms: C_23  and  O_24
REMARK   15  A    between atoms: C_25  and  O_26
REMARK   16  A    between atoms: C_27  and  O_28
REMARK   17  A    between atoms: C_29  and  O_30
REMARK                            x       y       z     vdW  Elec       q    Type
REMARK                         _______ _______ _______ _____ _____    ______ ____
ROOT
ATOM      1  N   UNL     1       3.570   5.650  19.084  0.00  0.00    +0.000 NA
ENDROOT
BRANCH   1   2
ATOM      2  C   UNL     1       4.521   4.493  19.218  0.00  0.00    +0.000 C 
ATOM      3  O   UNL     1       5.821   4.907  19.684  0.00  0.00    +0.000 OA
ATOM      4  C   UNL     1       6.639   5.567  18.700  0.00  0.00    +0.000 C 
ATOM      5  C   UNL     1       6.868   4.702  17.459  0.00  0.00    +0.000 C 
ATOM      6  C   UNL     1       5.547   4.169  16.899  0.00  0.00    +0.000 C 
ATOM      7  C   UNL     1       4.707   3.538  18.013  0.00  0.00    +0.000 C 
BRANCH   7   8
ATOM      8  O   UNL     1       3.473   3.030  17.493  0.00  0.00    +0.000 OA
ATOM      9  H   UNL     1       3.457   2.081  17.732  0.00  0.00    +0.000 HD
ENDBRANCH   7   8
BRANCH   6  10
ATOM     10  O   UNL     1       5.830   3.205  15.866  0.00  0.00    +0.000 OA
ATOM     11  H   UNL     1       5.329   2.392  16.058  0.00  0.00    +0.000 HD
ENDBRANCH   6  10
BRANCH   5  12
ATOM     12  O   UNL     1       7.598   5.446  16.477  0.00  0.00    +0.000 OA
ATOM     13  H   UNL     1       8.460   5.012  16.343  0.00  0.00    +0.000 HD
ENDBRANCH   5  12
BRANCH   4  14
ATOM     14  C   UNL     1       7.990   5.882  19.373  0.00  0.00    +0.000 C 
BRANCH  14  15
ATOM     15  O   UNL     1       8.028   5.355  20.699  0.00  0.00    +0.000 OA
ATOM     16  H   UNL     1       8.971   5.234  20.921  0.00  0.00    +0.000 HD
ENDBRANCH  14  15
ENDBRANCH   4  14
ENDBRANCH   1   2
BRANCH   1  18
ATOM     17  C   UNL     1       3.728   7.231  17.285  0.00  0.00    +0.000 C 
ATOM     18  O   UNL     1       3.399   5.877  17.642  0.00  0.00    +0.000 OA
ENDBRANCH   1  18
BRANCH   1  19
ATOM     19  C   UNL     1       2.249   5.135  19.545  0.00  0.00    +0.000 C 
BRANCH  19  20
ATOM     20  C   UNL     1       1.522   5.955  20.625  0.00  0.00    +0.000 C 
BRANCH  20  21
ATOM     21  C   UNL     1       2.130   7.358  20.761  0.00  0.00    +0.000 C 
BRANCH  21  22
ATOM     22  C   UNL     1       1.226   8.473  20.305  0.00  0.00    +0.000 A 
ATOM     23  C   UNL     1       1.353   9.063  19.047  0.00  0.00    +0.000 A 
ATOM     24  C   UNL     1       0.557  10.147  18.687  0.00  0.00    +0.000 A 
ATOM     25  C   UNL     1      -0.439  10.661  19.528  0.00  0.00    +0.000 A 
ATOM     26  C   UNL     1      -0.584  10.018  20.773  0.00  0.00    +0.000 A 
ATOM     27  C   UNL     1       0.235   8.954  21.160  0.00  0.00    +0.000 A 
BRANCH  25  28
ATOM     28  N   UNL     1      -1.219  11.746  19.157  0.00  0.00    +0.000 N 
BRANCH  28  29
ATOM     29  C   UNL     1      -1.917  11.777  17.863  0.00  0.00    +0.000 C 
BRANCH  29  30
ATOM     30  C   UNL     1      -2.884  10.595  17.712  0.00  0.00    +0.000 C 
ATOM     31 CL   UNL     1      -2.744   9.875  16.085  0.00  0.00    +0.000 Cl
ENDBRANCH  29  30
ENDBRANCH  28  29
BRANCH  28  32
ATOM     32  C   UNL     1      -1.241  12.981  19.968  0.00  0.00    +0.000 C 
BRANCH  32  33
ATOM     33  C   UNL     1      -2.289  12.969  21.086  0.00  0.00    +0.000 C 
ATOM     34 CL   UNL     1      -1.555  13.070  22.709  0.00  0.00    +0.000 Cl
ENDBRANCH  32  33
ENDBRANCH  28  32
ENDBRANCH  25  28
ENDBRANCH  21  22
ENDBRANCH  20  21
ENDBRANCH  19  20
ENDBRANCH   1  19
TORSDOF 16
ENDMDL
MODEL 5
REMARK VINA RESULT:      -6.2      5.735      9.928
REMARK  Name = 
REMARK  17 active torsions:
REMARK  status: ('A' for Active; 'I' for Inactive)
REMARK    1  A    between atoms: C_1  and  O_2
REMARK    2  A    between atoms: O_2  and  N_3
REMARK    3  A    between atoms: N_3  and  C_4
REMARK    4  A    between atoms: N_3  and  C_20
REMARK    5  A    between atoms: C_4  and  C_5
REMARK    6  A    between atoms: C_5  and  C_6
REMARK    7  A    between atoms: C_6  and  C_7
REMARK    8  A    between atoms: C_10  and  N_11
REMARK    9  A    between atoms: N_11  and  C_12
REMARK   10  A    between atoms: N_11  and  C_15
REMARK   11  A    between atoms: C_12  and  C_13
REMARK   12  A    between atoms: C_15  and  C_16
REMARK   13  A    between atoms: C_22  and  C_23
REMARK   14  A    between atoms: C_23  and  O_24
REMARK   15  A    between atoms: C_25  and  O_26
REMARK   16  A    between atoms: C_27  and  O_28
REMARK   17  A    between atoms: C_29  and  O_30
REMARK                            x       y       z     vdW  Elec       q    Type
REMARK                         _______ _______ _______ _____ _____    ______ ____
ROOT
ATOM      1  N   UNL     1      -3.100  10.587  18.444  0.00  0.00    +0.000 NA
ENDROOT
BRANCH   1   2
ATOM      2  C   UNL     1      -3.807  11.914  18.448  0.00  0.00    +0.000 C 
ATOM      3  O   UNL     1      -3.622  12.628  19.687  0.00  0.00    +0.000 OA
ATOM      4  C   UNL     1      -4.388  12.127  20.799  0.00  0.00    +0.000 C 
ATOM      5  C   UNL     1      -5.891  12.120  20.513  0.00  0.00    +0.000 C 
ATOM      6  C   UNL     1      -6.204  11.418  19.189  0.00  0.00    +0.000 C 
ATOM      7  C   UNL     1      -5.309  11.960  18.070  0.00  0.00    +0.000 C 
BRANCH   7   8
ATOM      8  O   UNL     1      -5.603  11.313  16.827  0.00  0.00    +0.000 OA
ATOM      9  H   UNL     1      -6.281  10.638  17.035  0.00  0.00    +0.000 HD
ENDBRANCH   7   8
BRANCH   6  10
ATOM     10  O   UNL     1      -7.594  11.618  18.869  0.00  0.00    +0.000 OA
ATOM     11  H   UNL     1      -7.931  12.359  19.405  0.00  0.00    +0.000 HD
ENDBRANCH   6  10
BRANCH   5  12
ATOM     12  O   UNL     1      -6.591  11.520  21.608  0.00  0.00    +0.000 OA
ATOM     13  H   UNL     1      -6.154  10.677  21.827  0.00  0.00    +0.000 HD
ENDBRANCH   5  12
BRANCH   4  14
ATOM     14  C   UNL     1      -4.091  13.044  22.003  0.00  0.00    +0.000 C 
BRANCH  14  15
ATOM     15  O   UNL     1      -4.239  12.330  23.229  0.00  0.00    +0.000 OA
ATOM     16  H   UNL     1      -4.655  11.476  23.002  0.00  0.00    +0.000 HD
ENDBRANCH  14  15
ENDBRANCH   4  14
ENDBRANCH   1   2
BRANCH   1  18
ATOM     17  C   UNL     1      -2.367  10.086  16.215  0.00  0.00    +0.000 C 
ATOM     18  O   UNL     1      -3.437   9.946  17.166  0.00  0.00    +0.000 OA
ENDBRANCH   1  18
BRANCH   1  19
ATOM     19  C   UNL     1      -1.649  10.911  18.335  0.00  0.00    +0.000 C 
BRANCH  19  20
ATOM     20  C   UNL     1      -0.755  10.498  19.518  0.00  0.00    +0.000 C 
BRANCH  20  21
ATOM     21  C   UNL     1       0.731  10.574  19.145  0.00  0.00    +0.000 C 
BRANCH  21  22
ATOM     22  C   UNL     1       1.428   9.239  19.093  0.00  0.00    +0.000 A 
ATOM     23  C   UNL     1       2.067   8.780  17.942  0.00  0.00    +0.000 A 
ATOM     24  C   UNL     1       2.629   7.507  17.901  0.00  0.00    +0.000 A 
ATOM     25  C   UNL     1       2.636   6.652  19.011  0.00  0.00    +0.000 A 
ATOM     26  C   UNL     1       2.030   7.155  20.178  0.00  0.00    +0.000 A 
ATOM     27  C   UNL     1       1.429   8.416  20.219  0.00  0.00    +0.000 A 
BRANCH  25  28
ATOM     28  N   UNL     1       3.194   5.383  18.951  0.00  0.00    +0.000 N 
BRANCH  28  29
ATOM     29  C   UNL     1       4.519   5.105  19.526  0.00  0.00    +0.000 C 
BRANCH  29  30
ATOM     30  C   UNL     1       5.602   5.021  18.443  0.00  0.00    +0.000 C 
ATOM     31 CL   UNL     1       7.113   5.782  19.008  0.00  0.00    +0.000 Cl
ENDBRANCH  29  30
ENDBRANCH  28  29
BRANCH  28  32
ATOM     32  C   UNL     1       2.559   4.309  18.161  0.00  0.00    +0.000 C 
BRANCH  32  33
ATOM     33  C   UNL     1       2.011   3.156  19.010  0.00  0.00    +0.000 C 
ATOM     34 CL   UNL     1       0.911   3.722  20.295  0.00  0.00    +0.000 Cl
ENDBRANCH  32  33
ENDBRANCH  28  32
ENDBRANCH  25  28
ENDBRANCH  21  22
ENDBRANCH  20  21
ENDBRANCH  19  20
ENDBRANCH   1  19
TORSDOF 16
ENDMDL
MODEL 6
REMARK VINA RESULT:      -6.2      2.194      4.272
REMARK  Name = 
REMARK  17 active torsions:
REMARK  status: ('A' for Active; 'I' for Inactive)
REMARK    1  A    between atoms: C_1  and  O_2
REMARK    2  A    between atoms: O_2  and  N_3
REMARK    3  A    between atoms: N_3  and  C_4
REMARK    4  A    between atoms: N_3  and  C_20
REMARK    5  A    between atoms: C_4  and  C_5
REMARK    6  A    between atoms: C_5  and  C_6
REMARK    7  A    between atoms: C_6  and  C_7
REMARK    8  A    between atoms: C_10  and  N_11
REMARK    9  A    between atoms: N_11  and  C_12
REMARK   10  A    between atoms: N_11  and  C_15
REMARK   11  A    between atoms: C_12  and  C_13
REMARK   12  A    between atoms: C_15  and  C_16
REMARK   13  A    between atoms: C_22  and  C_23
REMARK   14  A    between atoms: C_23  and  O_24
REMARK   15  A    between atoms: C_25  and  O_26
REMARK   16  A    between atoms: C_27  and  O_28
REMARK   17  A    between atoms: C_29  and  O_30
REMARK                            x       y       z     vdW  Elec       q    Type
REMARK                         _______ _______ _______ _____ _____    ______ ____
ROOT
ATOM      1  N   UNL     1       3.036   4.905  18.465  0.00  0.00    +0.000 NA
ENDROOT
BRANCH   1   2
ATOM      2  C   UNL     1       4.486   4.537  18.609  0.00  0.00    +0.000 C 
ATOM      3  O   UNL     1       5.349   5.691  18.566  0.00  0.00    +0.000 OA
ATOM      4  C   UNL     1       5.542   6.259  17.257  0.00  0.00    +0.000 C 
ATOM      5  C   UNL     1       6.109   5.245  16.261  0.00  0.00    +0.000 C 
ATOM      6  C   UNL     1       5.289   3.953  16.253  0.00  0.00    +0.000 C 
ATOM      7  C   UNL     1       5.074   3.445  17.681  0.00  0.00    +0.000 C 
BRANCH   7   8
ATOM      8  O   UNL     1       4.314   2.231  17.679  0.00  0.00    +0.000 OA
ATOM      9  H   UNL     1       4.923   1.537  18.005  0.00  0.00    +0.000 HD
ENDBRANCH   7   8
BRANCH   6  10
ATOM     10  O   UNL     1       5.976   2.966  15.460  0.00  0.00    +0.000 OA
ATOM     11  H   UNL     1       6.931   3.035  15.642  0.00  0.00    +0.000 HD
ENDBRANCH   6  10
BRANCH   5  12
ATOM     12  O   UNL     1       6.183   5.834  14.958  0.00  0.00    +0.000 OA
ATOM     13  H   UNL     1       5.278   5.929  14.612  0.00  0.00    +0.000 HD
ENDBRANCH   5  12
BRANCH   4  14
ATOM     14  C   UNL     1       6.523   7.438  17.416  0.00  0.00    +0.000 C 
BRANCH  14  15
ATOM     15  O   UNL     1       7.768   7.147  16.781  0.00  0.00    +0.000 OA
ATOM     16  H   UNL     1       8.136   6.368  17.241  0.00  0.00    +0.000 HD
ENDBRANCH  14  15
ENDBRANCH   4  14
ENDBRANCH   1   2
BRANCH   1  18
ATOM     17  C   UNL     1       1.242   3.313  18.395  0.00  0.00    +0.000 C 
ATOM     18  O   UNL     1       2.407   3.810  17.713  0.00  0.00    +0.000 OA
ENDBRANCH   1  18
BRANCH   1  19
ATOM     19  C   UNL     1       2.461   4.803  19.836  0.00  0.00    +0.000 C 
BRANCH  19  20
ATOM     20  C   UNL     1       1.883   6.093  20.445  0.00  0.00    +0.000 C 
BRANCH  20  21
ATOM     21  C   UNL     1       2.443   7.338  19.745  0.00  0.00    +0.000 C 
BRANCH  21  22
ATOM     22  C   UNL     1       1.482   8.497  19.679  0.00  0.00    +0.000 A 
ATOM     23  C   UNL     1       0.656   8.837  20.750  0.00  0.00    +0.000 A 
ATOM     24  C   UNL     1      -0.279   9.862  20.629  0.00  0.00    +0.000 A 
ATOM     25  C   UNL     1      -0.401  10.635  19.466  0.00  0.00    +0.000 A 
ATOM     26  C   UNL     1       0.478  10.308  18.416  0.00  0.00    +0.000 A 
ATOM     27  C   UNL     1       1.394   9.256  18.513  0.00  0.00    +0.000 A 
BRANCH  25  28
ATOM     28  N   UNL     1      -1.342  11.647  19.359  0.00  0.00    +0.000 N 
BRANCH  28  29
ATOM     29  C   UNL     1      -1.143  12.947  20.018  0.00  0.00    +0.000 C 
BRANCH  29  30
ATOM     30  C   UNL     1      -2.342  13.327  20.897  0.00  0.00    +0.000 C 
ATOM     31 CL   UNL     1      -2.415  12.284  22.343  0.00  0.00    +0.000 Cl
ENDBRANCH  29  30
ENDBRANCH  28  29
BRANCH  28  32
ATOM     32  C   UNL     1      -2.654  11.403  18.725  0.00  0.00    +0.000 C 
BRANCH  32  33
ATOM     33  C   UNL     1      -2.619  11.443  17.193  0.00  0.00    +0.000 C 
ATOM     34 CL   UNL     1      -2.525   9.815  16.472  0.00  0.00    +0.000 Cl
ENDBRANCH  32  33
ENDBRANCH  28  32
ENDBRANCH  25  28
ENDBRANCH  21  22
ENDBRANCH  20  21
ENDBRANCH  19  20
ENDBRANCH   1  19
TORSDOF 16
ENDMDL
MODEL 7
REMARK VINA RESULT:      -6.2      1.982      3.072
REMARK  Name = 
REMARK  17 active torsions:
REMARK  status: ('A' for Active; 'I' for Inactive)
REMARK    1  A    between atoms: C_1  and  O_2
REMARK    2  A    between atoms: O_2  and  N_3
REMARK    3  A    between atoms: N_3  and  C_4
REMARK    4  A    between atoms: N_3  and  C_20
REMARK    5  A    between atoms: C_4  and  C_5
REMARK    6  A    between atoms: C_5  and  C_6
REMARK    7  A    between atoms: C_6  and  C_7
REMARK    8  A    between atoms: C_10  and  N_11
REMARK    9  A    between atoms: N_11  and  C_12
REMARK   10  A    between atoms: N_11  and  C_15
REMARK   11  A    between atoms: C_12  and  C_13
REMARK   12  A    between atoms: C_15  and  C_16
REMARK   13  A    between atoms: C_22  and  C_23
REMARK   14  A    between atoms: C_23  and  O_24
REMARK   15  A    between atoms: C_25  and  O_26
REMARK   16  A    between atoms: C_27  and  O_28
REMARK   17  A    between atoms: C_29  and  O_30
REMARK                            x       y       z     vdW  Elec       q    Type
REMARK                         _______ _______ _______ _____ _____    ______ ____
ROOT
ATOM      1  N   UNL     1       4.951   4.452  19.071  0.00  0.00    +0.000 NA
ENDROOT
BRANCH   1   2
ATOM      2  C   UNL     1       4.380   3.065  18.971  0.00  0.00    +0.000 C 
ATOM      3  O   UNL     1       3.144   3.036  18.230  0.00  0.00    +0.000 OA
ATOM      4  C   UNL     1       1.997   3.542  18.938  0.00  0.00    +0.000 C 
ATOM      5  C   UNL     1       1.745   2.792  20.248  0.00  0.00    +0.000 C 
ATOM      6  C   UNL     1       3.013   2.723  21.104  0.00  0.00    +0.000 C 
ATOM      7  C   UNL     1       4.200   2.237  20.267  0.00  0.00    +0.000 C 
BRANCH   7   8
ATOM      8  O   UNL     1       5.387   2.164  21.065  0.00  0.00    +0.000 OA
ATOM      9  H   UNL     1       5.079   2.128  21.994  0.00  0.00    +0.000 HD
ENDBRANCH   7   8
BRANCH   6  10
ATOM     10  O   UNL     1       2.780   1.840  22.218  0.00  0.00    +0.000 OA
ATOM     11  H   UNL     1       2.833   2.360  23.040  0.00  0.00    +0.000 HD
ENDBRANCH   6  10
BRANCH   5  12
ATOM     12  O   UNL     1       0.660   3.401  20.956  0.00  0.00    +0.000 OA
ATOM     13  H   UNL     1       0.244   2.725  21.520  0.00  0.00    +0.000 HD
ENDBRANCH   5  12
BRANCH   4  14
ATOM     14  C   UNL     1       0.781   3.381  18.003  0.00  0.00    +0.000 C 
BRANCH  14  15
ATOM     15  O   UNL     1       0.791   4.381  16.986  0.00  0.00    +0.000 OA
ATOM     16  H   UNL     1       1.058   5.214  17.421  0.00  0.00    +0.000 HD
ENDBRANCH  14  15
ENDBRANCH   4  14
ENDBRANCH   1   2
BRANCH   1  18
ATOM     17  C   UNL     1       7.069   5.559  19.288  0.00  0.00    +0.000 C 
ATOM     18  O   UNL     1       6.412   4.295  19.095  0.00  0.00    +0.000 OA
ENDBRANCH   1  18
BRANCH   1  19
ATOM     19  C   UNL     1       4.661   5.098  17.759  0.00  0.00    +0.000 C 
BRANCH  19  20
ATOM     20  C   UNL     1       3.851   6.406  17.793  0.00  0.00    +0.000 C 
BRANCH  20  21
ATOM     21  C   UNL     1       2.943   6.467  19.029  0.00  0.00    +0.000 C 
BRANCH  21  22
ATOM     22  C   UNL     1       2.166   7.750  19.166  0.00  0.00    +0.000 A 
ATOM     23  C   UNL     1       1.941   8.601  18.083  0.00  0.00    +0.000 A 
ATOM     24  C   UNL     1       1.291   9.819  18.260  0.00  0.00    +0.000 A 
ATOM     25  C   UNL     1       0.782  10.227  19.500  0.00  0.00    +0.000 A 
ATOM     26  C   UNL     1       0.975   9.330  20.569  0.00  0.00    +0.000 A 
ATOM     27  C   UNL     1       1.660   8.122  20.411  0.00  0.00    +0.000 A 
BRANCH  25  28
ATOM     28  N   UNL     1       0.143  11.447  19.661  0.00  0.00    +0.000 N 
BRANCH  28  29
ATOM     29  C   UNL     1      -0.228  12.273  18.501  0.00  0.00    +0.000 C 
BRANCH  29  30
ATOM     30  C   UNL     1      -1.730  12.189  18.202  0.00  0.00    +0.000 C 
ATOM     31 CL   UNL     1      -2.256  10.487  18.107  0.00  0.00    +0.000 Cl
ENDBRANCH  29  30
ENDBRANCH  28  29
BRANCH  28  32
ATOM     32  C   UNL     1      -0.037  12.042  21.001  0.00  0.00    +0.000 C 
BRANCH  32  33
ATOM     33  C   UNL     1      -1.358  11.660  21.677  0.00  0.00    +0.000 C 
ATOM     34 CL   UNL     1      -1.110  10.746  23.189  0.00  0.00    +0.000 Cl
ENDBRANCH  32  33
ENDBRANCH  28  32
ENDBRANCH  25  28
ENDBRANCH  21  22
ENDBRANCH  20  21
ENDBRANCH  19  20
ENDBRANCH   1  19
TORSDOF 16
ENDMDL
MODEL 8
REMARK VINA RESULT:      -6.1      5.411      9.774
REMARK  Name = 
REMARK  17 active torsions:
REMARK  status: ('A' for Active; 'I' for Inactive)
REMARK    1  A    between atoms: C_1  and  O_2
REMARK    2  A    between atoms: O_2  and  N_3
REMARK    3  A    between atoms: N_3  and  C_4
REMARK    4  A    between atoms: N_3  and  C_20
REMARK    5  A    between atoms: C_4  and  C_5
REMARK    6  A    between atoms: C_5  and  C_6
REMARK    7  A    between atoms: C_6  and  C_7
REMARK    8  A    between atoms: C_10  and  N_11
REMARK    9  A    between atoms: N_11  and  C_12
REMARK   10  A    between atoms: N_11  and  C_15
REMARK   11  A    between atoms: C_12  and  C_13
REMARK   12  A    between atoms: C_15  and  C_16
REMARK   13  A    between atoms: C_22  and  C_23
REMARK   14  A    between atoms: C_23  and  O_24
REMARK   15  A    between atoms: C_25  and  O_26
REMARK   16  A    between atoms: C_27  and  O_28
REMARK   17  A    between atoms: C_29  and  O_30
REMARK                            x       y       z     vdW  Elec       q    Type
REMARK                         _______ _______ _______ _____ _____    ______ ____
ROOT
ATOM      1  N   UNL     1       0.215  11.825  21.716  0.00  0.00    +0.000 NA
ENDROOT
BRANCH   1   2
ATOM      2  C   UNL     1      -0.016  13.148  21.041  0.00  0.00    +0.000 C 
ATOM      3  O   UNL     1       0.450  13.155  19.677  0.00  0.00    +0.000 OA
ATOM      4  C   UNL     1       1.879  13.235  19.522  0.00  0.00    +0.000 C 
ATOM      5  C   UNL     1       2.468  14.476  20.196  0.00  0.00    +0.000 C 
ATOM      6  C   UNL     1       2.002  14.595  21.649  0.00  0.00    +0.000 C 
ATOM      7  C   UNL     1       0.482  14.438  21.741  0.00  0.00    +0.000 C 
BRANCH   7   8
ATOM      8  O   UNL     1       0.039  14.556  23.098  0.00  0.00    +0.000 OA
ATOM      9  H   UNL     1      -0.927  14.399  23.075  0.00  0.00    +0.000 HD
ENDBRANCH   7   8
BRANCH   6  10
ATOM     10  O   UNL     1       2.413  15.874  22.171  0.00  0.00    +0.000 OA
ATOM     11  H   UNL     1       2.021  16.573  21.617  0.00  0.00    +0.000 HD
ENDBRANCH   6  10
BRANCH   5  12
ATOM     12  O   UNL     1       3.896  14.451  20.098  0.00  0.00    +0.000 OA
ATOM     13  H   UNL     1       4.137  14.352  19.159  0.00  0.00    +0.000 HD
ENDBRANCH   5  12
BRANCH   4  14
ATOM     14  C   UNL     1       2.167  13.279  18.007  0.00  0.00    +0.000 C 
BRANCH  14  15
ATOM     15  O   UNL     1       2.674  12.024  17.555  0.00  0.00    +0.000 OA
ATOM     16  H   UNL     1       1.936  11.388  17.623  0.00  0.00    +0.000 HD
ENDBRANCH  14  15
ENDBRANCH   4  14
ENDBRANCH   1   2
BRANCH   1  18
ATOM     17  C   UNL     1      -1.832  11.593  22.946  0.00  0.00    +0.000 C 
ATOM     18  O   UNL     1      -0.433  11.915  23.031  0.00  0.00    +0.000 OA
ENDBRANCH   1  18
BRANCH   1  19
ATOM     19  C   UNL     1      -0.608  10.842  20.955  0.00  0.00    +0.000 C 
BRANCH  19  20
ATOM     20  C   UNL     1       0.153   9.814  20.098  0.00  0.00    +0.000 C 
BRANCH  20  21
ATOM     21  C   UNL     1       1.107   8.973  20.956  0.00  0.00    +0.000 C 
BRANCH  21  22
ATOM     22  C   UNL     1       1.669   7.763  20.254  0.00  0.00    +0.000 A 
ATOM     23  C   UNL     1       1.666   6.498  20.840  0.00  0.00    +0.000 A 
ATOM     24  C   UNL     1       2.267   5.417  20.200  0.00  0.00    +0.000 A 
ATOM     25  C   UNL     1       2.848   5.524  18.929  0.00  0.00    +0.000 A 
ATOM     26  C   UNL     1       2.794   6.799  18.334  0.00  0.00    +0.000 A 
ATOM     27  C   UNL     1       2.227   7.899  18.984  0.00  0.00    +0.000 A 
BRANCH  25  28
ATOM     28  N   UNL     1       3.449   4.439  18.308  0.00  0.00    +0.000 N 
BRANCH  28  29
ATOM     29  C   UNL     1       2.725   3.630  17.316  0.00  0.00    +0.000 C 
BRANCH  29  30
ATOM     30  C   UNL     1       2.331   2.259  17.881  0.00  0.00    +0.000 C 
ATOM     31 CL   UNL     1       0.770   2.360  18.739  0.00  0.00    +0.000 Cl
ENDBRANCH  29  30
ENDBRANCH  28  29
BRANCH  28  32
ATOM     32  C   UNL     1       4.774   3.952  18.743  0.00  0.00    +0.000 C 
BRANCH  32  33
ATOM     33  C   UNL     1       5.950   4.685  18.086  0.00  0.00    +0.000 C 
ATOM     34 CL   UNL     1       6.177   4.214  16.381  0.00  0.00    +0.000 Cl
ENDBRANCH  32  33
ENDBRANCH  28  32
ENDBRANCH  25  28
ENDBRANCH  21  22
ENDBRANCH  20  21
ENDBRANCH  19  20
ENDBRANCH   1  19
TORSDOF 16
ENDMDL
MODEL 9
REMARK VINA RESULT:      -6.1      2.469      3.942
REMARK  Name = 
REMARK  17 active torsions:
REMARK  status: ('A' for Active; 'I' for Inactive)
REMARK    1  A    between atoms: C_1  and  O_2
REMARK    2  A    between atoms: O_2  and  N_3
REMARK    3  A    between atoms: N_3  and  C_4
REMARK    4  A    between atoms: N_3  and  C_20
REMARK    5  A    between atoms: C_4  and  C_5
REMARK    6  A    between atoms: C_5  and  C_6
REMARK    7  A    between atoms: C_6  and  C_7
REMARK    8  A    between atoms: C_10  and  N_11
REMARK    9  A    between atoms: N_11  and  C_12
REMARK   10  A    between atoms: N_11  and  C_15
REMARK   11  A    between atoms: C_12  and  C_13
REMARK   12  A    between atoms: C_15  and  C_16
REMARK   13  A    between atoms: C_22  and  C_23
REMARK   14  A    between atoms: C_23  and  O_24
REMARK   15  A    between atoms: C_25  and  O_26
REMARK   16  A    between atoms: C_27  and  O_28
REMARK   17  A    between atoms: C_29  and  O_30
REMARK                            x       y       z     vdW  Elec       q    Type
REMARK                         _______ _______ _______ _____ _____    ______ ____
ROOT
ATOM      1  N   UNL     1       3.658   5.523  19.304  0.00  0.00    +0.000 NA
ENDROOT
BRANCH   1   2
ATOM      2  C   UNL     1       4.642   4.386  19.317  0.00  0.00    +0.000 C 
ATOM      3  O   UNL     1       5.953   4.802  19.746  0.00  0.00    +0.000 OA
ATOM      4  C   UNL     1       6.706   5.547  18.771  0.00  0.00    +0.000 C 
ATOM      5  C   UNL     1       6.894   4.770  17.466  0.00  0.00    +0.000 C 
ATOM      6  C   UNL     1       5.560   4.239  16.935  0.00  0.00    +0.000 C 
ATOM      7  C   UNL     1       4.791   3.515  18.044  0.00  0.00    +0.000 C 
BRANCH   7   8
ATOM      8  O   UNL     1       3.545   3.009  17.551  0.00  0.00    +0.000 OA
ATOM      9  H   UNL     1       3.682   2.861  16.593  0.00  0.00    +0.000 HD
ENDBRANCH   7   8
BRANCH   6  10
ATOM     10  O   UNL     1       5.815   3.351  15.829  0.00  0.00    +0.000 OA
ATOM     11  H   UNL     1       6.349   3.828  15.168  0.00  0.00    +0.000 HD
ENDBRANCH   6  10
BRANCH   5  12
ATOM     12  O   UNL     1       7.558   5.594  16.501  0.00  0.00    +0.000 OA
ATOM     13  H   UNL     1       7.591   5.111  15.656  0.00  0.00    +0.000 HD
ENDBRANCH   5  12
BRANCH   4  14
ATOM     14  C   UNL     1       8.081   5.853  19.398  0.00  0.00    +0.000 C 
BRANCH  14  15
ATOM     15  O   UNL     1       8.124   5.417  20.756  0.00  0.00    +0.000 OA
ATOM     16  H   UNL     1       7.205   5.197  21.004  0.00  0.00    +0.000 HD
ENDBRANCH  14  15
ENDBRANCH   4  14
ENDBRANCH   1   2
BRANCH   1  18
ATOM     17  C   UNL     1       3.718   6.982  17.400  0.00  0.00    +0.000 C 
ATOM     18  O   UNL     1       3.266   5.711  17.900  0.00  0.00    +0.000 OA
ENDBRANCH   1  18
BRANCH   1  19
ATOM     19  C   UNL     1       2.433   4.997  19.971  0.00  0.00    +0.000 C 
BRANCH  19  20
ATOM     20  C   UNL     1       1.436   6.037  20.511  0.00  0.00    +0.000 C 
BRANCH  20  21
ATOM     21  C   UNL     1       2.097   7.412  20.670  0.00  0.00    +0.000 C 
BRANCH  21  22
ATOM     22  C   UNL     1       1.275   8.561  20.144  0.00  0.00    +0.000 A 
ATOM     23  C   UNL     1       0.271   9.162  20.902  0.00  0.00    +0.000 A 
ATOM     24  C   UNL     1      -0.525  10.166  20.357  0.00  0.00    +0.000 A 
ATOM     25  C   UNL     1      -0.330  10.661  19.060  0.00  0.00    +0.000 A 
ATOM     26  C   UNL     1       0.722  10.074  18.331  0.00  0.00    +0.000 A 
ATOM     27  C   UNL     1       1.504   9.040  18.854  0.00  0.00    +0.000 A 
BRANCH  25  28
ATOM     28  N   UNL     1      -1.137  11.656  18.530  0.00  0.00    +0.000 N 
BRANCH  28  29
ATOM     29  C   UNL     1      -2.055  11.380  17.414  0.00  0.00    +0.000 C 
BRANCH  29  30
ATOM     30  C   UNL     1      -3.328  10.667  17.890  0.00  0.00    +0.000 C 
ATOM     31 CL   UNL     1      -4.605  11.852  18.272  0.00  0.00    +0.000 Cl
ENDBRANCH  29  30
ENDBRANCH  28  29
BRANCH  28  32
ATOM     32  C   UNL     1      -0.983  13.064  18.948  0.00  0.00    +0.000 C 
BRANCH  32  33
ATOM     33  C   UNL     1       0.350  13.362  19.644  0.00  0.00    +0.000 C 
ATOM     34 CL   UNL     1       1.592  13.956  18.510  0.00  0.00    +0.000 Cl
ENDBRANCH  32  33
ENDBRANCH  28  32
ENDBRANCH  25  28
ENDBRANCH  21  22
ENDBRANCH  20  21
ENDBRANCH  19  20
ENDBRANCH   1  19
TORSDOF 16
ENDMDL
