MODEL 1
REMARK VINA RESULT:      -6.2      0.000      0.000
REMARK  Name = 
REMARK  0 active torsions:
REMARK  status: ('A' for Active; 'I' for Inactive)
REMARK                            x       y       z     vdW  Elec       q    Type
REMARK                         _______ _______ _______ _____ _____    ______ ____
ROOT
ATOM      1  N   UNL     1       6.917   4.276  18.247  0.00  0.00    +0.000 N 
ATOM      2  C   UNL     1       5.595   4.276  18.484  0.00  0.00    +0.000 C 
ATOM      3  N   UNL     1       5.087   3.531  19.417  0.00  0.00    +0.000 NA
ATOM      4  C   UNL     1       3.686   3.512  19.546  0.00  0.00    +0.000 A 
ATOM      5  C   UNL     1       3.088   2.756  20.564  0.00  0.00    +0.000 A 
ATOM      6  F   UNL     1       3.845   2.079  21.441  0.00  0.00    +0.000 F 
ATOM      7  C   UNL     1       1.702   2.671  20.689  0.00  0.00    +0.000 A 
ATOM      8  C   UNL     1       0.882   3.350  19.791  0.00  0.00    +0.000 A 
ATOM      9  C   UNL     1       1.457   4.112  18.773  0.00  0.00    +0.000 A 
ATOM     10  C   UNL     1       2.856   4.202  18.651  0.00  0.00    +0.000 A 
ATOM     11  C   UNL     1       3.470   5.008  17.541  0.00  0.00    +0.000 C 
ATOM     12  N   UNL     1       4.907   5.092  17.655  0.00  0.00    +0.000 N 
ATOM     13  H   UNL     1       7.467   3.887  19.007  0.00  0.00    +0.000 HD
ATOM     14  H   UNL     1       7.346   5.055  17.765  0.00  0.00    +0.000 HD
ATOM     15  H   UNL     1       5.389   5.413  16.824  0.00  0.00    +0.000 HD
ENDROOT
TORSDOF 0
ENDMDL
MODEL 2
REMARK VINA RESULT:      -6.1      2.332      3.405
REMARK  Name = 
REMARK  0 active torsions:
REMARK  status: ('A' for Active; 'I' for Inactive)
REMARK                            x       y       z     vdW  Elec       q    Type
REMARK                         _______ _______ _______ _____ _____    ______ ____
ROOT
ATOM      1  N   UNL     1       4.852   2.119  19.823  0.00  0.00    +0.000 N 
ATOM      2  C   UNL     1       4.699   3.357  19.324  0.00  0.00    +0.000 C 
ATOM      3  N   UNL     1       3.707   4.105  19.697  0.00  0.00    +0.000 NA
ATOM      4  C   UNL     1       3.559   5.354  19.065  0.00  0.00    +0.000 A 
ATOM      5  C   UNL     1       2.529   6.220  19.459  0.00  0.00    +0.000 A 
ATOM      6  F   UNL     1       1.705   5.881  20.463  0.00  0.00    +0.000 F 
ATOM      7  C   UNL     1       2.319   7.441  18.819  0.00  0.00    +0.000 A 
ATOM      8  C   UNL     1       3.145   7.821  17.765  0.00  0.00    +0.000 A 
ATOM      9  C   UNL     1       4.180   6.976  17.360  0.00  0.00    +0.000 A 
ATOM     10  C   UNL     1       4.395   5.748  18.011  0.00  0.00    +0.000 A 
ATOM     11  C   UNL     1       5.497   4.833  17.557  0.00  0.00    +0.000 C 
ATOM     12  N   UNL     1       5.649   3.687  18.422  0.00  0.00    +0.000 N 
ATOM     13  H   UNL     1       4.321   1.954  20.673  0.00  0.00    +0.000 HD
ATOM     14  H   UNL     1       5.756   1.667  19.789  0.00  0.00    +0.000 HD
ATOM     15  H   UNL     1       6.204   2.929  18.043  0.00  0.00    +0.000 HD
ENDROOT
TORSDOF 0
ENDMDL
MODEL 3
REMARK VINA RESULT:      -6.1      1.943      2.446
REMARK  Name = 
REMARK  0 active torsions:
REMARK  status: ('A' for Active; 'I' for Inactive)
REMARK                            x       y       z     vdW  Elec       q    Type
REMARK                         _______ _______ _______ _____ _____    ______ ____
ROOT
ATOM      1  N   UNL     1       6.752   5.194  18.984  0.00  0.00    +0.000 N 
ATOM      2  C   UNL     1       5.553   4.629  19.199  0.00  0.00    +0.000 C 
ATOM      3  N   UNL     1       4.524   5.353  19.513  0.00  0.00    +0.000 NA
ATOM      4  C   UNL     1       3.323   4.684  19.814  0.00  0.00    +0.000 A 
ATOM      5  C   UNL     1       2.169   5.420  20.119  0.00  0.00    +0.000 A 
ATOM      6  F   UNL     1       2.193   6.761  20.090  0.00  0.00    +0.000 F 
ATOM      7  C   UNL     1       0.977   4.790  20.474  0.00  0.00    +0.000 A 
ATOM      8  C   UNL     1       0.916   3.400  20.528  0.00  0.00    +0.000 A 
ATOM      9  C   UNL     1       2.052   2.648  20.223  0.00  0.00    +0.000 A 
ATOM     10  C   UNL     1       3.253   3.284  19.858  0.00  0.00    +0.000 A 
ATOM     11  C   UNL     1       4.478   2.470  19.551  0.00  0.00    +0.000 C 
ATOM     12  N   UNL     1       5.570   3.283  19.071  0.00  0.00    +0.000 N 
ATOM     13  H   UNL     1       6.707   6.195  18.818  0.00  0.00    +0.000 HD
ATOM     14  H   UNL     1       7.456   4.704  18.447  0.00  0.00    +0.000 HD
ATOM     15  H   UNL     1       6.478   2.834  19.074  0.00  0.00    +0.000 HD
ENDROOT
TORSDOF 0
ENDMDL
MODEL 4
REMARK VINA RESULT:      -6.0      1.585      1.654
REMARK  Name = 
REMARK  0 active torsions:
REMARK  status: ('A' for Active; 'I' for Inactive)
REMARK                            x       y       z     vdW  Elec       q    Type
REMARK                         _______ _______ _______ _____ _____    ______ ____
ROOT
ATOM      1  N   UNL     1       6.604   5.173  19.261  0.00  0.00    +0.000 N 
ATOM      2  C   UNL     1       5.406   4.634  18.978  0.00  0.00    +0.000 C 
ATOM      3  N   UNL     1       4.411   4.759  19.801  0.00  0.00    +0.000 NA
ATOM      4  C   UNL     1       3.214   4.090  19.483  0.00  0.00    +0.000 A 
ATOM      5  C   UNL     1       2.094   4.226  20.315  0.00  0.00    +0.000 A 
ATOM      6  F   UNL     1       2.144   5.020  21.396  0.00  0.00    +0.000 F 
ATOM      7  C   UNL     1       0.910   3.535  20.061  0.00  0.00    +0.000 A 
ATOM      8  C   UNL     1       0.824   2.691  18.956  0.00  0.00    +0.000 A 
ATOM      9  C   UNL     1       1.925   2.546  18.111  0.00  0.00    +0.000 A 
ATOM     10  C   UNL     1       3.118   3.248  18.366  0.00  0.00    +0.000 A 
ATOM     11  C   UNL     1       4.307   3.072  17.464  0.00  0.00    +0.000 C 
ATOM     12  N   UNL     1       5.388   3.967  17.803  0.00  0.00    +0.000 N 
ATOM     13  H   UNL     1       6.570   5.882  19.988  0.00  0.00    +0.000 HD
ATOM     14  H   UNL     1       7.266   5.354  18.518  0.00  0.00    +0.000 HD
ATOM     15  H   UNL     1       6.285   3.736  17.393  0.00  0.00    +0.000 HD
ENDROOT
TORSDOF 0
ENDMDL
MODEL 5
REMARK VINA RESULT:      -6.0      2.113      2.661
REMARK  Name = 
REMARK  0 active torsions:
REMARK  status: ('A' for Active; 'I' for Inactive)
REMARK                            x       y       z     vdW  Elec       q    Type
REMARK                         _______ _______ _______ _____ _____    ______ ____
ROOT
ATOM      1  N   UNL     1       3.911   0.781  18.402  0.00  0.00    +0.000 N 
ATOM      2  C   UNL     1       3.737   2.108  18.526  0.00  0.00    +0.000 C 
ATOM      3  N   UNL     1       3.071   2.599  19.525  0.00  0.00    +0.000 NA
ATOM      4  C   UNL     1       2.851   3.989  19.541  0.00  0.00    +0.000 A 
ATOM      5  C   UNL     1       2.174   4.578  20.618  0.00  0.00    +0.000 A 
ATOM      6  F   UNL     1       1.766   3.829  21.654  0.00  0.00    +0.000 F 
ATOM      7  C   UNL     1       1.891   5.943  20.641  0.00  0.00    +0.000 A 
ATOM      8  C   UNL     1       2.287   6.751  19.579  0.00  0.00    +0.000 A 
ATOM      9  C   UNL     1       2.968   6.186  18.499  0.00  0.00    +0.000 A 
ATOM     10  C   UNL     1       3.258   4.809  18.479  0.00  0.00    +0.000 A 
ATOM     11  C   UNL     1       3.972   4.203  17.304  0.00  0.00    +0.000 C 
ATOM     12  N   UNL     1       4.299   2.813  17.520  0.00  0.00    +0.000 N 
ATOM     13  H   UNL     1       3.733   0.265  19.258  0.00  0.00    +0.000 HD
ATOM     14  H   UNL     1       4.665   0.419  17.834  0.00  0.00    +0.000 HD
ATOM     15  H   UNL     1       4.562   2.297  16.689  0.00  0.00    +0.000 HD
ENDROOT
TORSDOF 0
ENDMDL
MODEL 6
REMARK VINA RESULT:      -6.0      0.949      1.039
REMARK  Name = 
REMARK  0 active torsions:
REMARK  status: ('A' for Active; 'I' for Inactive)
REMARK                            x       y       z     vdW  Elec       q    Type
REMARK                         _______ _______ _______ _____ _____    ______ ____
ROOT
ATOM      1  N   UNL     1       7.465   5.094  18.803  0.00  0.00    +0.000 N 
ATOM      2  C   UNL     1       6.139   4.942  18.649  0.00  0.00    +0.000 C 
ATOM      3  N   UNL     1       5.495   4.025  19.303  0.00  0.00    +0.000 NA
ATOM      4  C   UNL     1       4.125   3.865  19.022  0.00  0.00    +0.000 A 
ATOM      5  C   UNL     1       3.372   2.917  19.730  0.00  0.00    +0.000 A 
ATOM      6  F   UNL     1       3.942   2.187  20.702  0.00  0.00    +0.000 F 
ATOM      7  C   UNL     1       2.027   2.693  19.442  0.00  0.00    +0.000 A 
ATOM      8  C   UNL     1       1.404   3.422  18.432  0.00  0.00    +0.000 A 
ATOM      9  C   UNL     1       2.134   4.375  17.718  0.00  0.00    +0.000 A 
ATOM     10  C   UNL     1       3.490   4.604  18.014  0.00  0.00    +0.000 A 
ATOM     11  C   UNL     1       4.277   5.616  17.229  0.00  0.00    +0.000 C 
ATOM     12  N   UNL     1       5.605   5.808  17.759  0.00  0.00    +0.000 N 
ATOM     13  H   UNL     1       7.832   4.646  19.638  0.00  0.00    +0.000 HD
ATOM     14  H   UNL     1       7.907   5.970  18.559  0.00  0.00    +0.000 HD
ATOM     15  H   UNL     1       6.251   6.289  17.144  0.00  0.00    +0.000 HD
ENDROOT
TORSDOF 0
ENDMDL
MODEL 7
REMARK VINA RESULT:      -5.9      2.760      3.305
REMARK  Name = 
REMARK  0 active torsions:
REMARK  status: ('A' for Active; 'I' for Inactive)
REMARK                            x       y       z     vdW  Elec       q    Type
REMARK                         _______ _______ _______ _____ _____    ______ ____
ROOT
ATOM      1  N   UNL     1       1.890   7.720  21.188  0.00  0.00    +0.000 N 
ATOM      2  C   UNL     1       1.955   6.716  20.298  0.00  0.00    +0.000 C 
ATOM      3  N   UNL     1       1.608   5.511  20.630  0.00  0.00    +0.000 NA
ATOM      4  C   UNL     1       1.790   4.494  19.675  0.00  0.00    +0.000 A 
ATOM      5  C   UNL     1       1.392   3.181  19.967  0.00  0.00    +0.000 A 
ATOM      6  F   UNL     1       0.805   2.895  21.139  0.00  0.00    +0.000 F 
ATOM      7  C   UNL     1       1.606   2.138  19.066  0.00  0.00    +0.000 A 
ATOM      8  C   UNL     1       2.224   2.394  17.845  0.00  0.00    +0.000 A 
ATOM      9  C   UNL     1       2.622   3.694  17.532  0.00  0.00    +0.000 A 
ATOM     10  C   UNL     1       2.401   4.747  18.439  0.00  0.00    +0.000 A 
ATOM     11  C   UNL     1       2.851   6.141  18.106  0.00  0.00    +0.000 C 
ATOM     12  N   UNL     1       2.423   7.105  19.091  0.00  0.00    +0.000 N 
ATOM     13  H   UNL     1       1.310   7.513  21.995  0.00  0.00    +0.000 HD
ATOM     14  H   UNL     1       1.851   8.679  20.868  0.00  0.00    +0.000 HD
ATOM     15  H   UNL     1       2.888   8.004  19.048  0.00  0.00    +0.000 HD
ENDROOT
TORSDOF 0
ENDMDL
MODEL 8
REMARK VINA RESULT:      -5.9      2.008      2.894
REMARK  Name = 
REMARK  0 active torsions:
REMARK  status: ('A' for Active; 'I' for Inactive)
REMARK                            x       y       z     vdW  Elec       q    Type
REMARK                         _______ _______ _______ _____ _____    ______ ____
ROOT
ATOM      1  N   UNL     1       8.361   5.657  19.972  0.00  0.00    +0.000 N 
ATOM      2  C   UNL     1       7.346   5.329  19.154  0.00  0.00    +0.000 C 
ATOM      3  N   UNL     1       6.139   5.203  19.612  0.00  0.00    +0.000 NA
ATOM      4  C   UNL     1       5.144   4.768  18.717  0.00  0.00    +0.000 A 
ATOM      5  C   UNL     1       3.815   4.656  19.148  0.00  0.00    +0.000 A 
ATOM      6  F   UNL     1       3.478   4.995  20.402  0.00  0.00    +0.000 F 
ATOM      7  C   UNL     1       2.813   4.177  18.305  0.00  0.00    +0.000 A 
ATOM      8  C   UNL     1       3.127   3.802  17.001  0.00  0.00    +0.000 A 
ATOM      9  C   UNL     1       4.443   3.911  16.549  0.00  0.00    +0.000 A 
ATOM     10  C   UNL     1       5.451   4.400  17.399  0.00  0.00    +0.000 A 
ATOM     11  C   UNL     1       6.871   4.496  16.914  0.00  0.00    +0.000 C 
ATOM     12  N   UNL     1       7.735   5.140  17.874  0.00  0.00    +0.000 N 
ATOM     13  H   UNL     1       8.059   6.051  20.857  0.00  0.00    +0.000 HD
ATOM     14  H   UNL     1       9.209   6.057  19.592  0.00  0.00    +0.000 HD
ATOM     15  H   UNL     1       8.728   5.023  17.709  0.00  0.00    +0.000 HD
ENDROOT
TORSDOF 0
ENDMDL
MODEL 9
REMARK VINA RESULT:      -5.9      1.473      1.494
REMARK  Name = 
REMARK  0 active torsions:
REMARK  status: ('A' for Active; 'I' for Inactive)
REMARK                            x       y       z     vdW  Elec       q    Type
REMARK                         _______ _______ _______ _____ _____    ______ ____
ROOT
ATOM      1  N   UNL     1       6.800   4.361  18.199  0.00  0.00    +0.000 N 
ATOM      2  C   UNL     1       5.554   4.305  18.699  0.00  0.00    +0.000 C 
ATOM      3  N   UNL     1       4.838   3.230  18.579  0.00  0.00    +0.000 NA
ATOM      4  C   UNL     1       3.511   3.276  19.045  0.00  0.00    +0.000 A 
ATOM      5  C   UNL     1       2.706   2.130  18.978  0.00  0.00    +0.000 A 
ATOM      6  F   UNL     1       3.205   0.977  18.506  0.00  0.00    +0.000 F 
ATOM      7  C   UNL     1       1.371   2.153  19.380  0.00  0.00    +0.000 A 
ATOM      8  C   UNL     1       0.814   3.334  19.863  0.00  0.00    +0.000 A 
ATOM      9  C   UNL     1       1.599   4.485  19.943  0.00  0.00    +0.000 A 
ATOM     10  C   UNL     1       2.947   4.459  19.543  0.00  0.00    +0.000 A 
ATOM     11  C   UNL     1       3.782   5.707  19.612  0.00  0.00    +0.000 C 
ATOM     12  N   UNL     1       5.166   5.458  19.288  0.00  0.00    +0.000 N 
ATOM     13  H   UNL     1       7.197   3.449  17.994  0.00  0.00    +0.000 HD
ATOM     14  H   UNL     1       7.457   5.044  18.550  0.00  0.00    +0.000 HD
ATOM     15  H   UNL     1       5.719   6.283  19.088  0.00  0.00    +0.000 HD
ENDROOT
TORSDOF 0
ENDMDL
