MODEL 1
REMARK VINA RESULT:      -7.4      0.000      0.000
REMARK  Name = 
REMARK  8 active torsions:
REMARK  status: ('A' for Active; 'I' for Inactive)
REMARK    1  A    between atoms: C_1  and  O_2
REMARK    2  A    between atoms: O_2  and  C_3
REMARK    3  A    between atoms: C_6  and  C_7
REMARK    4  A    between atoms: C_11  and  C_12
REMARK    5  A    between atoms: C_22  and  O_23
REMARK    6  A    between atoms: O_23  and  C_24
REMARK    7  A    between atoms: C_25  and  O_26
REMARK    8  A    between atoms: O_26  and  C_27
REMARK                            x       y       z     vdW  Elec       q    Type
REMARK                         _______ _______ _______ _____ _____    ______ ____
ROOT
ATOM      1  C   UNL     1       2.494   7.478  18.585  0.00  0.00    +0.000 A 
ATOM      2  C   UNL     1       2.154   8.593  17.905  0.00  0.00    +0.000 A 
ATOM      3  C   UNL     1       1.482   9.618  18.599  0.00  0.00    +0.000 A 
ATOM      4  N   UNL     1       0.958  10.777  18.266  0.00  0.00    +0.000 NA
ATOM      5  C   UNL     1       0.462  11.253  19.466  0.00  0.00    +0.000 A 
ATOM      6  N   UNL     1       0.628  10.428  20.516  0.00  0.00    +0.000 NA
ATOM      7  N   UNL     1       1.284   9.401  19.932  0.00  0.00    +0.000 N 
ATOM      8  C   UNL     1       1.640   8.214  20.596  0.00  0.00    +0.000 A 
ATOM      9  N   UNL     1       1.345   8.091  21.929  0.00  0.00    +0.000 N 
ATOM     10  N   UNL     1       2.212   7.246  19.927  0.00  0.00    +0.000 NA
ATOM     11  H   UNL     1       0.634   8.728  22.281  0.00  0.00    +0.000 HD
ATOM     12  H   UNL     1       1.293   7.138  22.265  0.00  0.00    +0.000 HD
ENDROOT
BRANCH   1  16
ATOM     13  C   UNL     1       4.726   4.434  16.568  0.00  0.00    +0.000 A 
ATOM     14  C   UNL     1       5.113   5.781  16.519  0.00  0.00    +0.000 A 
ATOM     15  C   UNL     1       4.363   6.757  17.162  0.00  0.00    +0.000 A 
ATOM     16  C   UNL     1       3.196   6.407  17.845  0.00  0.00    +0.000 A 
ATOM     17  C   UNL     1       2.741   5.065  17.837  0.00  0.00    +0.000 A 
ATOM     18  C   UNL     1       3.501   4.066  17.172  0.00  0.00    +0.000 A 
BRANCH  13  20
ATOM     19  C   UNL     1       6.235   3.879  14.822  0.00  0.00    +0.000 C 
ATOM     20  O   UNL     1       5.521   3.476  15.992  0.00  0.00    +0.000 OA
ENDBRANCH  13  20
BRANCH  17  21
ATOM     21  O   UNL     1       1.571   4.889  18.543  0.00  0.00    +0.000 OA
ATOM     22  C   UNL     1       1.562   4.146  19.751  0.00  0.00    +0.000 C 
ENDBRANCH  17  21
BRANCH  18  23
ATOM     23  O   UNL     1       2.974   2.802  17.193  0.00  0.00    +0.000 OA
ATOM     24  C   UNL     1       3.453   1.805  18.079  0.00  0.00    +0.000 C 
ENDBRANCH  18  23
ENDBRANCH   1  16
BRANCH   5  25
ATOM     25  C   UNL     1      -0.211  12.581  19.582  0.00  0.00    +0.000 A 
ATOM     26  C   UNL     1       0.170  13.737  18.923  0.00  0.00    +0.000 A 
ATOM     27  C   UNL     1      -0.728  14.756  19.326  0.00  0.00    +0.000 A 
ATOM     28  C   UNL     1      -1.597  14.166  20.211  0.00  0.00    +0.000 A 
ATOM     29  O   UNL     1      -1.305  12.849  20.362  0.00  0.00    +0.000 OA
ENDBRANCH   5  25
TORSDOF 5
ENDMDL
MODEL 2
REMARK VINA RESULT:      -7.3      2.313      8.515
REMARK  Name = 
REMARK  8 active torsions:
REMARK  status: ('A' for Active; 'I' for Inactive)
REMARK    1  A    between atoms: C_1  and  O_2
REMARK    2  A    between atoms: O_2  and  C_3
REMARK    3  A    between atoms: C_6  and  C_7
REMARK    4  A    between atoms: C_11  and  C_12
REMARK    5  A    between atoms: C_22  and  O_23
REMARK    6  A    between atoms: O_23  and  C_24
REMARK    7  A    between atoms: C_25  and  O_26
REMARK    8  A    between atoms: O_26  and  C_27
REMARK                            x       y       z     vdW  Elec       q    Type
REMARK                         _______ _______ _______ _____ _____    ______ ____
ROOT
ATOM      1  C   UNL     1       1.357   8.878  19.307  0.00  0.00    +0.000 A 
ATOM      2  C   UNL     1       2.070   8.891  18.162  0.00  0.00    +0.000 A 
ATOM      3  C   UNL     1       2.909   7.793  17.886  0.00  0.00    +0.000 A 
ATOM      4  N   UNL     1       3.768   7.496  16.936  0.00  0.00    +0.000 NA
ATOM      5  C   UNL     1       4.225   6.245  17.309  0.00  0.00    +0.000 A 
ATOM      6  N   UNL     1       3.712   5.771  18.458  0.00  0.00    +0.000 NA
ATOM      7  N   UNL     1       2.875   6.778  18.797  0.00  0.00    +0.000 N 
ATOM      8  C   UNL     1       2.127   6.814  19.987  0.00  0.00    +0.000 A 
ATOM      9  N   UNL     1       2.212   5.753  20.851  0.00  0.00    +0.000 N 
ATOM     10  N   UNL     1       1.397   7.865  20.259  0.00  0.00    +0.000 NA
ATOM     11  H   UNL     1       3.022   5.150  20.727  0.00  0.00    +0.000 HD
ATOM     12  H   UNL     1       1.958   5.964  21.807  0.00  0.00    +0.000 HD
ENDROOT
BRANCH   1  16
ATOM     13  C   UNL     1      -1.361  12.099  20.052  0.00  0.00    +0.000 A 
ATOM     14  C   UNL     1      -1.256  11.507  18.786  0.00  0.00    +0.000 A 
ATOM     15  C   UNL     1      -0.352  10.478  18.558  0.00  0.00    +0.000 A 
ATOM     16  C   UNL     1       0.482  10.037  19.588  0.00  0.00    +0.000 A 
ATOM     17  C   UNL     1       0.451  10.677  20.853  0.00  0.00    +0.000 A 
ATOM     18  C   UNL     1      -0.466  11.736  21.085  0.00  0.00    +0.000 A 
BRANCH  13  20
ATOM     19  C   UNL     1      -3.666  12.664  20.053  0.00  0.00    +0.000 C 
ATOM     20  O   UNL     1      -2.313  13.061  20.277  0.00  0.00    +0.000 OA
ENDBRANCH  13  20
BRANCH  17  21
ATOM     21  O   UNL     1       1.343  10.134  21.752  0.00  0.00    +0.000 OA
ATOM     22  C   UNL     1       0.880   9.397  22.872  0.00  0.00    +0.000 C 
ENDBRANCH  17  21
BRANCH  18  23
ATOM     23  O   UNL     1      -0.409  12.313  22.327  0.00  0.00    +0.000 OA
ATOM     24  C   UNL     1      -1.490  12.232  23.240  0.00  0.00    +0.000 C 
ENDBRANCH  18  23
ENDBRANCH   1  16
BRANCH   5  25
ATOM     25  C   UNL     1       5.219   5.483  16.494  0.00  0.00    +0.000 A 
ATOM     26  C   UNL     1       5.100   4.159  16.112  0.00  0.00    +0.000 A 
ATOM     27  C   UNL     1       6.262   3.839  15.368  0.00  0.00    +0.000 A 
ATOM     28  C   UNL     1       7.024   4.982  15.346  0.00  0.00    +0.000 A 
ATOM     29  O   UNL     1       6.398   5.986  16.010  0.00  0.00    +0.000 OA
ENDBRANCH   5  25
TORSDOF 5
ENDMDL
MODEL 3
REMARK VINA RESULT:      -7.3      2.457      8.448
REMARK  Name = 
REMARK  8 active torsions:
REMARK  status: ('A' for Active; 'I' for Inactive)
REMARK    1  A    between atoms: C_1  and  O_2
REMARK    2  A    between atoms: O_2  and  C_3
REMARK    3  A    between atoms: C_6  and  C_7
REMARK    4  A    between atoms: C_11  and  C_12
REMARK    5  A    between atoms: C_22  and  O_23
REMARK    6  A    between atoms: O_23  and  C_24
REMARK    7  A    between atoms: C_25  and  O_26
REMARK    8  A    between atoms: O_26  and  C_27
REMARK                            x       y       z     vdW  Elec       q    Type
REMARK                         _______ _______ _______ _____ _____    ______ ____
ROOT
ATOM      1  C   UNL     1       1.875   7.667  19.900  0.00  0.00    +0.000 A 
ATOM      2  C   UNL     1       2.598   8.038  18.823  0.00  0.00    +0.000 A 
ATOM      3  C   UNL     1       3.317   7.045  18.128  0.00  0.00    +0.000 A 
ATOM      4  N   UNL     1       4.149   7.041  17.111  0.00  0.00    +0.000 NA
ATOM      5  C   UNL     1       4.465   5.702  16.970  0.00  0.00    +0.000 A 
ATOM      6  N   UNL     1       3.892   4.885  17.872  0.00  0.00    +0.000 NA
ATOM      7  N   UNL     1       3.164   5.770  18.590  0.00  0.00    +0.000 N 
ATOM      8  C   UNL     1       2.412   5.431  19.729  0.00  0.00    +0.000 A 
ATOM      9  N   UNL     1       2.373   4.120  20.126  0.00  0.00    +0.000 N 
ATOM     10  N   UNL     1       1.796   6.371  20.399  0.00  0.00    +0.000 NA
ATOM     11  H   UNL     1       3.115   3.528  19.760  0.00  0.00    +0.000 HD
ATOM     12  H   UNL     1       2.133   3.979  21.099  0.00  0.00    +0.000 HD
ENDROOT
BRANCH   1  16
ATOM     13  C   UNL     1      -0.092  10.747  22.126  0.00  0.00    +0.000 A 
ATOM     14  C   UNL     1       0.447   9.618  22.757  0.00  0.00    +0.000 A 
ATOM     15  C   UNL     1       1.062   8.618  22.016  0.00  0.00    +0.000 A 
ATOM     16  C   UNL     1       1.127   8.718  20.624  0.00  0.00    +0.000 A 
ATOM     17  C   UNL     1       0.515   9.809  19.958  0.00  0.00    +0.000 A 
ATOM     18  C   UNL     1      -0.122  10.828  20.714  0.00  0.00    +0.000 A 
BRANCH  13  20
ATOM     19  C   UNL     1      -1.990  11.593  23.272  0.00  0.00    +0.000 C 
ATOM     20  O   UNL     1      -0.627  11.760  22.882  0.00  0.00    +0.000 OA
ENDBRANCH  13  20
BRANCH  17  21
ATOM     21  O   UNL     1       0.657   9.752  18.589  0.00  0.00    +0.000 OA
ATOM     22  C   UNL     1      -0.484   9.741  17.746  0.00  0.00    +0.000 C 
ENDBRANCH  17  21
BRANCH  18  23
ATOM     23  O   UNL     1      -0.709  11.832  19.989  0.00  0.00    +0.000 OA
ATOM     24  C   UNL     1      -0.023  13.033  19.682  0.00  0.00    +0.000 C 
ENDBRANCH  18  23
ENDBRANCH   1  16
BRANCH   5  25
ATOM     25  C   UNL     1       5.380   5.206  15.899  0.00  0.00    +0.000 A 
ATOM     26  C   UNL     1       5.156   4.100  15.098  0.00  0.00    +0.000 A 
ATOM     27  C   UNL     1       6.272   3.985  14.233  0.00  0.00    +0.000 A 
ATOM     28  C   UNL     1       7.115   5.019  14.563  0.00  0.00    +0.000 A 
ATOM     29  O   UNL     1       6.580   5.773  15.557  0.00  0.00    +0.000 OA
ENDBRANCH   5  25
TORSDOF 5
ENDMDL
MODEL 4
REMARK VINA RESULT:      -7.3      2.060      8.540
REMARK  Name = 
REMARK  8 active torsions:
REMARK  status: ('A' for Active; 'I' for Inactive)
REMARK    1  A    between atoms: C_1  and  O_2
REMARK    2  A    between atoms: O_2  and  C_3
REMARK    3  A    between atoms: C_6  and  C_7
REMARK    4  A    between atoms: C_11  and  C_12
REMARK    5  A    between atoms: C_22  and  O_23
REMARK    6  A    between atoms: O_23  and  C_24
REMARK    7  A    between atoms: C_25  and  O_26
REMARK    8  A    between atoms: O_26  and  C_27
REMARK                            x       y       z     vdW  Elec       q    Type
REMARK                         _______ _______ _______ _____ _____    ______ ____
ROOT
ATOM      1  C   UNL     1       1.164   9.643  19.374  0.00  0.00    +0.000 A 
ATOM      2  C   UNL     1       1.831   9.548  18.205  0.00  0.00    +0.000 A 
ATOM      3  C   UNL     1       2.579   8.380  17.956  0.00  0.00    +0.000 A 
ATOM      4  N   UNL     1       3.376   7.975  16.993  0.00  0.00    +0.000 NA
ATOM      5  C   UNL     1       3.758   6.714  17.413  0.00  0.00    +0.000 A 
ATOM      6  N   UNL     1       3.259   6.336  18.603  0.00  0.00    +0.000 NA
ATOM      7  N   UNL     1       2.509   7.416  18.919  0.00  0.00    +0.000 N 
ATOM      8  C   UNL     1       1.814   7.564  20.132  0.00  0.00    +0.000 A 
ATOM      9  N   UNL     1       1.858   6.544  21.046  0.00  0.00    +0.000 N 
ATOM     10  N   UNL     1       1.171   8.677  20.376  0.00  0.00    +0.000 NA
ATOM     11  H   UNL     1       2.618   5.879  20.924  0.00  0.00    +0.000 HD
ATOM     12  H   UNL     1       1.658   6.819  21.999  0.00  0.00    +0.000 HD
ENDROOT
BRANCH   1  16
ATOM     13  C   UNL     1      -0.916  13.331  19.993  0.00  0.00    +0.000 A 
ATOM     14  C   UNL     1       0.379  13.128  20.491  0.00  0.00    +0.000 A 
ATOM     15  C   UNL     1       1.029  11.916  20.299  0.00  0.00    +0.000 A 
ATOM     16  C   UNL     1       0.385  10.875  19.626  0.00  0.00    +0.000 A 
ATOM     17  C   UNL     1      -0.954  11.029  19.188  0.00  0.00    +0.000 A 
ATOM     18  C   UNL     1      -1.623  12.265  19.391  0.00  0.00    +0.000 A 
BRANCH  13  20
ATOM     19  C   UNL     1      -0.689  15.687  19.819  0.00  0.00    +0.000 C 
ATOM     20  O   UNL     1      -1.511  14.560  20.126  0.00  0.00    +0.000 OA
ENDBRANCH  13  20
BRANCH  17  21
ATOM     21  O   UNL     1      -1.447   9.908  18.556  0.00  0.00    +0.000 OA
ATOM     22  C   UNL     1      -1.790   9.948  17.181  0.00  0.00    +0.000 C 
ENDBRANCH  17  21
BRANCH  18  23
ATOM     23  O   UNL     1      -2.923  12.318  18.959  0.00  0.00    +0.000 OA
ATOM     24  C   UNL     1      -4.014  12.295  19.863  0.00  0.00    +0.000 C 
ENDBRANCH  18  23
ENDBRANCH   1  16
BRANCH   5  25
ATOM     25  C   UNL     1       4.664   5.844  16.604  0.00  0.00    +0.000 A 
ATOM     26  C   UNL     1       4.780   4.470  16.726  0.00  0.00    +0.000 A 
ATOM     27  C   UNL     1       5.751   4.054  15.782  0.00  0.00    +0.000 A 
ATOM     28  C   UNL     1       6.176   5.196  15.147  0.00  0.00    +0.000 A 
ATOM     29  O   UNL     1       5.516   6.281  15.624  0.00  0.00    +0.000 OA
ENDBRANCH   5  25
TORSDOF 5
ENDMDL
MODEL 5
REMARK VINA RESULT:      -7.3      2.260      8.495
REMARK  Name = 
REMARK  8 active torsions:
REMARK  status: ('A' for Active; 'I' for Inactive)
REMARK    1  A    between atoms: C_1  and  O_2
REMARK    2  A    between atoms: O_2  and  C_3
REMARK    3  A    between atoms: C_6  and  C_7
REMARK    4  A    between atoms: C_11  and  C_12
REMARK    5  A    between atoms: C_22  and  O_23
REMARK    6  A    between atoms: O_23  and  C_24
REMARK    7  A    between atoms: C_25  and  O_26
REMARK    8  A    between atoms: O_26  and  C_27
REMARK                            x       y       z     vdW  Elec       q    Type
REMARK                         _______ _______ _______ _____ _____    ______ ____
ROOT
ATOM      1  C   UNL     1       1.396   7.975  20.292  0.00  0.00    +0.000 A 
ATOM      2  C   UNL     1       2.073   8.243  19.156  0.00  0.00    +0.000 A 
ATOM      3  C   UNL     1       2.823   7.205  18.565  0.00  0.00    +0.000 A 
ATOM      4  N   UNL     1       3.629   7.115  17.531  0.00  0.00    +0.000 NA
ATOM      5  C   UNL     1       4.006   5.784  17.545  0.00  0.00    +0.000 A 
ATOM      6  N   UNL     1       3.495   5.059  18.557  0.00  0.00    +0.000 NA
ATOM      7  N   UNL     1       2.743   5.992  19.184  0.00  0.00    +0.000 N 
ATOM      8  C   UNL     1       2.037   5.761  20.377  0.00  0.00    +0.000 A 
ATOM      9  N   UNL     1       2.072   4.509  20.932  0.00  0.00    +0.000 N 
ATOM     10  N   UNL     1       1.393   6.748  20.947  0.00  0.00    +0.000 NA
ATOM     11  H   UNL     1       2.833   3.911  20.618  0.00  0.00    +0.000 HD
ATOM     12  H   UNL     1       1.864   4.478  21.922  0.00  0.00    +0.000 HD
ENDROOT
BRANCH   1  16
ATOM     13  C   UNL     1      -0.676  11.189  22.212  0.00  0.00    +0.000 A 
ATOM     14  C   UNL     1      -0.225  10.074  22.933  0.00  0.00    +0.000 A 
ATOM     15  C   UNL     1       0.426   9.030  22.288  0.00  0.00    +0.000 A 
ATOM     16  C   UNL     1       0.616   9.072  20.905  0.00  0.00    +0.000 A 
ATOM     17  C   UNL     1       0.095  10.149  20.145  0.00  0.00    +0.000 A 
ATOM     18  C   UNL     1      -0.579  11.213  20.802  0.00  0.00    +0.000 A 
BRANCH  13  20
ATOM     19  C   UNL     1      -2.595  12.051  23.311  0.00  0.00    +0.000 C 
ATOM     20  O   UNL     1      -1.248  12.244  22.878  0.00  0.00    +0.000 OA
ENDBRANCH  13  20
BRANCH  17  21
ATOM     21  O   UNL     1       0.355  10.033  18.797  0.00  0.00    +0.000 OA
ATOM     22  C   UNL     1      -0.706   9.886  17.868  0.00  0.00    +0.000 C 
ENDBRANCH  17  21
BRANCH  18  23
ATOM     23  O   UNL     1      -1.072  12.199  19.988  0.00  0.00    +0.000 OA
ATOM     24  C   UNL     1      -2.456  12.318  19.710  0.00  0.00    +0.000 C 
ENDBRANCH  18  23
ENDBRANCH   1  16
BRANCH   5  25
ATOM     25  C   UNL     1       4.917   5.202  16.515  0.00  0.00    +0.000 A 
ATOM     26  C   UNL     1       5.431   5.876  15.421  0.00  0.00    +0.000 A 
ATOM     27  C   UNL     1       6.231   4.952  14.706  0.00  0.00    +0.000 A 
ATOM     28  C   UNL     1       6.152   3.768  15.398  0.00  0.00    +0.000 A 
ATOM     29  O   UNL     1       5.374   3.910  16.501  0.00  0.00    +0.000 OA
ENDBRANCH   5  25
TORSDOF 5
ENDMDL
MODEL 6
REMARK VINA RESULT:      -7.2      2.197      3.423
REMARK  Name = 
REMARK  8 active torsions:
REMARK  status: ('A' for Active; 'I' for Inactive)
REMARK    1  A    between atoms: C_1  and  O_2
REMARK    2  A    between atoms: O_2  and  C_3
REMARK    3  A    between atoms: C_6  and  C_7
REMARK    4  A    between atoms: C_11  and  C_12
REMARK    5  A    between atoms: C_22  and  O_23
REMARK    6  A    between atoms: O_23  and  C_24
REMARK    7  A    between atoms: C_25  and  O_26
REMARK    8  A    between atoms: O_26  and  C_27
REMARK                            x       y       z     vdW  Elec       q    Type
REMARK                         _______ _______ _______ _____ _____    ______ ____
ROOT
ATOM      1  C   UNL     1       1.924   7.505  19.978  0.00  0.00    +0.000 A 
ATOM      2  C   UNL     1       1.445   7.887  21.180  0.00  0.00    +0.000 A 
ATOM      3  C   UNL     1       0.830   9.151  21.282  0.00  0.00    +0.000 A 
ATOM      4  N   UNL     1       0.322   9.861  22.265  0.00  0.00    +0.000 NA
ATOM      5  C   UNL     1      -0.111  11.010  21.629  0.00  0.00    +0.000 A 
ATOM      6  N   UNL     1       0.134  11.056  20.307  0.00  0.00    +0.000 NA
ATOM      7  N   UNL     1       0.729   9.856  20.118  0.00  0.00    +0.000 N 
ATOM      8  C   UNL     1       1.258   9.425  18.889  0.00  0.00    +0.000 A 
ATOM      9  N   UNL     1       1.138  10.244  17.796  0.00  0.00    +0.000 N 
ATOM     10  N   UNL     1       1.878   8.275  18.821  0.00  0.00    +0.000 NA
ATOM     11  H   UNL     1       0.944  11.221  18.000  0.00  0.00    +0.000 HD
ATOM     12  H   UNL     1       1.811  10.069  17.060  0.00  0.00    +0.000 HD
ENDROOT
BRANCH   1  16
ATOM     13  C   UNL     1       3.579   3.572  19.650  0.00  0.00    +0.000 A 
ATOM     14  C   UNL     1       2.542   3.858  20.550  0.00  0.00    +0.000 A 
ATOM     15  C   UNL     1       2.033   5.146  20.658  0.00  0.00    +0.000 A 
ATOM     16  C   UNL     1       2.570   6.178  19.884  0.00  0.00    +0.000 A 
ATOM     17  C   UNL     1       3.674   5.929  19.031  0.00  0.00    +0.000 A 
ATOM     18  C   UNL     1       4.202   4.615  18.926  0.00  0.00    +0.000 A 
BRANCH  13  20
ATOM     19  C   UNL     1       3.461   1.556  18.405  0.00  0.00    +0.000 C 
ATOM     20  O   UNL     1       4.016   2.280  19.503  0.00  0.00    +0.000 OA
ENDBRANCH  13  20
BRANCH  17  21
ATOM     21  O   UNL     1       4.092   7.052  18.351  0.00  0.00    +0.000 OA
ATOM     22  C   UNL     1       4.222   7.034  16.939  0.00  0.00    +0.000 C 
ENDBRANCH  17  21
BRANCH  18  23
ATOM     23  O   UNL     1       5.284   4.471  18.098  0.00  0.00    +0.000 OA
ATOM     24  C   UNL     1       6.601   4.773  18.526  0.00  0.00    +0.000 C 
ENDBRANCH  18  23
ENDBRANCH   1  16
BRANCH   5  25
ATOM     25  C   UNL     1      -0.795  12.119  22.361  0.00  0.00    +0.000 A 
ATOM     26  C   UNL     1      -2.160  12.236  22.550  0.00  0.00    +0.000 A 
ATOM     27  C   UNL     1      -2.374  13.431  23.281  0.00  0.00    +0.000 A 
ATOM     28  C   UNL     1      -1.129  13.976  23.487  0.00  0.00    +0.000 A 
ATOM     29  O   UNL     1      -0.166  13.185  22.950  0.00  0.00    +0.000 OA
ENDBRANCH   5  25
TORSDOF 5
ENDMDL
MODEL 7
REMARK VINA RESULT:      -7.0      2.020      2.670
REMARK  Name = 
REMARK  8 active torsions:
REMARK  status: ('A' for Active; 'I' for Inactive)
REMARK    1  A    between atoms: C_1  and  O_2
REMARK    2  A    between atoms: O_2  and  C_3
REMARK    3  A    between atoms: C_6  and  C_7
REMARK    4  A    between atoms: C_11  and  C_12
REMARK    5  A    between atoms: C_22  and  O_23
REMARK    6  A    between atoms: O_23  and  C_24
REMARK    7  A    between atoms: C_25  and  O_26
REMARK    8  A    between atoms: O_26  and  C_27
REMARK                            x       y       z     vdW  Elec       q    Type
REMARK                         _______ _______ _______ _____ _____    ______ ____
ROOT
ATOM      1  C   UNL     1       1.867   8.254  18.999  0.00  0.00    +0.000 A 
ATOM      2  C   UNL     1       1.837   8.649  20.288  0.00  0.00    +0.000 A 
ATOM      3  C   UNL     1       0.930   9.665  20.653  0.00  0.00    +0.000 A 
ATOM      4  N   UNL     1       0.672  10.326  21.760  0.00  0.00    +0.000 NA
ATOM      5  C   UNL     1      -0.352  11.177  21.383  0.00  0.00    +0.000 A 
ATOM      6  N   UNL     1      -0.714  11.093  20.091  0.00  0.00    +0.000 NA
ATOM      7  N   UNL     1       0.117  10.119  19.656  0.00  0.00    +0.000 N 
ATOM      8  C   UNL     1       0.195   9.689  18.320  0.00  0.00    +0.000 A 
ATOM      9  N   UNL     1      -0.643  10.255  17.395  0.00  0.00    +0.000 N 
ATOM     10  N   UNL     1       1.081   8.787  17.983  0.00  0.00    +0.000 NA
ATOM     11  H   UNL     1      -1.055  11.146  17.665  0.00  0.00    +0.000 HD
ATOM     12  H   UNL     1      -0.326  10.184  16.437  0.00  0.00    +0.000 HD
ENDROOT
BRANCH   1  16
ATOM     13  C   UNL     1       4.814   5.338  17.938  0.00  0.00    +0.000 A 
ATOM     14  C   UNL     1       4.632   6.504  17.181  0.00  0.00    +0.000 A 
ATOM     15  C   UNL     1       3.655   7.428  17.528  0.00  0.00    +0.000 A 
ATOM     16  C   UNL     1       2.825   7.190  18.627  0.00  0.00    +0.000 A 
ATOM     17  C   UNL     1       2.936   5.979  19.355  0.00  0.00    +0.000 A 
ATOM     18  C   UNL     1       3.928   5.029  18.996  0.00  0.00    +0.000 A 
BRANCH  13  20
ATOM     19  C   UNL     1       5.940   4.108  16.249  0.00  0.00    +0.000 C 
ATOM     20  O   UNL     1       5.834   4.476  17.625  0.00  0.00    +0.000 OA
ENDBRANCH  13  20
BRANCH  17  21
ATOM     21  O   UNL     1       2.038   5.893  20.397  0.00  0.00    +0.000 OA
ATOM     22  C   UNL     1       1.048   4.878  20.414  0.00  0.00    +0.000 C 
ENDBRANCH  17  21
BRANCH  18  23
ATOM     23  O   UNL     1       3.948   3.877  19.738  0.00  0.00    +0.000 OA
ATOM     24  C   UNL     1       3.584   2.624  19.185  0.00  0.00    +0.000 C 
ENDBRANCH  18  23
ENDBRANCH   1  16
BRANCH   5  25
ATOM     25  C   UNL     1      -0.998  12.121  22.344  0.00  0.00    +0.000 A 
ATOM     26  C   UNL     1      -2.262  11.975  22.888  0.00  0.00    +0.000 A 
ATOM     27  C   UNL     1      -2.479  13.093  23.731  0.00  0.00    +0.000 A 
ATOM     28  C   UNL     1      -1.341  13.858  23.645  0.00  0.00    +0.000 A 
ATOM     29  O   UNL     1      -0.434  13.274  22.822  0.00  0.00    +0.000 OA
ENDBRANCH   5  25
TORSDOF 5
ENDMDL
MODEL 8
REMARK VINA RESULT:      -7.0      2.173      8.855
REMARK  Name = 
REMARK  8 active torsions:
REMARK  status: ('A' for Active; 'I' for Inactive)
REMARK    1  A    between atoms: C_1  and  O_2
REMARK    2  A    between atoms: O_2  and  C_3
REMARK    3  A    between atoms: C_6  and  C_7
REMARK    4  A    between atoms: C_11  and  C_12
REMARK    5  A    between atoms: C_22  and  O_23
REMARK    6  A    between atoms: O_23  and  C_24
REMARK    7  A    between atoms: C_25  and  O_26
REMARK    8  A    between atoms: O_26  and  C_27
REMARK                            x       y       z     vdW  Elec       q    Type
REMARK                         _______ _______ _______ _____ _____    ______ ____
ROOT
ATOM      1  C   UNL     1       0.678   9.853  19.508  0.00  0.00    +0.000 A 
ATOM      2  C   UNL     1       1.321   9.748  18.326  0.00  0.00    +0.000 A 
ATOM      3  C   UNL     1       2.179   8.648  18.128  0.00  0.00    +0.000 A 
ATOM      4  N   UNL     1       2.989   8.263  17.168  0.00  0.00    +0.000 NA
ATOM      5  C   UNL     1       3.510   7.078  17.655  0.00  0.00    +0.000 A 
ATOM      6  N   UNL     1       3.083   6.731  18.883  0.00  0.00    +0.000 NA
ATOM      7  N   UNL     1       2.234   7.748  19.153  0.00  0.00    +0.000 N 
ATOM      8  C   UNL     1       1.558   7.906  20.375  0.00  0.00    +0.000 A 
ATOM      9  N   UNL     1       1.731   6.959  21.351  0.00  0.00    +0.000 N 
ATOM     10  N   UNL     1       0.810   8.962  20.568  0.00  0.00    +0.000 NA
ATOM     11  H   UNL     1       2.552   6.368  21.247  0.00  0.00    +0.000 HD
ATOM     12  H   UNL     1       1.528   7.276  22.290  0.00  0.00    +0.000 HD
ENDROOT
BRANCH   1  16
ATOM     13  C   UNL     1      -2.079  13.060  20.162  0.00  0.00    +0.000 A 
ATOM     14  C   UNL     1      -2.394  11.983  19.320  0.00  0.00    +0.000 A 
ATOM     15  C   UNL     1      -1.477  10.963  19.103  0.00  0.00    +0.000 A 
ATOM     16  C   UNL     1      -0.217  11.014  19.705  0.00  0.00    +0.000 A 
ATOM     17  C   UNL     1       0.153  12.133  20.492  0.00  0.00    +0.000 A 
ATOM     18  C   UNL     1      -0.780  13.181  20.708  0.00  0.00    +0.000 A 
BRANCH  13  20
ATOM     19  C   UNL     1      -4.002  13.676  21.409  0.00  0.00    +0.000 C 
ATOM     20  O   UNL     1      -3.025  14.017  20.424  0.00  0.00    +0.000 OA
ENDBRANCH  13  20
BRANCH  17  21
ATOM     21  O   UNL     1       1.429  12.035  21.000  0.00  0.00    +0.000 OA
ATOM     22  C   UNL     1       2.422  12.983  20.644  0.00  0.00    +0.000 C 
ENDBRANCH  17  21
BRANCH  18  23
ATOM     23  O   UNL     1      -0.330  14.235  21.459  0.00  0.00    +0.000 OA
ATOM     24  C   UNL     1      -0.547  14.305  22.857  0.00  0.00    +0.000 C 
ENDBRANCH  18  23
ENDBRANCH   1  16
BRANCH   5  25
ATOM     25  C   UNL     1       4.479   6.251  16.874  0.00  0.00    +0.000 A 
ATOM     26  C   UNL     1       4.760   4.915  17.098  0.00  0.00    +0.000 A 
ATOM     27  C   UNL     1       5.737   4.534  16.145  0.00  0.00    +0.000 A 
ATOM     28  C   UNL     1       6.001   5.660  15.403  0.00  0.00    +0.000 A 
ATOM     29  O   UNL     1       5.237   6.700  15.824  0.00  0.00    +0.000 OA
ENDBRANCH   5  25
TORSDOF 5
ENDMDL
MODEL 9
REMARK VINA RESULT:      -6.9      2.397      3.715
REMARK  Name = 
REMARK  8 active torsions:
REMARK  status: ('A' for Active; 'I' for Inactive)
REMARK    1  A    between atoms: C_1  and  O_2
REMARK    2  A    between atoms: O_2  and  C_3
REMARK    3  A    between atoms: C_6  and  C_7
REMARK    4  A    between atoms: C_11  and  C_12
REMARK    5  A    between atoms: C_22  and  O_23
REMARK    6  A    between atoms: O_23  and  C_24
REMARK    7  A    between atoms: C_25  and  O_26
REMARK    8  A    between atoms: O_26  and  C_27
REMARK                            x       y       z     vdW  Elec       q    Type
REMARK                         _______ _______ _______ _____ _____    ______ ____
ROOT
ATOM      1  C   UNL     1       3.929   5.911  17.582  0.00  0.00    +0.000 A 
ATOM      2  C   UNL     1       3.470   7.152  17.317  0.00  0.00    +0.000 A 
ATOM      3  C   UNL     1       2.681   7.794  18.292  0.00  0.00    +0.000 A 
ATOM      4  N   UNL     1       2.032   8.935  18.358  0.00  0.00    +0.000 NA
ATOM      5  C   UNL     1       1.477   8.906  19.625  0.00  0.00    +0.000 A 
ATOM      6  N   UNL     1       1.728   7.788  20.330  0.00  0.00    +0.000 NA
ATOM      7  N   UNL     1       2.500   7.104  19.456  0.00  0.00    +0.000 N 
ATOM      8  C   UNL     1       2.983   5.804  19.683  0.00  0.00    +0.000 A 
ATOM      9  N   UNL     1       2.695   5.192  20.875  0.00  0.00    +0.000 N 
ATOM     10  N   UNL     1       3.666   5.196  18.746  0.00  0.00    +0.000 NA
ATOM     11  H   UNL     1       1.914   5.588  21.393  0.00  0.00    +0.000 HD
ATOM     12  H   UNL     1       2.749   4.182  20.856  0.00  0.00    +0.000 HD
ENDROOT
BRANCH   1  16
ATOM     13  C   UNL     1       6.121   3.983  14.453  0.00  0.00    +0.000 A 
ATOM     14  C   UNL     1       4.971   3.403  15.007  0.00  0.00    +0.000 A 
ATOM     15  C   UNL     1       4.286   4.033  16.037  0.00  0.00    +0.000 A 
ATOM     16  C   UNL     1       4.753   5.246  16.550  0.00  0.00    +0.000 A 
ATOM     17  C   UNL     1       5.959   5.808  16.063  0.00  0.00    +0.000 A 
ATOM     18  C   UNL     1       6.667   5.161  15.016  0.00  0.00    +0.000 A 
BRANCH  13  20
ATOM     19  C   UNL     1       5.953   3.256  12.200  0.00  0.00    +0.000 C 
ATOM     20  O   UNL     1       6.740   3.383  13.385  0.00  0.00    +0.000 OA
ENDBRANCH  13  20
BRANCH  17  21
ATOM     21  O   UNL     1       6.289   6.995  16.681  0.00  0.00    +0.000 OA
ATOM     22  C   UNL     1       7.374   7.057  17.591  0.00  0.00    +0.000 C 
ENDBRANCH  17  21
BRANCH  18  23
ATOM     23  O   UNL     1       7.835   5.760  14.624  0.00  0.00    +0.000 OA
ATOM     24  C   UNL     1       8.208   5.855  13.261  0.00  0.00    +0.000 C 
ENDBRANCH  18  23
ENDBRANCH   1  16
BRANCH   5  25
ATOM     25  C   UNL     1       0.657  10.033  20.163  0.00  0.00    +0.000 A 
ATOM     26  C   UNL     1      -0.612  10.381  19.734  0.00  0.00    +0.000 A 
ATOM     27  C   UNL     1      -1.012  11.504  20.498  0.00  0.00    +0.000 A 
ATOM     28  C   UNL     1       0.038  11.781  21.341  0.00  0.00    +0.000 A 
ATOM     29  O   UNL     1       1.045  10.890  21.159  0.00  0.00    +0.000 OA
ENDBRANCH   5  25
TORSDOF 5
ENDMDL
