MODEL 1
REMARK VINA RESULT:      -8.6      0.000      0.000
REMARK  Name = 
REMARK  10 active torsions:
REMARK  status: ('A' for Active; 'I' for Inactive)
REMARK    1  A    between atoms: C_1  and  O_2
REMARK    2  A    between atoms: O_2  and  C_3
REMARK    3  A    between atoms: C_4  and  C_5
REMARK    4  A    between atoms: C_4  and  C_9
REMARK    5  A    between atoms: C_5  and  O_7
REMARK    6  A    between atoms: O_7  and  C_8
REMARK    7  A    between atoms: C_14  and  C_15
REMARK    8  A    between atoms: C_15  and  O_16
REMARK    9  A    between atoms: O_16  and  C_17
REMARK   10  A    between atoms: C_19  and  C_20
REMARK                            x       y       z     vdW  Elec       q    Type
REMARK                         _______ _______ _______ _____ _____    ______ ____
ROOT
ATOM      1  O   UNL     1       1.669   6.878  20.863  0.00  0.00    +0.000 OA
ENDROOT
BRANCH   1   2
ATOM      2  C   UNL     1       2.196   5.916  20.026  0.00  0.00    +0.000 A 
ATOM      3  C   UNL     1       1.613   4.674  20.027  0.00  0.00    +0.000 A 
ATOM      4  C   UNL     1       2.236   3.718  19.246  0.00  0.00    +0.000 A 
ATOM      5  N   UNL     1       3.388   3.986  18.576  0.00  0.00    +0.000 NA
ATOM      6  C   UNL     1       3.868   5.233  18.628  0.00  0.00    +0.000 A 
ATOM      7  N   UNL     1       5.080   5.528  18.082  0.00  0.00    +0.000 N 
ATOM      8  C   UNL     1       6.086   4.498  17.884  0.00  0.00    +0.000 C 
ATOM      9  C   UNL     1       7.469   5.178  17.968  0.00  0.00    +0.000 C 
ATOM     10  O   UNL     1       7.584   6.275  17.039  0.00  0.00    +0.000 OA
ATOM     11  C   UNL     1       6.576   7.267  17.317  0.00  0.00    +0.000 C 
ATOM     12  C   UNL     1       5.166   6.681  17.194  0.00  0.00    +0.000 C 
ATOM     13  N   UNL     1       3.272   6.216  19.300  0.00  0.00    +0.000 NA
BRANCH   4  14
ATOM     14  C   UNL     1       1.640   2.329  19.107  0.00  0.00    +0.000 C 
ATOM     15  F   UNL     1       1.470   1.692  20.303  0.00  0.00    +0.000 F 
ATOM     16  F   UNL     1       0.405   2.341  18.526  0.00  0.00    +0.000 F 
ATOM     17  F   UNL     1       2.402   1.487  18.353  0.00  0.00    +0.000 F 
ENDBRANCH   4  14
ENDBRANCH   1   2
BRANCH   1  18
ATOM     18  C   UNL     1       1.488   8.173  20.248  0.00  0.00    +0.000 C 
BRANCH  18  24
ATOM     19  C   UNL     1       0.137  10.337  20.466  0.00  0.00    +0.000 A 
ATOM     20  C   UNL     1      -0.627  11.237  21.239  0.00  0.00    +0.000 A 
ATOM     21  C   UNL     1      -0.854  11.000  22.589  0.00  0.00    +0.000 A 
ATOM     22  C   UNL     1      -0.319   9.862  23.188  0.00  0.00    +0.000 A 
ATOM     23  C   UNL     1       0.432   8.960  22.433  0.00  0.00    +0.000 A 
ATOM     24  C   UNL     1       0.679   9.177  21.065  0.00  0.00    +0.000 A 
BRANCH  19  26
ATOM     25  C   UNL     1      -0.693  10.515  18.163  0.00  0.00    +0.000 C 
ATOM     26  C   UNL     1       0.316  10.680  19.039  0.00  0.00    +0.000 C 
BRANCH  25  28
ATOM     27  C   UNL     1      -2.774   9.780  17.407  0.00  0.00    +0.000 C 
ATOM     28  O   UNL     1      -1.934  10.058  18.523  0.00  0.00    +0.000 OA
ENDBRANCH  25  28
BRANCH  26  29
ATOM     29  C   UNL     1       1.633  11.111  18.484  0.00  0.00    +0.000 C 
ATOM     30  O   UNL     1       2.266  10.493  17.641  0.00  0.00    +0.000 OA
BRANCH  29  31
ATOM     31  O   UNL     1       2.028  12.269  19.074  0.00  0.00    +0.000 OA
ATOM     32  C   UNL     1       1.754  13.449  18.321  0.00  0.00    +0.000 C 
ENDBRANCH  29  31
ENDBRANCH  26  29
ENDBRANCH  19  26
ENDBRANCH  18  24
ENDBRANCH   1  18
TORSDOF 8
ENDMDL
MODEL 2
REMARK VINA RESULT:      -8.5      0.783      1.101
REMARK  Name = 
REMARK  10 active torsions:
REMARK  status: ('A' for Active; 'I' for Inactive)
REMARK    1  A    between atoms: C_1  and  O_2
REMARK    2  A    between atoms: O_2  and  C_3
REMARK    3  A    between atoms: C_4  and  C_5
REMARK    4  A    between atoms: C_4  and  C_9
REMARK    5  A    between atoms: C_5  and  O_7
REMARK    6  A    between atoms: O_7  and  C_8
REMARK    7  A    between atoms: C_14  and  C_15
REMARK    8  A    between atoms: C_15  and  O_16
REMARK    9  A    between atoms: O_16  and  C_17
REMARK   10  A    between atoms: C_19  and  C_20
REMARK                            x       y       z     vdW  Elec       q    Type
REMARK                         _______ _______ _______ _____ _____    ______ ____
ROOT
ATOM      1  O   UNL     1       1.805   7.941  20.564  0.00  0.00    +0.000 OA
ENDROOT
BRANCH   1   2
ATOM      2  C   UNL     1       2.249   6.732  20.070  0.00  0.00    +0.000 A 
ATOM      3  C   UNL     1       1.612   5.592  20.494  0.00  0.00    +0.000 A 
ATOM      4  C   UNL     1       2.154   4.401  20.048  0.00  0.00    +0.000 A 
ATOM      5  N   UNL     1       3.282   4.372  19.290  0.00  0.00    +0.000 NA
ATOM      6  C   UNL     1       3.818   5.539  18.918  0.00  0.00    +0.000 A 
ATOM      7  N   UNL     1       5.015   5.572  18.267  0.00  0.00    +0.000 N 
ATOM      8  C   UNL     1       5.963   4.478  18.383  0.00  0.00    +0.000 C 
ATOM      9  C   UNL     1       7.377   5.068  18.197  0.00  0.00    +0.000 C 
ATOM     10  O   UNL     1       7.494   5.798  16.958  0.00  0.00    +0.000 OA
ATOM     11  C   UNL     1       6.546   6.881  16.930  0.00  0.00    +0.000 C 
ATOM     12  C   UNL     1       5.107   6.369  17.050  0.00  0.00    +0.000 C 
ATOM     13  N   UNL     1       3.299   6.718  19.251  0.00  0.00    +0.000 NA
BRANCH   4  14
ATOM     14  C   UNL     1       1.492   3.079  20.387  0.00  0.00    +0.000 C 
ATOM     15  F   UNL     1       0.303   2.889  19.742  0.00  0.00    +0.000 F 
ATOM     16  F   UNL     1       2.261   2.002  20.050  0.00  0.00    +0.000 F 
ATOM     17  F   UNL     1       1.211   2.939  21.713  0.00  0.00    +0.000 F 
ENDBRANCH   4  14
ENDBRANCH   1   2
BRANCH   1  18
ATOM     18  C   UNL     1       0.369   8.053  20.676  0.00  0.00    +0.000 C 
BRANCH  18  24
ATOM     19  C   UNL     1      -0.300  10.520  20.529  0.00  0.00    +0.000 A 
ATOM     20  C   UNL     1      -0.794  11.697  21.129  0.00  0.00    +0.000 A 
ATOM     21  C   UNL     1      -1.125  11.724  22.479  0.00  0.00    +0.000 A 
ATOM     22  C   UNL     1      -0.965  10.575  23.249  0.00  0.00    +0.000 A 
ATOM     23  C   UNL     1      -0.483   9.402  22.667  0.00  0.00    +0.000 A 
ATOM     24  C   UNL     1      -0.139   9.348  21.304  0.00  0.00    +0.000 A 
BRANCH  19  26
ATOM     25  C   UNL     1      -0.943  10.409  18.163  0.00  0.00    +0.000 C 
ATOM     26  C   UNL     1       0.018  10.597  19.088  0.00  0.00    +0.000 C 
BRANCH  25  28
ATOM     27  C   UNL     1      -3.033   9.752  17.362  0.00  0.00    +0.000 C 
ATOM     28  O   UNL     1      -2.254  10.168  18.480  0.00  0.00    +0.000 OA
ENDBRANCH  25  28
BRANCH  26  29
ATOM     29  C   UNL     1       1.415  10.771  18.590  0.00  0.00    +0.000 C 
ATOM     30  O   UNL     1       2.001   9.970  17.877  0.00  0.00    +0.000 OA
BRANCH  29  31
ATOM     31  O   UNL     1       1.937  11.929  19.069  0.00  0.00    +0.000 OA
ATOM     32  C   UNL     1       1.601  13.094  18.318  0.00  0.00    +0.000 C 
ENDBRANCH  29  31
ENDBRANCH  26  29
ENDBRANCH  19  26
ENDBRANCH  18  24
ENDBRANCH   1  18
TORSDOF 8
ENDMDL
MODEL 3
REMARK VINA RESULT:      -8.5      0.911      2.140
REMARK  Name = 
REMARK  10 active torsions:
REMARK  status: ('A' for Active; 'I' for Inactive)
REMARK    1  A    between atoms: C_1  and  O_2
REMARK    2  A    between atoms: O_2  and  C_3
REMARK    3  A    between atoms: C_4  and  C_5
REMARK    4  A    between atoms: C_4  and  C_9
REMARK    5  A    between atoms: C_5  and  O_7
REMARK    6  A    between atoms: O_7  and  C_8
REMARK    7  A    between atoms: C_14  and  C_15
REMARK    8  A    between atoms: C_15  and  O_16
REMARK    9  A    between atoms: O_16  and  C_17
REMARK   10  A    between atoms: C_19  and  C_20
REMARK                            x       y       z     vdW  Elec       q    Type
REMARK                         _______ _______ _______ _____ _____    ______ ____
ROOT
ATOM      1  O   UNL     1       1.786   7.534  21.029  0.00  0.00    +0.000 OA
ENDROOT
BRANCH   1   2
ATOM      2  C   UNL     1       2.169   6.432  20.293  0.00  0.00    +0.000 A 
ATOM      3  C   UNL     1       1.500   5.253  20.505  0.00  0.00    +0.000 A 
ATOM      4  C   UNL     1       1.984   4.157  19.816  0.00  0.00    +0.000 A 
ATOM      5  N   UNL     1       3.091   4.241  19.032  0.00  0.00    +0.000 NA
ATOM      6  C   UNL     1       3.662   5.439  18.879  0.00  0.00    +0.000 A 
ATOM      7  N   UNL     1       4.842   5.560  18.209  0.00  0.00    +0.000 N 
ATOM      8  C   UNL     1       5.750   4.434  18.077  0.00  0.00    +0.000 C 
ATOM      9  C   UNL     1       7.180   5.003  17.964  0.00  0.00    +0.000 C 
ATOM     10  O   UNL     1       7.295   5.958  16.890  0.00  0.00    +0.000 OA
ATOM     11  C   UNL     1       6.388   7.057  17.106  0.00  0.00    +0.000 C 
ATOM     12  C   UNL     1       4.934   6.578  17.169  0.00  0.00    +0.000 C 
ATOM     13  N   UNL     1       3.198   6.546  19.454  0.00  0.00    +0.000 NA
BRANCH   4  14
ATOM     14  C   UNL     1       1.280   2.816  19.910  0.00  0.00    +0.000 C 
ATOM     15  F   UNL     1       0.942   2.472  21.189  0.00  0.00    +0.000 F 
ATOM     16  F   UNL     1       0.111   2.783  19.207  0.00  0.00    +0.000 F 
ATOM     17  F   UNL     1       2.029   1.778  19.442  0.00  0.00    +0.000 F 
ENDBRANCH   4  14
ENDBRANCH   1   2
BRANCH   1  18
ATOM     18  C   UNL     1       1.049   8.527  20.283  0.00  0.00    +0.000 C 
BRANCH  18  24
ATOM     19  C   UNL     1      -0.281  10.699  20.559  0.00  0.00    +0.000 A 
ATOM     20  C   UNL     1      -1.044  11.580  21.354  0.00  0.00    +0.000 A 
ATOM     21  C   UNL     1      -1.291  11.299  22.692  0.00  0.00    +0.000 A 
ATOM     22  C   UNL     1      -0.776  10.135  23.258  0.00  0.00    +0.000 A 
ATOM     23  C   UNL     1      -0.026   9.251  22.481  0.00  0.00    +0.000 A 
ATOM     24  C   UNL     1       0.241   9.512  21.124  0.00  0.00    +0.000 A 
BRANCH  19  26
ATOM     25  C   UNL     1       0.956  11.874  18.794  0.00  0.00    +0.000 C 
ATOM     26  C   UNL     1      -0.080  11.089  19.148  0.00  0.00    +0.000 C 
BRANCH  25  28
ATOM     27  C   UNL     1       1.856  13.747  19.854  0.00  0.00    +0.000 C 
ATOM     28  O   UNL     1       1.889  12.333  19.687  0.00  0.00    +0.000 OA
ENDBRANCH  25  28
BRANCH  26  29
ATOM     29  C   UNL     1      -1.059  10.733  18.078  0.00  0.00    +0.000 C 
ATOM     30  O   UNL     1      -1.045   9.688  17.445  0.00  0.00    +0.000 OA
BRANCH  29  31
ATOM     31  O   UNL     1      -1.940  11.751  17.899  0.00  0.00    +0.000 OA
ATOM     32  C   UNL     1      -3.232  11.352  17.445  0.00  0.00    +0.000 C 
ENDBRANCH  29  31
ENDBRANCH  26  29
ENDBRANCH  19  26
ENDBRANCH  18  24
ENDBRANCH   1  18
TORSDOF 8
ENDMDL
MODEL 4
REMARK VINA RESULT:      -8.4      1.851      3.709
REMARK  Name = 
REMARK  10 active torsions:
REMARK  status: ('A' for Active; 'I' for Inactive)
REMARK    1  A    between atoms: C_1  and  O_2
REMARK    2  A    between atoms: O_2  and  C_3
REMARK    3  A    between atoms: C_4  and  C_5
REMARK    4  A    between atoms: C_4  and  C_9
REMARK    5  A    between atoms: C_5  and  O_7
REMARK    6  A    between atoms: O_7  and  C_8
REMARK    7  A    between atoms: C_14  and  C_15
REMARK    8  A    between atoms: C_15  and  O_16
REMARK    9  A    between atoms: O_16  and  C_17
REMARK   10  A    between atoms: C_19  and  C_20
REMARK                            x       y       z     vdW  Elec       q    Type
REMARK                         _______ _______ _______ _____ _____    ______ ____
ROOT
ATOM      1  O   UNL     1       2.552   9.115  17.543  0.00  0.00    +0.000 OA
ENDROOT
BRANCH   1   2
ATOM      2  C   UNL     1       2.824   7.828  17.961  0.00  0.00    +0.000 A 
ATOM      3  C   UNL     1       2.087   7.322  19.002  0.00  0.00    +0.000 A 
ATOM      4  C   UNL     1       2.461   6.068  19.447  0.00  0.00    +0.000 A 
ATOM      5  N   UNL     1       3.532   5.416  18.921  0.00  0.00    +0.000 NA
ATOM      6  C   UNL     1       4.175   5.989  17.900  0.00  0.00    +0.000 A 
ATOM      7  N   UNL     1       5.327   5.444  17.417  0.00  0.00    +0.000 N 
ATOM      8  C   UNL     1       6.149   4.574  18.240  0.00  0.00    +0.000 C 
ATOM      9  C   UNL     1       7.608   4.722  17.759  0.00  0.00    +0.000 C 
ATOM     10  O   UNL     1       7.735   4.460  16.346  0.00  0.00    +0.000 OA
ATOM     11  C   UNL     1       6.917   5.378  15.596  0.00  0.00    +0.000 C 
ATOM     12  C   UNL     1       5.439   5.250  15.977  0.00  0.00    +0.000 C 
ATOM     13  N   UNL     1       3.816   7.159  17.376  0.00  0.00    +0.000 NA
BRANCH   4  14
ATOM     14  C   UNL     1       1.672   5.371  20.540  0.00  0.00    +0.000 C 
ATOM     15  F   UNL     1       0.887   4.355  20.076  0.00  0.00    +0.000 F 
ATOM     16  F   UNL     1       2.473   4.804  21.489  0.00  0.00    +0.000 F 
ATOM     17  F   UNL     1       0.827   6.204  21.211  0.00  0.00    +0.000 F 
ENDBRANCH   4  14
ENDBRANCH   1   2
BRANCH   1  18
ATOM     18  C   UNL     1       1.432   9.738  18.210  0.00  0.00    +0.000 C 
BRANCH  18  24
ATOM     19  C   UNL     1       0.615  11.941  19.228  0.00  0.00    +0.000 A 
ATOM     20  C   UNL     1       0.777  13.323  19.459  0.00  0.00    +0.000 A 
ATOM     21  C   UNL     1       1.866  14.009  18.935  0.00  0.00    +0.000 A 
ATOM     22  C   UNL     1       2.807  13.325  18.169  0.00  0.00    +0.000 A 
ATOM     23  C   UNL     1       2.662  11.956  17.938  0.00  0.00    +0.000 A 
ATOM     24  C   UNL     1       1.568  11.238  18.456  0.00  0.00    +0.000 A 
BRANCH  19  26
ATOM     25  C   UNL     1      -0.495  10.706  21.036  0.00  0.00    +0.000 C 
ATOM     26  C   UNL     1      -0.575  11.306  19.833  0.00  0.00    +0.000 C 
BRANCH  25  28
ATOM     27  C   UNL     1       1.096   9.342  22.062  0.00  0.00    +0.000 C 
ATOM     28  O   UNL     1       0.655  10.668  21.781  0.00  0.00    +0.000 OA
ENDBRANCH  25  28
BRANCH  26  29
ATOM     29  C   UNL     1      -1.875  11.197  19.106  0.00  0.00    +0.000 C 
ATOM     30  O   UNL     1      -2.767  12.032  19.152  0.00  0.00    +0.000 OA
BRANCH  29  31
ATOM     31  O   UNL     1      -1.923  10.030  18.414  0.00  0.00    +0.000 OA
ATOM     32  C   UNL     1      -2.997   9.930  17.481  0.00  0.00    +0.000 C 
ENDBRANCH  29  31
ENDBRANCH  26  29
ENDBRANCH  19  26
ENDBRANCH  18  24
ENDBRANCH   1  18
TORSDOF 8
ENDMDL
MODEL 5
REMARK VINA RESULT:      -8.4      1.981      3.429
REMARK  Name = 
REMARK  10 active torsions:
REMARK  status: ('A' for Active; 'I' for Inactive)
REMARK    1  A    between atoms: C_1  and  O_2
REMARK    2  A    between atoms: O_2  and  C_3
REMARK    3  A    between atoms: C_4  and  C_5
REMARK    4  A    between atoms: C_4  and  C_9
REMARK    5  A    between atoms: C_5  and  O_7
REMARK    6  A    between atoms: O_7  and  C_8
REMARK    7  A    between atoms: C_14  and  C_15
REMARK    8  A    between atoms: C_15  and  O_16
REMARK    9  A    between atoms: O_16  and  C_17
REMARK   10  A    between atoms: C_19  and  C_20
REMARK                            x       y       z     vdW  Elec       q    Type
REMARK                         _______ _______ _______ _____ _____    ______ ____
ROOT
ATOM      1  O   UNL     1       2.590   9.123  17.446  0.00  0.00    +0.000 OA
ENDROOT
BRANCH   1   2
ATOM      2  C   UNL     1       2.854   7.846  17.898  0.00  0.00    +0.000 A 
ATOM      3  C   UNL     1       2.115   7.372  18.953  0.00  0.00    +0.000 A 
ATOM      4  C   UNL     1       2.483   6.128  19.431  0.00  0.00    +0.000 A 
ATOM      5  N   UNL     1       3.549   5.457  18.922  0.00  0.00    +0.000 NA
ATOM      6  C   UNL     1       4.195   5.999  17.885  0.00  0.00    +0.000 A 
ATOM      7  N   UNL     1       5.343   5.435  17.416  0.00  0.00    +0.000 N 
ATOM      8  C   UNL     1       6.161   4.583  18.262  0.00  0.00    +0.000 C 
ATOM      9  C   UNL     1       7.620   4.709  17.775  0.00  0.00    +0.000 C 
ATOM     10  O   UNL     1       7.745   4.408  16.370  0.00  0.00    +0.000 OA
ATOM     11  C   UNL     1       6.931   5.311  15.597  0.00  0.00    +0.000 C 
ATOM     12  C   UNL     1       5.452   5.201  15.981  0.00  0.00    +0.000 C 
ATOM     13  N   UNL     1       3.842   7.156  17.331  0.00  0.00    +0.000 NA
BRANCH   4  14
ATOM     14  C   UNL     1       1.692   5.466  20.543  0.00  0.00    +0.000 C 
ATOM     15  F   UNL     1       0.871   4.467  20.101  0.00  0.00    +0.000 F 
ATOM     16  F   UNL     1       2.490   4.886  21.486  0.00  0.00    +0.000 F 
ATOM     17  F   UNL     1       0.881   6.329  21.218  0.00  0.00    +0.000 F 
ENDBRANCH   4  14
ENDBRANCH   1   2
BRANCH   1  18
ATOM     18  C   UNL     1       1.434   9.745  18.051  0.00  0.00    +0.000 C 
BRANCH  18  24
ATOM     19  C   UNL     1       0.730  11.832  19.359  0.00  0.00    +0.000 A 
ATOM     20  C   UNL     1       0.930  13.180  19.722  0.00  0.00    +0.000 A 
ATOM     21  C   UNL     1       1.985  13.912  19.191  0.00  0.00    +0.000 A 
ATOM     22  C   UNL     1       2.854  13.308  18.285  0.00  0.00    +0.000 A 
ATOM     23  C   UNL     1       2.672  11.973  17.922  0.00  0.00    +0.000 A 
ATOM     24  C   UNL     1       1.611  11.210  18.444  0.00  0.00    +0.000 A 
BRANCH  19  26
ATOM     25  C   UNL     1      -1.655  11.261  19.463  0.00  0.00    +0.000 C 
ATOM     26  C   UNL     1      -0.419  11.143  19.984  0.00  0.00    +0.000 C 
BRANCH  25  28
ATOM     27  C   UNL     1      -2.792  11.302  17.427  0.00  0.00    +0.000 C 
ATOM     28  O   UNL     1      -1.927  11.983  18.331  0.00  0.00    +0.000 OA
ENDBRANCH  25  28
BRANCH  26  29
ATOM     29  C   UNL     1      -0.291  10.387  21.266  0.00  0.00    +0.000 C 
ATOM     30  O   UNL     1      -0.322   9.169  21.358  0.00  0.00    +0.000 OA
BRANCH  29  31
ATOM     31  O   UNL     1      -0.163  11.253  22.304  0.00  0.00    +0.000 OA
ATOM     32  C   UNL     1      -1.343  11.433  23.083  0.00  0.00    +0.000 C 
ENDBRANCH  29  31
ENDBRANCH  26  29
ENDBRANCH  19  26
ENDBRANCH  18  24
ENDBRANCH   1  18
TORSDOF 8
ENDMDL
MODEL 6
REMARK VINA RESULT:      -8.3      1.939      3.373
REMARK  Name = 
REMARK  10 active torsions:
REMARK  status: ('A' for Active; 'I' for Inactive)
REMARK    1  A    between atoms: C_1  and  O_2
REMARK    2  A    between atoms: O_2  and  C_3
REMARK    3  A    between atoms: C_4  and  C_5
REMARK    4  A    between atoms: C_4  and  C_9
REMARK    5  A    between atoms: C_5  and  O_7
REMARK    6  A    between atoms: O_7  and  C_8
REMARK    7  A    between atoms: C_14  and  C_15
REMARK    8  A    between atoms: C_15  and  O_16
REMARK    9  A    between atoms: O_16  and  C_17
REMARK   10  A    between atoms: C_19  and  C_20
REMARK                            x       y       z     vdW  Elec       q    Type
REMARK                         _______ _______ _______ _____ _____    ______ ____
ROOT
ATOM      1  O   UNL     1       2.612   9.130  17.497  0.00  0.00    +0.000 OA
ENDROOT
BRANCH   1   2
ATOM      2  C   UNL     1       2.870   7.842  17.920  0.00  0.00    +0.000 A 
ATOM      3  C   UNL     1       2.118   7.342  18.954  0.00  0.00    +0.000 A 
ATOM      4  C   UNL     1       2.479   6.087  19.405  0.00  0.00    +0.000 A 
ATOM      5  N   UNL     1       3.552   5.428  18.894  0.00  0.00    +0.000 NA
ATOM      6  C   UNL     1       4.212   5.995  17.879  0.00  0.00    +0.000 A 
ATOM      7  N   UNL     1       5.366   5.442  17.411  0.00  0.00    +0.000 N 
ATOM      8  C   UNL     1       6.172   4.569  18.246  0.00  0.00    +0.000 C 
ATOM      9  C   UNL     1       7.638   4.707  17.781  0.00  0.00    +0.000 C 
ATOM     10  O   UNL     1       7.780   4.441  16.371  0.00  0.00    +0.000 OA
ATOM     11  C   UNL     1       6.976   5.363  15.609  0.00  0.00    +0.000 C 
ATOM     12  C   UNL     1       5.493   5.244  15.972  0.00  0.00    +0.000 C 
ATOM     13  N   UNL     1       3.865   7.166  17.349  0.00  0.00    +0.000 NA
BRANCH   4  14
ATOM     14  C   UNL     1       1.674   5.398  20.491  0.00  0.00    +0.000 C 
ATOM     15  F   UNL     1       2.449   4.863  21.481  0.00  0.00    +0.000 F 
ATOM     16  F   UNL     1       0.811   6.243  21.126  0.00  0.00    +0.000 F 
ATOM     17  F   UNL     1       0.915   4.365  20.028  0.00  0.00    +0.000 F 
ENDBRANCH   4  14
ENDBRANCH   1   2
BRANCH   1  18
ATOM     18  C   UNL     1       1.449   9.737  18.102  0.00  0.00    +0.000 C 
BRANCH  18  24
ATOM     19  C   UNL     1       0.630  11.878  19.245  0.00  0.00    +0.000 A 
ATOM     20  C   UNL     1       0.791  13.246  19.551  0.00  0.00    +0.000 A 
ATOM     21  C   UNL     1       1.875  13.963  19.062  0.00  0.00    +0.000 A 
ATOM     22  C   UNL     1       2.814  13.325  18.255  0.00  0.00    +0.000 A 
ATOM     23  C   UNL     1       2.672  11.971  17.949  0.00  0.00    +0.000 A 
ATOM     24  C   UNL     1       1.582  11.222  18.430  0.00  0.00    +0.000 A 
BRANCH  19  26
ATOM     25  C   UNL     1      -1.682  11.069  19.094  0.00  0.00    +0.000 C 
ATOM     26  C   UNL     1      -0.555  11.207  19.818  0.00  0.00    +0.000 C 
BRANCH  25  28
ATOM     27  C   UNL     1      -2.444  10.556  16.950  0.00  0.00    +0.000 C 
ATOM     28  O   UNL     1      -1.800  11.501  17.799  0.00  0.00    +0.000 OA
ENDBRANCH  25  28
BRANCH  26  29
ATOM     29  C   UNL     1      -0.603  10.757  21.242  0.00  0.00    +0.000 C 
ATOM     30  O   UNL     1      -0.970  11.453  22.177  0.00  0.00    +0.000 OA
BRANCH  29  31
ATOM     31  O   UNL     1      -0.155   9.479  21.339  0.00  0.00    +0.000 OA
ATOM     32  C   UNL     1       1.133   9.338  21.934  0.00  0.00    +0.000 C 
ENDBRANCH  29  31
ENDBRANCH  26  29
ENDBRANCH  19  26
ENDBRANCH  18  24
ENDBRANCH   1  18
TORSDOF 8
ENDMDL
MODEL 7
REMARK VINA RESULT:      -8.2      1.950      3.531
REMARK  Name = 
REMARK  10 active torsions:
REMARK  status: ('A' for Active; 'I' for Inactive)
REMARK    1  A    between atoms: C_1  and  O_2
REMARK    2  A    between atoms: O_2  and  C_3
REMARK    3  A    between atoms: C_4  and  C_5
REMARK    4  A    between atoms: C_4  and  C_9
REMARK    5  A    between atoms: C_5  and  O_7
REMARK    6  A    between atoms: O_7  and  C_8
REMARK    7  A    between atoms: C_14  and  C_15
REMARK    8  A    between atoms: C_15  and  O_16
REMARK    9  A    between atoms: O_16  and  C_17
REMARK   10  A    between atoms: C_19  and  C_20
REMARK                            x       y       z     vdW  Elec       q    Type
REMARK                         _______ _______ _______ _____ _____    ______ ____
ROOT
ATOM      1  O   UNL     1       2.354   8.909  17.497  0.00  0.00    +0.000 OA
ENDROOT
BRANCH   1   2
ATOM      2  C   UNL     1       2.690   7.642  17.928  0.00  0.00    +0.000 A 
ATOM      3  C   UNL     1       1.984   7.113  18.980  0.00  0.00    +0.000 A 
ATOM      4  C   UNL     1       2.420   5.884  19.437  0.00  0.00    +0.000 A 
ATOM      5  N   UNL     1       3.518   5.278  18.913  0.00  0.00    +0.000 NA
ATOM      6  C   UNL     1       4.128   5.870  17.881  0.00  0.00    +0.000 A 
ATOM      7  N   UNL     1       5.302   5.375  17.398  0.00  0.00    +0.000 N 
ATOM      8  C   UNL     1       6.169   4.556  18.227  0.00  0.00    +0.000 C 
ATOM      9  C   UNL     1       7.617   4.768  17.735  0.00  0.00    +0.000 C 
ATOM     10  O   UNL     1       7.749   4.495  16.325  0.00  0.00    +0.000 OA
ATOM     11  C   UNL     1       6.884   5.364  15.569  0.00  0.00    +0.000 C 
ATOM     12  C   UNL     1       5.415   5.169  15.959  0.00  0.00    +0.000 C 
ATOM     13  N   UNL     1       3.710   7.015  17.346  0.00  0.00    +0.000 NA
BRANCH   4  14
ATOM     14  C   UNL     1       1.672   5.164  20.543  0.00  0.00    +0.000 C 
ATOM     15  F   UNL     1       0.725   5.940  21.149  0.00  0.00    +0.000 F 
ATOM     16  F   UNL     1       1.003   4.061  20.097  0.00  0.00    +0.000 F 
ATOM     17  F   UNL     1       2.482   4.729  21.550  0.00  0.00    +0.000 F 
ENDBRANCH   4  14
ENDBRANCH   1   2
BRANCH   1  18
ATOM     18  C   UNL     1       1.821   9.771  18.527  0.00  0.00    +0.000 C 
BRANCH  18  24
ATOM     19  C   UNL     1      -0.263  11.085  19.227  0.00  0.00    +0.000 A 
ATOM     20  C   UNL     1      -1.623  11.416  19.053  0.00  0.00    +0.000 A 
ATOM     21  C   UNL     1      -2.380  10.813  18.056  0.00  0.00    +0.000 A 
ATOM     22  C   UNL     1      -1.791   9.868  17.220  0.00  0.00    +0.000 A 
ATOM     23  C   UNL     1      -0.444   9.536  17.377  0.00  0.00    +0.000 A 
ATOM     24  C   UNL     1       0.345  10.130  18.379  0.00  0.00    +0.000 A 
BRANCH  19  26
ATOM     25  C   UNL     1       1.234  12.850  20.045  0.00  0.00    +0.000 C 
ATOM     26  C   UNL     1       0.454  11.786  20.314  0.00  0.00    +0.000 C 
BRANCH  25  28
ATOM     27  C   UNL     1       2.760  13.527  18.416  0.00  0.00    +0.000 C 
ATOM     28  O   UNL     1       1.393  13.365  18.785  0.00  0.00    +0.000 OA
ENDBRANCH  25  28
BRANCH  26  29
ATOM     29  C   UNL     1       0.441  11.291  21.723  0.00  0.00    +0.000 C 
ATOM     30  O   UNL     1      -0.299  11.713  22.599  0.00  0.00    +0.000 OA
BRANCH  29  31
ATOM     31  O   UNL     1       1.386  10.329  21.885  0.00  0.00    +0.000 OA
ATOM     32  C   UNL     1       0.879   9.042  22.230  0.00  0.00    +0.000 C 
ENDBRANCH  29  31
ENDBRANCH  26  29
ENDBRANCH  19  26
ENDBRANCH  18  24
ENDBRANCH   1  18
TORSDOF 8
ENDMDL
MODEL 8
REMARK VINA RESULT:      -8.1      1.568      3.176
REMARK  Name = 
REMARK  10 active torsions:
REMARK  status: ('A' for Active; 'I' for Inactive)
REMARK    1  A    between atoms: C_1  and  O_2
REMARK    2  A    between atoms: O_2  and  C_3
REMARK    3  A    between atoms: C_4  and  C_5
REMARK    4  A    between atoms: C_4  and  C_9
REMARK    5  A    between atoms: C_5  and  O_7
REMARK    6  A    between atoms: O_7  and  C_8
REMARK    7  A    between atoms: C_14  and  C_15
REMARK    8  A    between atoms: C_15  and  O_16
REMARK    9  A    between atoms: O_16  and  C_17
REMARK   10  A    between atoms: C_19  and  C_20
REMARK                            x       y       z     vdW  Elec       q    Type
REMARK                         _______ _______ _______ _____ _____    ______ ____
ROOT
ATOM      1  O   UNL     1       1.498   8.062  20.322  0.00  0.00    +0.000 OA
ENDROOT
BRANCH   1   2
ATOM      2  C   UNL     1       2.054   6.856  19.948  0.00  0.00    +0.000 A 
ATOM      3  C   UNL     1       1.466   5.706  20.412  0.00  0.00    +0.000 A 
ATOM      4  C   UNL     1       2.115   4.529  20.090  0.00  0.00    +0.000 A 
ATOM      5  N   UNL     1       3.293   4.528  19.412  0.00  0.00    +0.000 NA
ATOM      6  C   UNL     1       3.776   5.702  18.991  0.00  0.00    +0.000 A 
ATOM      7  N   UNL     1       5.010   5.775  18.419  0.00  0.00    +0.000 N 
ATOM      8  C   UNL     1       6.018   4.762  18.677  0.00  0.00    +0.000 C 
ATOM      9  C   UNL     1       7.400   5.436  18.540  0.00  0.00    +0.000 C 
ATOM     10  O   UNL     1       7.555   6.086  17.262  0.00  0.00    +0.000 OA
ATOM     11  C   UNL     1       6.541   7.095  17.092  0.00  0.00    +0.000 C 
ATOM     12  C   UNL     1       5.135   6.491  17.156  0.00  0.00    +0.000 C 
ATOM     13  N   UNL     1       3.158   6.862  19.203  0.00  0.00    +0.000 NA
BRANCH   4  14
ATOM     14  C   UNL     1       1.520   3.189  20.481  0.00  0.00    +0.000 C 
ATOM     15  F   UNL     1       1.287   3.073  21.822  0.00  0.00    +0.000 F 
ATOM     16  F   UNL     1       0.316   2.952  19.884  0.00  0.00    +0.000 F 
ATOM     17  F   UNL     1       2.315   2.130  20.159  0.00  0.00    +0.000 F 
ENDBRANCH   4  14
ENDBRANCH   1   2
BRANCH   1  18
ATOM     18  C   UNL     1       1.596   9.103  19.325  0.00  0.00    +0.000 C 
BRANCH  18  24
ATOM     19  C   UNL     1      -0.358  10.712  19.717  0.00  0.00    +0.000 A 
ATOM     20  C   UNL     1      -1.571  11.298  19.297  0.00  0.00    +0.000 A 
ATOM     21  C   UNL     1      -2.161  10.928  18.095  0.00  0.00    +0.000 A 
ATOM     22  C   UNL     1      -1.551   9.965  17.296  0.00  0.00    +0.000 A 
ATOM     23  C   UNL     1      -0.348   9.382  17.696  0.00  0.00    +0.000 A 
ATOM     24  C   UNL     1       0.271   9.736  18.909  0.00  0.00    +0.000 A 
BRANCH  19  26
ATOM     25  C   UNL     1       1.195  12.070  21.046  0.00  0.00    +0.000 C 
ATOM     26  C   UNL     1       0.188  11.177  21.009  0.00  0.00    +0.000 C 
BRANCH  25  28
ATOM     27  C   UNL     1       2.585  13.742  20.201  0.00  0.00    +0.000 C 
ATOM     28  O   UNL     1       1.753  12.620  19.921  0.00  0.00    +0.000 OA
ENDBRANCH  25  28
BRANCH  26  29
ATOM     29  C   UNL     1      -0.262  10.607  22.314  0.00  0.00    +0.000 C 
ATOM     30  O   UNL     1      -0.297   9.413  22.574  0.00  0.00    +0.000 OA
BRANCH  29  31
ATOM     31  O   UNL     1      -0.649  11.607  23.148  0.00  0.00    +0.000 OA
ATOM     32  C   UNL     1      -2.045  11.897  23.130  0.00  0.00    +0.000 C 
ENDBRANCH  29  31
ENDBRANCH  26  29
ENDBRANCH  19  26
ENDBRANCH  18  24
ENDBRANCH   1  18
TORSDOF 8
ENDMDL
MODEL 9
REMARK VINA RESULT:      -8.1      0.508      1.199
REMARK  Name = 
REMARK  10 active torsions:
REMARK  status: ('A' for Active; 'I' for Inactive)
REMARK    1  A    between atoms: C_1  and  O_2
REMARK    2  A    between atoms: O_2  and  C_3
REMARK    3  A    between atoms: C_4  and  C_5
REMARK    4  A    between atoms: C_4  and  C_9
REMARK    5  A    between atoms: C_5  and  O_7
REMARK    6  A    between atoms: O_7  and  C_8
REMARK    7  A    between atoms: C_14  and  C_15
REMARK    8  A    between atoms: C_15  and  O_16
REMARK    9  A    between atoms: O_16  and  C_17
REMARK   10  A    between atoms: C_19  and  C_20
REMARK                            x       y       z     vdW  Elec       q    Type
REMARK                         _______ _______ _______ _____ _____    ______ ____
ROOT
ATOM      1  O   UNL     1       1.696   7.119  21.022  0.00  0.00    +0.000 OA
ENDROOT
BRANCH   1   2
ATOM      2  C   UNL     1       2.176   6.079  20.252  0.00  0.00    +0.000 A 
ATOM      3  C   UNL     1       1.577   4.852  20.385  0.00  0.00    +0.000 A 
ATOM      4  C   UNL     1       2.155   3.822  19.667  0.00  0.00    +0.000 A 
ATOM      5  N   UNL     1       3.282   4.012  18.932  0.00  0.00    +0.000 NA
ATOM      6  C   UNL     1       3.781   5.249  18.856  0.00  0.00    +0.000 A 
ATOM      7  N   UNL     1       4.974   5.476  18.240  0.00  0.00    +0.000 N 
ATOM      8  C   UNL     1       5.957   4.416  18.094  0.00  0.00    +0.000 C 
ATOM      9  C   UNL     1       7.351   5.077  18.064  0.00  0.00    +0.000 C 
ATOM     10  O   UNL     1       7.444   6.088  17.039  0.00  0.00    +0.000 OA
ATOM     11  C   UNL     1       6.461   7.116  17.267  0.00  0.00    +0.000 C 
ATOM     12  C   UNL     1       5.039   6.546  17.252  0.00  0.00    +0.000 C 
ATOM     13  N   UNL     1       3.225   6.297  19.461  0.00  0.00    +0.000 NA
BRANCH   4  14
ATOM     14  C   UNL     1       1.535   2.436  19.672  0.00  0.00    +0.000 C 
ATOM     15  F   UNL     1       0.321   2.385  19.048  0.00  0.00    +0.000 F 
ATOM     16  F   UNL     1       2.308   1.510  19.035  0.00  0.00    +0.000 F 
ATOM     17  F   UNL     1       1.318   1.946  20.926  0.00  0.00    +0.000 F 
ENDBRANCH   4  14
ENDBRANCH   1   2
BRANCH   1  18
ATOM     18  C   UNL     1       1.044   8.168  20.272  0.00  0.00    +0.000 C 
BRANCH  18  24
ATOM     19  C   UNL     1      -0.050  10.469  20.538  0.00  0.00    +0.000 A 
ATOM     20  C   UNL     1      -0.704  11.434  21.331  0.00  0.00    +0.000 A 
ATOM     21  C   UNL     1      -0.956  11.197  22.677  0.00  0.00    +0.000 A 
ATOM     22  C   UNL     1      -0.555   9.994  23.251  0.00  0.00    +0.000 A 
ATOM     23  C   UNL     1       0.088   9.027  22.476  0.00  0.00    +0.000 A 
ATOM     24  C   UNL     1       0.357   9.241  21.112  0.00  0.00    +0.000 A 
BRANCH  19  26
ATOM     25  C   UNL     1      -0.790  10.578  18.200  0.00  0.00    +0.000 C 
ATOM     26  C   UNL     1       0.166  10.817  19.118  0.00  0.00    +0.000 C 
BRANCH  25  28
ATOM     27  C   UNL     1      -2.836   9.827  17.368  0.00  0.00    +0.000 C 
ATOM     28  O   UNL     1      -2.010  10.036  18.510  0.00  0.00    +0.000 OA
ENDBRANCH  25  28
BRANCH  26  29
ATOM     29  C   UNL     1       1.473  11.338  18.617  0.00  0.00    +0.000 C 
ATOM     30  O   UNL     1       2.081  12.277  19.111  0.00  0.00    +0.000 OA
BRANCH  29  31
ATOM     31  O   UNL     1       1.865  10.633  17.524  0.00  0.00    +0.000 OA
ATOM     32  C   UNL     1       2.482   9.379  17.810  0.00  0.00    +0.000 C 
ENDBRANCH  29  31
ENDBRANCH  26  29
ENDBRANCH  19  26
ENDBRANCH  18  24
ENDBRANCH   1  18
TORSDOF 8
ENDMDL
