MODEL 1
REMARK VINA RESULT:      -8.7      0.000      0.000
REMARK  Name = 
REMARK  6 active torsions:
REMARK  status: ('A' for Active; 'I' for Inactive)
REMARK    1  A    between atoms: C_7  and  C_8
REMARK    2  A    between atoms: N_13  and  C_14
REMARK    3  A    between atoms: N_19  and  C_20
REMARK    4  A    between atoms: C_20  and  C_21
REMARK    5  A    between atoms: C_21  and  O_22
REMARK    6  A    between atoms: O_22  and  C_23
REMARK                            x       y       z     vdW  Elec       q    Type
REMARK                         _______ _______ _______ _____ _____    ______ ____
ROOT
ATOM      1  C   UNL     1       3.437   5.274  17.851  0.00  0.00    +0.000 A 
ATOM      2  C   UNL     1       2.934   4.170  17.120  0.00  0.00    +0.000 A 
ATOM      3  N   UNL     1       3.750   3.782  16.126  0.00  0.00    +0.000 NA
ATOM      4  N   UNL     1       4.793   4.640  16.254  0.00  0.00    +0.000 N 
ATOM      5  C   UNL     1       5.920   4.662  15.422  0.00  0.00    +0.000 A 
ATOM      6  N   UNL     1       5.969   3.730  14.403  0.00  0.00    +0.000 N 
ATOM      7  N   UNL     1       6.838   5.559  15.660  0.00  0.00    +0.000 NA
ATOM      8  C   UNL     1       6.679   6.423  16.720  0.00  0.00    +0.000 A 
ATOM      9  N   UNL     1       7.700   7.297  16.927  0.00  0.00    +0.000 N 
ATOM     10  N   UNL     1       5.640   6.440  17.508  0.00  0.00    +0.000 NA
ATOM     11  C   UNL     1       4.659   5.536  17.272  0.00  0.00    +0.000 A 
ATOM     12  H   UNL     1       5.127   3.174  14.268  0.00  0.00    +0.000 HD
ATOM     13  H   UNL     1       8.477   7.137  16.299  0.00  0.00    +0.000 HD
ENDROOT
BRANCH   1  20
ATOM     14  O   UNL     1       1.782  10.334  17.608  0.00  0.00    +0.000 OA
ATOM     15  C   UNL     1       1.882   9.332  18.298  0.00  0.00    +0.000 C 
ATOM     16  N   UNL     1       1.521   9.214  19.613  0.00  0.00    +0.000 N 
ATOM     17  C   UNL     1       1.830   7.974  20.110  0.00  0.00    +0.000 C 
ATOM     18  O   UNL     1       1.701   7.570  21.249  0.00  0.00    +0.000 OA
ATOM     19  C   UNL     1       2.406   7.235  18.946  0.00  0.00    +0.000 C 
ATOM     20  C   UNL     1       2.851   5.970  18.955  0.00  0.00    +0.000 C 
ATOM     21  N   UNL     1       2.389   8.113  17.899  0.00  0.00    +0.000 N 
ATOM     22  H   UNL     1       1.153   9.975  20.156  0.00  0.00    +0.000 HD
ATOM     23  H   UNL     1       2.822   7.946  16.997  0.00  0.00    +0.000 HD
ENDBRANCH   1  20
BRANCH   6  24
ATOM     24  C   UNL     1       7.045   3.746  13.426  0.00  0.00    +0.000 C 
ATOM     25  C   UNL     1       6.792   3.368  11.994  0.00  0.00    +0.000 C 
ATOM     26  C   UNL     1       7.082   4.795  12.351  0.00  0.00    +0.000 C 
ENDBRANCH   6  24
BRANCH   9  27
ATOM     27  C   UNL     1       8.011   7.826  18.249  0.00  0.00    +0.000 C 
BRANCH  27  28
ATOM     28  C   UNL     1       8.401   9.301  18.147  0.00  0.00    +0.000 C 
BRANCH  28  29
ATOM     29  O   UNL     1       9.165   9.702  19.286  0.00  0.00    +0.000 OA
BRANCH  29  30
ATOM     30  C   UNL     1       9.837  10.892  19.160  0.00  0.00    +0.000 A 
ATOM     31  C   UNL     1      10.228  11.487  20.362  0.00  0.00    +0.000 A 
ATOM     32  C   UNL     1      10.919  12.703  20.364  0.00  0.00    +0.000 A 
ATOM     33  C   UNL     1      11.221  13.332  19.157  0.00  0.00    +0.000 A 
ATOM     34  C   UNL     1      10.830  12.741  17.959  0.00  0.00    +0.000 A 
ATOM     35 CL   UNL     1      11.196  13.511  16.463  0.00  0.00    +0.000 Cl
ATOM     36  C   UNL     1      10.142  11.527  17.954  0.00  0.00    +0.000 A 
ENDBRANCH  29  30
ENDBRANCH  28  29
ENDBRANCH  27  28
ENDBRANCH   9  27
TORSDOF 6
ENDMDL
MODEL 2
REMARK VINA RESULT:      -8.5      0.940      1.245
REMARK  Name = 
REMARK  6 active torsions:
REMARK  status: ('A' for Active; 'I' for Inactive)
REMARK    1  A    between atoms: C_7  and  C_8
REMARK    2  A    between atoms: N_13  and  C_14
REMARK    3  A    between atoms: N_19  and  C_20
REMARK    4  A    between atoms: C_20  and  C_21
REMARK    5  A    between atoms: C_21  and  O_22
REMARK    6  A    between atoms: O_22  and  C_23
REMARK                            x       y       z     vdW  Elec       q    Type
REMARK                         _______ _______ _______ _____ _____    ______ ____
ROOT
ATOM      1  C   UNL     1       3.412   5.447  18.193  0.00  0.00    +0.000 A 
ATOM      2  C   UNL     1       2.878   4.320  17.520  0.00  0.00    +0.000 A 
ATOM      3  N   UNL     1       3.651   3.900  16.505  0.00  0.00    +0.000 NA
ATOM      4  N   UNL     1       4.698   4.761  16.560  0.00  0.00    +0.000 N 
ATOM      5  C   UNL     1       5.788   4.756  15.680  0.00  0.00    +0.000 A 
ATOM      6  N   UNL     1       5.793   3.791  14.691  0.00  0.00    +0.000 N 
ATOM      7  N   UNL     1       6.715   5.659  15.850  0.00  0.00    +0.000 NA
ATOM      8  C   UNL     1       6.601   6.557  16.887  0.00  0.00    +0.000 A 
ATOM      9  N   UNL     1       7.629   7.436  17.021  0.00  0.00    +0.000 N 
ATOM     10  N   UNL     1       5.597   6.599  17.718  0.00  0.00    +0.000 NA
ATOM     11  C   UNL     1       4.607   5.689  17.554  0.00  0.00    +0.000 A 
ATOM     12  H   UNL     1       4.947   3.231  14.610  0.00  0.00    +0.000 HD
ATOM     13  H   UNL     1       8.379   7.255  16.366  0.00  0.00    +0.000 HD
ENDROOT
BRANCH   1  20
ATOM     14  O   UNL     1       1.032  10.191  17.715  0.00  0.00    +0.000 OA
ATOM     15  C   UNL     1       1.359   9.292  18.474  0.00  0.00    +0.000 C 
ATOM     16  N   UNL     1       1.184   9.274  19.831  0.00  0.00    +0.000 N 
ATOM     17  C   UNL     1       1.726   8.148  20.393  0.00  0.00    +0.000 C 
ATOM     18  O   UNL     1       1.799   7.859  21.571  0.00  0.00    +0.000 OA
ATOM     19  C   UNL     1       2.254   7.365  19.234  0.00  0.00    +0.000 C 
ATOM     20  C   UNL     1       2.873   6.178  19.298  0.00  0.00    +0.000 C 
ATOM     21  N   UNL     1       1.982   8.114  18.123  0.00  0.00    +0.000 N 
ATOM     22  H   UNL     1       0.781  10.037  20.347  0.00  0.00    +0.000 HD
ATOM     23  H   UNL     1       2.319   7.906  17.189  0.00  0.00    +0.000 HD
ENDBRANCH   1  20
BRANCH   6  24
ATOM     24  C   UNL     1       6.827   3.775  13.668  0.00  0.00    +0.000 C 
ATOM     25  C   UNL     1       6.492   3.456  12.238  0.00  0.00    +0.000 C 
ATOM     26  C   UNL     1       6.880   4.853  12.622  0.00  0.00    +0.000 C 
ENDBRANCH   6  24
BRANCH   9  27
ATOM     27  C   UNL     1       7.997   8.007  18.311  0.00  0.00    +0.000 C 
BRANCH  27  28
ATOM     28  C   UNL     1       8.427   9.464  18.139  0.00  0.00    +0.000 C 
BRANCH  28  29
ATOM     29  O   UNL     1       9.224   9.890  19.245  0.00  0.00    +0.000 OA
BRANCH  29  30
ATOM     30  C   UNL     1       9.816  11.121  19.109  0.00  0.00    +0.000 A 
ATOM     31  C   UNL     1      10.383  11.377  17.857  0.00  0.00    +0.000 A 
ATOM     32  C   UNL     1      11.016  12.596  17.598  0.00  0.00    +0.000 A 
ATOM     33  C   UNL     1      11.086  13.569  18.594  0.00  0.00    +0.000 A 
ATOM     34  C   UNL     1      10.523  13.315  19.841  0.00  0.00    +0.000 A 
ATOM     35 CL   UNL     1      10.606  14.509  21.079  0.00  0.00    +0.000 Cl
ATOM     36  C   UNL     1       9.889  12.100  20.103  0.00  0.00    +0.000 A 
ENDBRANCH  29  30
ENDBRANCH  28  29
ENDBRANCH  27  28
ENDBRANCH   9  27
TORSDOF 6
ENDMDL
MODEL 3
REMARK VINA RESULT:      -8.3      6.861     12.366
REMARK  Name = 
REMARK  6 active torsions:
REMARK  status: ('A' for Active; 'I' for Inactive)
REMARK    1  A    between atoms: C_7  and  C_8
REMARK    2  A    between atoms: N_13  and  C_14
REMARK    3  A    between atoms: N_19  and  C_20
REMARK    4  A    between atoms: C_20  and  C_21
REMARK    5  A    between atoms: C_21  and  O_22
REMARK    6  A    between atoms: O_22  and  C_23
REMARK                            x       y       z     vdW  Elec       q    Type
REMARK                         _______ _______ _______ _____ _____    ______ ____
ROOT
ATOM      1  C   UNL     1       0.924   9.350  20.859  0.00  0.00    +0.000 A 
ATOM      2  C   UNL     1       0.979   9.333  22.274  0.00  0.00    +0.000 A 
ATOM      3  N   UNL     1       0.121  10.196  22.843  0.00  0.00    +0.000 NA
ATOM      4  N   UNL     1      -0.498  10.743  21.767  0.00  0.00    +0.000 N 
ATOM      5  C   UNL     1      -1.485  11.737  21.828  0.00  0.00    +0.000 A 
ATOM      6  N   UNL     1      -1.855  12.179  23.084  0.00  0.00    +0.000 N 
ATOM      7  N   UNL     1      -1.979  12.177  20.703  0.00  0.00    +0.000 NA
ATOM      8  C   UNL     1      -1.536  11.641  19.516  0.00  0.00    +0.000 A 
ATOM      9  N   UNL     1      -2.133  12.122  18.393  0.00  0.00    +0.000 N 
ATOM     10  N   UNL     1      -0.613  10.724  19.419  0.00  0.00    +0.000 NA
ATOM     11  C   UNL     1      -0.065  10.263  20.568  0.00  0.00    +0.000 A 
ATOM     12  H   UNL     1      -1.299  11.828  23.861  0.00  0.00    +0.000 HD
ATOM     13  H   UNL     1      -2.881  12.772  18.602  0.00  0.00    +0.000 HD
ENDROOT
BRANCH   1  20
ATOM     14  O   UNL     1       2.073   4.180  21.455  0.00  0.00    +0.000 OA
ATOM     15  C   UNL     1       2.174   5.165  20.742  0.00  0.00    +0.000 C 
ATOM     16  N   UNL     1       2.853   5.240  19.555  0.00  0.00    +0.000 N 
ATOM     17  C   UNL     1       2.827   6.511  19.042  0.00  0.00    +0.000 C 
ATOM     18  O   UNL     1       3.384   6.928  18.045  0.00  0.00    +0.000 OA
ATOM     19  C   UNL     1       1.995   7.292  20.008  0.00  0.00    +0.000 C 
ATOM     20  C   UNL     1       1.689   8.593  19.915  0.00  0.00    +0.000 C 
ATOM     21  N   UNL     1       1.634   6.410  20.987  0.00  0.00    +0.000 N 
ATOM     22  H   UNL     1       3.370   4.473  19.164  0.00  0.00    +0.000 HD
ATOM     23  H   UNL     1       1.160   6.663  21.848  0.00  0.00    +0.000 HD
ENDBRANCH   1  20
BRANCH   6  24
ATOM     24  C   UNL     1      -2.790  13.280  23.242  0.00  0.00    +0.000 C 
ATOM     25  C   UNL     1      -4.081  13.095  23.990  0.00  0.00    +0.000 C 
ATOM     26  C   UNL     1      -2.985  13.928  24.584  0.00  0.00    +0.000 C 
ENDBRANCH   6  24
BRANCH   9  27
ATOM     27  C   UNL     1      -2.267  11.322  17.182  0.00  0.00    +0.000 C 
BRANCH  27  28
ATOM     28  C   UNL     1      -3.554  10.498  17.235  0.00  0.00    +0.000 C 
BRANCH  28  29
ATOM     29  O   UNL     1      -4.628  11.198  16.604  0.00  0.00    +0.000 OA
BRANCH  29  30
ATOM     30  C   UNL     1      -5.630  11.623  17.441  0.00  0.00    +0.000 A 
ATOM     31  C   UNL     1      -6.177  12.872  17.131  0.00  0.00    +0.000 A 
ATOM     32  C   UNL     1      -7.204  13.413  17.910  0.00  0.00    +0.000 A 
ATOM     33  C   UNL     1      -7.689  12.705  19.009  0.00  0.00    +0.000 A 
ATOM     34  C   UNL     1      -7.144  11.463  19.319  0.00  0.00    +0.000 A 
ATOM     35 CL   UNL     1      -7.734  10.582  20.676  0.00  0.00    +0.000 Cl
ATOM     36  C   UNL     1      -6.121  10.919  18.542  0.00  0.00    +0.000 A 
ENDBRANCH  29  30
ENDBRANCH  28  29
ENDBRANCH  27  28
ENDBRANCH   9  27
TORSDOF 6
ENDMDL
MODEL 4
REMARK VINA RESULT:      -8.3      6.863     11.839
REMARK  Name = 
REMARK  6 active torsions:
REMARK  status: ('A' for Active; 'I' for Inactive)
REMARK    1  A    between atoms: C_7  and  C_8
REMARK    2  A    between atoms: N_13  and  C_14
REMARK    3  A    between atoms: N_19  and  C_20
REMARK    4  A    between atoms: C_20  and  C_21
REMARK    5  A    between atoms: C_21  and  O_22
REMARK    6  A    between atoms: O_22  and  C_23
REMARK                            x       y       z     vdW  Elec       q    Type
REMARK                         _______ _______ _______ _____ _____    ______ ____
ROOT
ATOM      1  C   UNL     1       1.372   8.652  20.578  0.00  0.00    +0.000 A 
ATOM      2  C   UNL     1       1.552   8.837  21.972  0.00  0.00    +0.000 A 
ATOM      3  N   UNL     1       0.847   9.871  22.460  0.00  0.00    +0.000 NA
ATOM      4  N   UNL     1       0.195  10.324  21.359  0.00  0.00    +0.000 N 
ATOM      5  C   UNL     1      -0.670  11.427  21.337  0.00  0.00    +0.000 A 
ATOM      6  N   UNL     1      -0.875  12.090  22.531  0.00  0.00    +0.000 N 
ATOM      7  N   UNL     1      -1.214  11.753  20.195  0.00  0.00    +0.000 NA
ATOM      8  C   UNL     1      -0.940  10.999  19.077  0.00  0.00    +0.000 A 
ATOM      9  N   UNL     1      -1.581  11.379  17.940  0.00  0.00    +0.000 N 
ATOM     10  N   UNL     1      -0.133   9.974  19.058  0.00  0.00    +0.000 NA
ATOM     11  C   UNL     1       0.465   9.625  20.222  0.00  0.00    +0.000 A 
ATOM     12  H   UNL     1      -0.292  11.794  23.311  0.00  0.00    +0.000 HD
ATOM     13  H   UNL     1      -2.233  12.136  18.099  0.00  0.00    +0.000 HD
ENDROOT
BRANCH   1  20
ATOM     14  O   UNL     1       2.213   3.578  21.972  0.00  0.00    +0.000 OA
ATOM     15  C   UNL     1       2.298   4.414  21.086  0.00  0.00    +0.000 C 
ATOM     16  N   UNL     1       2.833   4.223  19.841  0.00  0.00    +0.000 N 
ATOM     17  C   UNL     1       2.837   5.384  19.113  0.00  0.00    +0.000 C 
ATOM     18  O   UNL     1       3.299   5.572  18.004  0.00  0.00    +0.000 OA
ATOM     19  C   UNL     1       2.184   6.391  20.005  0.00  0.00    +0.000 C 
ATOM     20  C   UNL     1       1.963   7.680  19.712  0.00  0.00    +0.000 C 
ATOM     21  N   UNL     1       1.881   5.726  21.159  0.00  0.00    +0.000 N 
ATOM     22  H   UNL     1       3.244   3.356  19.542  0.00  0.00    +0.000 HD
ATOM     23  H   UNL     1       1.533   6.164  22.004  0.00  0.00    +0.000 HD
ENDBRANCH   1  20
BRANCH   6  24
ATOM     24  C   UNL     1      -1.669  13.307  22.583  0.00  0.00    +0.000 C 
ATOM     25  C   UNL     1      -2.890  13.395  23.456  0.00  0.00    +0.000 C 
ATOM     26  C   UNL     1      -1.658  14.172  23.812  0.00  0.00    +0.000 C 
ENDBRANCH   6  24
BRANCH   9  27
ATOM     27  C   UNL     1      -1.909  10.430  16.882  0.00  0.00    +0.000 C 
BRANCH  27  28
ATOM     28  C   UNL     1      -3.392  10.532  16.524  0.00  0.00    +0.000 C 
BRANCH  28  29
ATOM     29  O   UNL     1      -4.207  10.292  17.673  0.00  0.00    +0.000 OA
BRANCH  29  30
ATOM     30  C   UNL     1      -5.259  11.156  17.844  0.00  0.00    +0.000 A 
ATOM     31  C   UNL     1      -6.161  10.807  18.853  0.00  0.00    +0.000 A 
ATOM     32  C   UNL     1      -7.275  11.608  19.123  0.00  0.00    +0.000 A 
ATOM     33  C   UNL     1      -7.492  12.768  18.380  0.00  0.00    +0.000 A 
ATOM     34  C   UNL     1      -6.595  13.116  17.375  0.00  0.00    +0.000 A 
ATOM     35 CL   UNL     1      -6.856  14.545  16.450  0.00  0.00    +0.000 Cl
ATOM     36  C   UNL     1      -5.482  12.319  17.105  0.00  0.00    +0.000 A 
ENDBRANCH  29  30
ENDBRANCH  28  29
ENDBRANCH  27  28
ENDBRANCH   9  27
TORSDOF 6
ENDMDL
MODEL 5
REMARK VINA RESULT:      -8.0      6.934     11.923
REMARK  Name = 
REMARK  6 active torsions:
REMARK  status: ('A' for Active; 'I' for Inactive)
REMARK    1  A    between atoms: C_7  and  C_8
REMARK    2  A    between atoms: N_13  and  C_14
REMARK    3  A    between atoms: N_19  and  C_20
REMARK    4  A    between atoms: C_20  and  C_21
REMARK    5  A    between atoms: C_21  and  O_22
REMARK    6  A    between atoms: O_22  and  C_23
REMARK                            x       y       z     vdW  Elec       q    Type
REMARK                         _______ _______ _______ _____ _____    ______ ____
ROOT
ATOM      1  C   UNL     1       1.412   8.716  20.657  0.00  0.00    +0.000 A 
ATOM      2  C   UNL     1       1.594   8.888  22.052  0.00  0.00    +0.000 A 
ATOM      3  N   UNL     1       0.869   9.901  22.555  0.00  0.00    +0.000 NA
ATOM      4  N   UNL     1       0.204  10.353  21.462  0.00  0.00    +0.000 N 
ATOM      5  C   UNL     1      -0.684  11.438  21.456  0.00  0.00    +0.000 A 
ATOM      6  N   UNL     1      -0.898  12.083  22.659  0.00  0.00    +0.000 N 
ATOM      7  N   UNL     1      -1.240  11.766  20.321  0.00  0.00    +0.000 NA
ATOM      8  C   UNL     1      -0.955  11.031  19.193  0.00  0.00    +0.000 A 
ATOM      9  N   UNL     1      -1.608  11.410  18.062  0.00  0.00    +0.000 N 
ATOM     10  N   UNL     1      -0.127  10.024  19.158  0.00  0.00    +0.000 NA
ATOM     11  C   UNL     1       0.483   9.673  20.316  0.00  0.00    +0.000 A 
ATOM     12  H   UNL     1      -0.306  11.789  23.433  0.00  0.00    +0.000 HD
ATOM     13  H   UNL     1      -2.275  12.153  18.233  0.00  0.00    +0.000 HD
ENDROOT
BRANCH   1  20
ATOM     14  O   UNL     1       2.163   3.590  21.908  0.00  0.00    +0.000 OA
ATOM     15  C   UNL     1       2.282   4.453  21.053  0.00  0.00    +0.000 C 
ATOM     16  N   UNL     1       2.853   4.298  19.818  0.00  0.00    +0.000 N 
ATOM     17  C   UNL     1       2.889   5.482  19.129  0.00  0.00    +0.000 C 
ATOM     18  O   UNL     1       3.386   5.701  18.042  0.00  0.00    +0.000 OA
ATOM     19  C   UNL     1       2.220   6.466  20.034  0.00  0.00    +0.000 C 
ATOM     20  C   UNL     1       2.019   7.766  19.777  0.00  0.00    +0.000 C 
ATOM     21  N   UNL     1       1.875   5.766  21.156  0.00  0.00    +0.000 N 
ATOM     22  H   UNL     1       3.265   3.437  19.504  0.00  0.00    +0.000 HD
ATOM     23  H   UNL     1       1.506   6.181  22.005  0.00  0.00    +0.000 HD
ENDBRANCH   1  20
BRANCH   6  24
ATOM     24  C   UNL     1      -1.717  13.282  22.728  0.00  0.00    +0.000 C 
ATOM     25  C   UNL     1      -1.508  14.298  23.816  0.00  0.00    +0.000 C 
ATOM     26  C   UNL     1      -1.129  14.626  22.403  0.00  0.00    +0.000 C 
ENDBRANCH   6  24
BRANCH   9  27
ATOM     27  C   UNL     1      -1.921  10.468  16.995  0.00  0.00    +0.000 C 
BRANCH  27  28
ATOM     28  C   UNL     1      -3.424  10.464  16.719  0.00  0.00    +0.000 C 
BRANCH  28  29
ATOM     29  O   UNL     1      -3.971  11.775  16.878  0.00  0.00    +0.000 OA
BRANCH  29  30
ATOM     30  C   UNL     1      -5.174  11.839  17.535  0.00  0.00    +0.000 A 
ATOM     31  C   UNL     1      -5.956  12.960  17.242  0.00  0.00    +0.000 A 
ATOM     32  C   UNL     1      -7.202  13.138  17.850  0.00  0.00    +0.000 A 
ATOM     33  C   UNL     1      -7.674  12.192  18.759  0.00  0.00    +0.000 A 
ATOM     34  C   UNL     1      -6.896  11.076  19.052  0.00  0.00    +0.000 A 
ATOM     35 CL   UNL     1      -7.468   9.903  20.175  0.00  0.00    +0.000 Cl
ATOM     36  C   UNL     1      -5.652  10.895  18.446  0.00  0.00    +0.000 A 
ENDBRANCH  29  30
ENDBRANCH  28  29
ENDBRANCH  27  28
ENDBRANCH   9  27
TORSDOF 6
ENDMDL
MODEL 6
REMARK VINA RESULT:      -8.0      2.061      2.875
REMARK  Name = 
REMARK  6 active torsions:
REMARK  status: ('A' for Active; 'I' for Inactive)
REMARK    1  A    between atoms: C_7  and  C_8
REMARK    2  A    between atoms: N_13  and  C_14
REMARK    3  A    between atoms: N_19  and  C_20
REMARK    4  A    between atoms: C_20  and  C_21
REMARK    5  A    between atoms: C_21  and  O_22
REMARK    6  A    between atoms: O_22  and  C_23
REMARK                            x       y       z     vdW  Elec       q    Type
REMARK                         _______ _______ _______ _____ _____    ______ ____
ROOT
ATOM      1  C   UNL     1       3.630   4.749  17.471  0.00  0.00    +0.000 A 
ATOM      2  C   UNL     1       3.232   3.648  16.672  0.00  0.00    +0.000 A 
ATOM      3  N   UNL     1       4.086   3.393  15.667  0.00  0.00    +0.000 NA
ATOM      4  N   UNL     1       5.046   4.332  15.856  0.00  0.00    +0.000 N 
ATOM      5  C   UNL     1       6.172   4.503  15.038  0.00  0.00    +0.000 A 
ATOM      6  N   UNL     1       6.311   3.639  13.969  0.00  0.00    +0.000 N 
ATOM      7  N   UNL     1       7.005   5.463  15.338  0.00  0.00    +0.000 NA
ATOM      8  C   UNL     1       6.761   6.247  16.443  0.00  0.00    +0.000 A 
ATOM      9  N   UNL     1       7.699   7.195  16.711  0.00  0.00    +0.000 N 
ATOM     10  N   UNL     1       5.720   6.125  17.219  0.00  0.00    +0.000 NA
ATOM     11  C   UNL     1       4.827   5.152  16.921  0.00  0.00    +0.000 A 
ATOM     12  H   UNL     1       5.523   3.018  13.793  0.00  0.00    +0.000 HD
ATOM     13  H   UNL     1       8.491   7.142  16.083  0.00  0.00    +0.000 HD
ENDROOT
BRANCH   1  20
ATOM     14  O   UNL     1       2.768   2.128  22.030  0.00  0.00    +0.000 OA
ATOM     15  C   UNL     1       2.653   3.186  21.431  0.00  0.00    +0.000 C 
ATOM     16  N   UNL     1       2.050   4.321  21.900  0.00  0.00    +0.000 N 
ATOM     17  C   UNL     1       2.030   5.309  20.950  0.00  0.00    +0.000 C 
ATOM     18  O   UNL     1       1.515   6.407  21.021  0.00  0.00    +0.000 OA
ATOM     19  C   UNL     1       2.747   4.719  19.778  0.00  0.00    +0.000 C 
ATOM     20  C   UNL     1       2.977   5.326  18.605  0.00  0.00    +0.000 C 
ATOM     21  N   UNL     1       3.098   3.452  20.153  0.00  0.00    +0.000 N 
ATOM     22  H   UNL     1       1.608   4.381  22.801  0.00  0.00    +0.000 HD
ATOM     23  H   UNL     1       3.497   2.756  19.535  0.00  0.00    +0.000 HD
ENDBRANCH   1  20
BRANCH   6  24
ATOM     24  C   UNL     1       7.387   3.808  13.007  0.00  0.00    +0.000 C 
ATOM     25  C   UNL     1       7.264   3.270  11.609  0.00  0.00    +0.000 C 
ATOM     26  C   UNL     1       7.231   4.750  11.847  0.00  0.00    +0.000 C 
ENDBRANCH   6  24
BRANCH   9  27
ATOM     27  C   UNL     1       7.953   7.672  18.064  0.00  0.00    +0.000 C 
BRANCH  27  28
ATOM     28  C   UNL     1       8.275   9.167  18.043  0.00  0.00    +0.000 C 
BRANCH  28  29
ATOM     29  O   UNL     1       9.045   9.534  19.189  0.00  0.00    +0.000 OA
BRANCH  29  30
ATOM     30  C   UNL     1       9.556  10.809  19.176  0.00  0.00    +0.000 A 
ATOM     31  C   UNL     1      10.057  11.239  17.944  0.00  0.00    +0.000 A 
ATOM     32  C   UNL     1      10.605  12.518  17.806  0.00  0.00    +0.000 A 
ATOM     33  C   UNL     1      10.655  13.375  18.904  0.00  0.00    +0.000 A 
ATOM     34  C   UNL     1      10.158  12.947  20.131  0.00  0.00    +0.000 A 
ATOM     35 CL   UNL     1      10.219  13.997  21.494  0.00  0.00    +0.000 Cl
ATOM     36  C   UNL     1       9.609  11.672  20.272  0.00  0.00    +0.000 A 
ENDBRANCH  29  30
ENDBRANCH  28  29
ENDBRANCH  27  28
ENDBRANCH   9  27
TORSDOF 6
ENDMDL
MODEL 7
REMARK VINA RESULT:      -7.9      5.130      8.398
REMARK  Name = 
REMARK  6 active torsions:
REMARK  status: ('A' for Active; 'I' for Inactive)
REMARK    1  A    between atoms: C_7  and  C_8
REMARK    2  A    between atoms: N_13  and  C_14
REMARK    3  A    between atoms: N_19  and  C_20
REMARK    4  A    between atoms: C_20  and  C_21
REMARK    5  A    between atoms: C_21  and  O_22
REMARK    6  A    between atoms: O_22  and  C_23
REMARK                            x       y       z     vdW  Elec       q    Type
REMARK                         _______ _______ _______ _____ _____    ______ ____
ROOT
ATOM      1  C   UNL     1       5.214   4.019  16.291  0.00  0.00    +0.000 A 
ATOM      2  C   UNL     1       5.027   2.639  16.557  0.00  0.00    +0.000 A 
ATOM      3  N   UNL     1       4.113   2.408  17.514  0.00  0.00    +0.000 NA
ATOM      4  N   UNL     1       3.704   3.662  17.834  0.00  0.00    +0.000 N 
ATOM      5  C   UNL     1       2.753   3.968  18.818  0.00  0.00    +0.000 A 
ATOM      6  N   UNL     1       2.190   2.907  19.501  0.00  0.00    +0.000 N 
ATOM      7  N   UNL     1       2.471   5.226  19.024  0.00  0.00    +0.000 NA
ATOM      8  C   UNL     1       3.092   6.190  18.263  0.00  0.00    +0.000 A 
ATOM      9  N   UNL     1       2.710   7.472  18.510  0.00  0.00    +0.000 N 
ATOM     10  N   UNL     1       3.988   5.944  17.347  0.00  0.00    +0.000 NA
ATOM     11  C   UNL     1       4.318   4.649  17.126  0.00  0.00    +0.000 A 
ATOM     12  H   UNL     1       2.594   1.992  19.313  0.00  0.00    +0.000 HD
ATOM     13  H   UNL     1       1.959   7.527  19.186  0.00  0.00    +0.000 HD
ENDROOT
BRANCH   1  20
ATOM     14  O   UNL     1       6.087   2.220  11.351  0.00  0.00    +0.000 OA
ATOM     15  C   UNL     1       6.336   3.087  12.173  0.00  0.00    +0.000 C 
ATOM     16  N   UNL     1       7.207   4.131  12.011  0.00  0.00    +0.000 N 
ATOM     17  C   UNL     1       7.307   4.883  13.153  0.00  0.00    +0.000 C 
ATOM     18  O   UNL     1       8.036   5.833  13.363  0.00  0.00    +0.000 OA
ATOM     19  C   UNL     1       6.349   4.248  14.108  0.00  0.00    +0.000 C 
ATOM     20  C   UNL     1       6.103   4.648  15.364  0.00  0.00    +0.000 C 
ATOM     21  N   UNL     1       5.801   3.190  13.440  0.00  0.00    +0.000 N 
ATOM     22  H   UNL     1       7.759   4.268  11.183  0.00  0.00    +0.000 HD
ATOM     23  H   UNL     1       5.198   2.491  13.859  0.00  0.00    +0.000 HD
ENDBRANCH   1  20
BRANCH   6  24
ATOM     24  C   UNL     1       1.277   3.133  20.609  0.00  0.00    +0.000 C 
ATOM     25  C   UNL     1       1.373   2.314  21.867  0.00  0.00    +0.000 C 
ATOM     26  C   UNL     1       1.767   3.761  21.884  0.00  0.00    +0.000 C 
ENDBRANCH   6  24
BRANCH   9  27
ATOM     27  C   UNL     1       2.758   8.506  17.484  0.00  0.00    +0.000 C 
BRANCH  27  28
ATOM     28  C   UNL     1       2.117   9.793  18.003  0.00  0.00    +0.000 C 
BRANCH  28  29
ATOM     29  O   UNL     1       0.703   9.637  18.135  0.00  0.00    +0.000 OA
BRANCH  29  30
ATOM     30  C   UNL     1       0.158  10.132  19.293  0.00  0.00    +0.000 A 
ATOM     31  C   UNL     1      -0.635  11.273  19.140  0.00  0.00    +0.000 A 
ATOM     32  C   UNL     1      -1.244  11.871  20.247  0.00  0.00    +0.000 A 
ATOM     33  C   UNL     1      -1.062  11.329  21.518  0.00  0.00    +0.000 A 
ATOM     34  C   UNL     1      -0.272  10.194  21.672  0.00  0.00    +0.000 A 
ATOM     35 CL   UNL     1      -0.038   9.518  23.238  0.00  0.00    +0.000 Cl
ATOM     36  C   UNL     1       0.336   9.594  20.569  0.00  0.00    +0.000 A 
ENDBRANCH  29  30
ENDBRANCH  28  29
ENDBRANCH  27  28
ENDBRANCH   9  27
TORSDOF 6
ENDMDL
MODEL 8
REMARK VINA RESULT:      -7.8      5.166      8.542
REMARK  Name = 
REMARK  6 active torsions:
REMARK  status: ('A' for Active; 'I' for Inactive)
REMARK    1  A    between atoms: C_7  and  C_8
REMARK    2  A    between atoms: N_13  and  C_14
REMARK    3  A    between atoms: N_19  and  C_20
REMARK    4  A    between atoms: C_20  and  C_21
REMARK    5  A    between atoms: C_21  and  O_22
REMARK    6  A    between atoms: O_22  and  C_23
REMARK                            x       y       z     vdW  Elec       q    Type
REMARK                         _______ _______ _______ _____ _____    ______ ____
ROOT
ATOM      1  C   UNL     1       5.267   4.042  16.281  0.00  0.00    +0.000 A 
ATOM      2  C   UNL     1       5.055   2.664  16.533  0.00  0.00    +0.000 A 
ATOM      3  N   UNL     1       4.134   2.440  17.485  0.00  0.00    +0.000 NA
ATOM      4  N   UNL     1       3.746   3.697  17.816  0.00  0.00    +0.000 N 
ATOM      5  C   UNL     1       2.798   4.011  18.801  0.00  0.00    +0.000 A 
ATOM      6  N   UNL     1       2.215   2.954  19.472  0.00  0.00    +0.000 N 
ATOM      7  N   UNL     1       2.538   5.272  19.018  0.00  0.00    +0.000 NA
ATOM      8  C   UNL     1       3.177   6.232  18.268  0.00  0.00    +0.000 A 
ATOM      9  N   UNL     1       2.817   7.517  18.526  0.00  0.00    +0.000 N 
ATOM     10  N   UNL     1       4.071   5.979  17.352  0.00  0.00    +0.000 NA
ATOM     11  C   UNL     1       4.380   4.681  17.119  0.00  0.00    +0.000 A 
ATOM     12  H   UNL     1       2.604   2.033  19.277  0.00  0.00    +0.000 HD
ATOM     13  H   UNL     1       2.066   7.579  19.201  0.00  0.00    +0.000 HD
ENDROOT
BRANCH   1  20
ATOM     14  O   UNL     1       6.083   2.306  11.309  0.00  0.00    +0.000 OA
ATOM     15  C   UNL     1       6.356   3.152  12.145  0.00  0.00    +0.000 C 
ATOM     16  N   UNL     1       7.252   4.177  11.998  0.00  0.00    +0.000 N 
ATOM     17  C   UNL     1       7.374   4.907  13.152  0.00  0.00    +0.000 C 
ATOM     18  O   UNL     1       8.126   5.834  13.376  0.00  0.00    +0.000 OA
ATOM     19  C   UNL     1       6.402   4.280  14.099  0.00  0.00    +0.000 C 
ATOM     20  C   UNL     1       6.169   4.665  15.361  0.00  0.00    +0.000 C 
ATOM     21  N   UNL     1       5.826   3.247  13.414  0.00  0.00    +0.000 N 
ATOM     22  H   UNL     1       7.806   4.314  11.171  0.00  0.00    +0.000 HD
ATOM     23  H   UNL     1       5.207   2.556  13.823  0.00  0.00    +0.000 HD
ENDBRANCH   1  20
BRANCH   6  24
ATOM     24  C   UNL     1       1.303   3.184  20.580  0.00  0.00    +0.000 C 
ATOM     25  C   UNL     1       1.384   2.356  21.832  0.00  0.00    +0.000 C 
ATOM     26  C   UNL     1       1.799   3.797  21.860  0.00  0.00    +0.000 C 
ENDBRANCH   6  24
BRANCH   9  27
ATOM     27  C   UNL     1       2.886   8.560  17.509  0.00  0.00    +0.000 C 
BRANCH  27  28
ATOM     28  C   UNL     1       1.979   9.730  17.892  0.00  0.00    +0.000 C 
BRANCH  28  29
ATOM     29  O   UNL     1       0.998   9.318  18.846  0.00  0.00    +0.000 OA
BRANCH  29  30
ATOM     30  C   UNL     1      -0.074  10.162  18.997  0.00  0.00    +0.000 A 
ATOM     31  C   UNL     1      -0.107  10.877  20.198  0.00  0.00    +0.000 A 
ATOM     32  C   UNL     1      -1.150  11.768  20.468  0.00  0.00    +0.000 A 
ATOM     33  C   UNL     1      -2.169  11.948  19.534  0.00  0.00    +0.000 A 
ATOM     34  C   UNL     1      -2.137  11.236  18.339  0.00  0.00    +0.000 A 
ATOM     35 CL   UNL     1      -3.393  11.450  17.180  0.00  0.00    +0.000 Cl
ATOM     36  C   UNL     1      -1.097  10.348  18.066  0.00  0.00    +0.000 A 
ENDBRANCH  29  30
ENDBRANCH  28  29
ENDBRANCH  27  28
ENDBRANCH   9  27
TORSDOF 6
ENDMDL
MODEL 9
REMARK VINA RESULT:      -7.8      5.858      9.906
REMARK  Name = 
REMARK  6 active torsions:
REMARK  status: ('A' for Active; 'I' for Inactive)
REMARK    1  A    between atoms: C_7  and  C_8
REMARK    2  A    between atoms: N_13  and  C_14
REMARK    3  A    between atoms: N_19  and  C_20
REMARK    4  A    between atoms: C_20  and  C_21
REMARK    5  A    between atoms: C_21  and  O_22
REMARK    6  A    between atoms: O_22  and  C_23
REMARK                            x       y       z     vdW  Elec       q    Type
REMARK                         _______ _______ _______ _____ _____    ______ ____
ROOT
ATOM      1  C   UNL     1       1.044  13.157  20.320  0.00  0.00    +0.000 A 
ATOM      2  C   UNL     1      -0.166  13.852  20.569  0.00  0.00    +0.000 A 
ATOM      3  N   UNL     1      -1.229  13.284  19.974  0.00  0.00    +0.000 NA
ATOM      4  N   UNL     1      -0.679  12.204  19.365  0.00  0.00    +0.000 N 
ATOM      5  C   UNL     1      -1.384  11.282  18.578  0.00  0.00    +0.000 A 
ATOM      6  N   UNL     1      -2.741  11.492  18.426  0.00  0.00    +0.000 N 
ATOM      7  N   UNL     1      -0.713  10.298  18.042  0.00  0.00    +0.000 NA
ATOM      8  C   UNL     1       0.637  10.191  18.285  0.00  0.00    +0.000 A 
ATOM      9  N   UNL     1       1.252   9.114  17.727  0.00  0.00    +0.000 N 
ATOM     10  N   UNL     1       1.327  11.034  19.001  0.00  0.00    +0.000 NA
ATOM     11  C   UNL     1       0.664  12.079  19.552  0.00  0.00    +0.000 A 
ATOM     12  H   UNL     1      -3.102  12.366  18.805  0.00  0.00    +0.000 HD
ATOM     13  H   UNL     1       0.600   8.497  17.259  0.00  0.00    +0.000 HD
ENDROOT
BRANCH   1  20
ATOM     14  O   UNL     1       3.998  17.102  18.292  0.00  0.00    +0.000 OA
ATOM     15  C   UNL     1       3.933  16.206  19.119  0.00  0.00    +0.000 C 
ATOM     16  N   UNL     1       4.921  15.832  19.989  0.00  0.00    +0.000 N 
ATOM     17  C   UNL     1       4.549  14.744  20.735  0.00  0.00    +0.000 C 
ATOM     18  O   UNL     1       5.213  14.129  21.545  0.00  0.00    +0.000 OA
ATOM     19  C   UNL     1       3.149  14.449  20.299  0.00  0.00    +0.000 C 
ATOM     20  C   UNL     1       2.369  13.463  20.763  0.00  0.00    +0.000 C 
ATOM     21  N   UNL     1       2.853  15.377  19.341  0.00  0.00    +0.000 N 
ATOM     22  H   UNL     1       5.831  16.258  20.009  0.00  0.00    +0.000 HD
ATOM     23  H   UNL     1       2.017  15.370  18.768  0.00  0.00    +0.000 HD
ENDBRANCH   1  20
BRANCH   6  24
ATOM     24  C   UNL     1      -3.533  10.651  17.543  0.00  0.00    +0.000 C 
ATOM     25  C   UNL     1      -4.745  11.196  16.841  0.00  0.00    +0.000 C 
ATOM     26  C   UNL     1      -3.508  10.871  16.057  0.00  0.00    +0.000 C 
ENDBRANCH   6  24
BRANCH   9  27
ATOM     27  C   UNL     1       2.436   8.504  18.320  0.00  0.00    +0.000 C 
BRANCH  27  28
ATOM     28  C   UNL     1       2.031   7.562  19.454  0.00  0.00    +0.000 C 
BRANCH  28  29
ATOM     29  O   UNL     1       3.042   6.578  19.679  0.00  0.00    +0.000 OA
BRANCH  29  30
ATOM     30  C   UNL     1       2.617   5.273  19.644  0.00  0.00    +0.000 A 
ATOM     31  C   UNL     1       1.544   4.971  20.488  0.00  0.00    +0.000 A 
ATOM     32  C   UNL     1       1.023   3.674  20.540  0.00  0.00    +0.000 A 
ATOM     33  C   UNL     1       1.576   2.670  19.746  0.00  0.00    +0.000 A 
ATOM     34  C   UNL     1       2.645   2.970  18.907  0.00  0.00    +0.000 A 
ATOM     35 CL   UNL     1       3.335   1.737  17.924  0.00  0.00    +0.000 Cl
ATOM     36  C   UNL     1       3.165   4.263  18.851  0.00  0.00    +0.000 A 
ENDBRANCH  29  30
ENDBRANCH  28  29
ENDBRANCH  27  28
ENDBRANCH   9  27
TORSDOF 6
ENDMDL
