MODEL 1
REMARK VINA RESULT:      -6.7      0.000      0.000
REMARK  Name = 
REMARK  9 active torsions:
REMARK  status: ('A' for Active; 'I' for Inactive)
REMARK    1  A    between atoms: C_1  and  S_2
REMARK    2  A    between atoms: S_2  and  C_3
REMARK    3  A    between atoms: C_6  and  C_7
REMARK    4  A    between atoms: C_7  and  N_8
REMARK    5  A    between atoms: N_8  and  C_9
REMARK    6  A    between atoms: N_8  and  C_10
REMARK    7  A    between atoms: C_10  and  C_11
REMARK    8  A    between atoms: N_13  and  C_14
REMARK    9  A    between atoms: C_17  and  C_18
REMARK                            x       y       z     vdW  Elec       q    Type
REMARK                         _______ _______ _______ _____ _____    ______ ____
ROOT
ATOM      1  C   UNL     1       3.062   3.907  20.595  0.00  0.00    +0.000 C 
ENDROOT
BRANCH   1   2
ATOM      2  C   UNL     1       2.174   5.070  20.132  0.00  0.00    +0.000 C 
ATOM      3  O   UNL     1       1.140   4.879  19.495  0.00  0.00    +0.000 OA
ATOM      4  N   UNL     1       2.639   6.325  20.507  0.00  0.00    +0.000 N 
ATOM      5  H   UNL     1       3.644   6.425  20.572  0.00  0.00    +0.000 HD
BRANCH   4   6
ATOM      6  C   UNL     1       1.905   7.489  20.179  0.00  0.00    +0.000 A 
ATOM      7  C   UNL     1       0.975   8.000  21.093  0.00  0.00    +0.000 A 
ATOM      8  C   UNL     1       0.258   9.163  20.798  0.00  0.00    +0.000 A 
ATOM      9  C   UNL     1       0.463   9.832  19.580  0.00  0.00    +0.000 A 
ATOM     10  C   UNL     1      -0.325  11.050  19.226  0.00  0.00    +0.000 C 
ATOM     11  C   UNL     1       1.389   9.313  18.667  0.00  0.00    +0.000 A 
ATOM     12  C   UNL     1       2.108   8.162  18.966  0.00  0.00    +0.000 A 
ATOM     13 BR   UNL     1       3.222   7.429  17.610  0.00  0.00    +0.000 Br
ENDBRANCH   4   6
ENDBRANCH   1   2
BRANCH   1  14
ATOM     14  N   UNL     1       3.965   3.410  19.529  0.00  0.00    +0.000 NA
ATOM     15  C   UNL     1       4.412   2.047  19.837  0.00  0.00    +0.000 C 
BRANCH  14  16
ATOM     16  C   UNL     1       5.092   4.326  19.292  0.00  0.00    +0.000 C 
BRANCH  16  20
ATOM     17  C   UNL     1       6.506   4.526  15.212  0.00  0.00    +0.000 A 
ATOM     18  C   UNL     1       5.193   4.143  15.479  0.00  0.00    +0.000 A 
ATOM     19  C   UNL     1       4.740   4.064  16.798  0.00  0.00    +0.000 A 
ATOM     20  C   UNL     1       5.602   4.343  17.866  0.00  0.00    +0.000 A 
ATOM     21  C   UNL     1       6.940   4.661  17.590  0.00  0.00    +0.000 A 
ATOM     22  C   UNL     1       7.386   4.768  16.270  0.00  0.00    +0.000 A 
BRANCH  17  24
ATOM     23  C   UNL     1       5.988   3.521  12.711  0.00  0.00    +0.000 C 
ATOM     24  S   UNL     1       7.083   4.714  13.529  0.00  0.00    +0.000 S 
ENDBRANCH  17  24
ENDBRANCH  16  20
ENDBRANCH  14  16
ENDBRANCH   1  14
TORSDOF 6
ENDMDL
MODEL 2
REMARK VINA RESULT:      -6.6      1.148      1.609
REMARK  Name = 
REMARK  9 active torsions:
REMARK  status: ('A' for Active; 'I' for Inactive)
REMARK    1  A    between atoms: C_1  and  S_2
REMARK    2  A    between atoms: S_2  and  C_3
REMARK    3  A    between atoms: C_6  and  C_7
REMARK    4  A    between atoms: C_7  and  N_8
REMARK    5  A    between atoms: N_8  and  C_9
REMARK    6  A    between atoms: N_8  and  C_10
REMARK    7  A    between atoms: C_10  and  C_11
REMARK    8  A    between atoms: N_13  and  C_14
REMARK    9  A    between atoms: C_17  and  C_18
REMARK                            x       y       z     vdW  Elec       q    Type
REMARK                         _______ _______ _______ _____ _____    ______ ____
ROOT
ATOM      1  C   UNL     1       2.593   4.549  21.340  0.00  0.00    +0.000 C 
ENDROOT
BRANCH   1   2
ATOM      2  C   UNL     1       1.723   5.627  20.680  0.00  0.00    +0.000 C 
ATOM      3  O   UNL     1       0.647   5.354  20.151  0.00  0.00    +0.000 OA
ATOM      4  N   UNL     1       2.254   6.909  20.750  0.00  0.00    +0.000 N 
ATOM      5  H   UNL     1       3.264   6.972  20.743  0.00  0.00    +0.000 HD
BRANCH   4   6
ATOM      6  C   UNL     1       1.545   8.010  20.214  0.00  0.00    +0.000 A 
ATOM      7  C   UNL     1       0.562   8.641  20.985  0.00  0.00    +0.000 A 
ATOM      8  C   UNL     1      -0.132   9.746  20.484  0.00  0.00    +0.000 A 
ATOM      9  C   UNL     1       0.151  10.234  19.198  0.00  0.00    +0.000 A 
ATOM     10  C   UNL     1      -0.610  11.385  18.624  0.00  0.00    +0.000 C 
ATOM     11  C   UNL     1       1.131   9.595  18.427  0.00  0.00    +0.000 A 
ATOM     12  C   UNL     1       1.826   8.503  18.932  0.00  0.00    +0.000 A 
ATOM     13 BR   UNL     1       3.021   7.591  17.767  0.00  0.00    +0.000 Br
ENDBRANCH   4   6
ENDBRANCH   1   2
BRANCH   1  14
ATOM     14  N   UNL     1       2.406   3.207  20.738  0.00  0.00    +0.000 NA
ATOM     15  C   UNL     1       1.707   2.323  21.677  0.00  0.00    +0.000 C 
BRANCH  14  16
ATOM     16  C   UNL     1       3.676   2.632  20.269  0.00  0.00    +0.000 C 
BRANCH  16  20
ATOM     17  C   UNL     1       5.190   4.600  16.730  0.00  0.00    +0.000 A 
ATOM     18  C   UNL     1       4.118   3.715  16.634  0.00  0.00    +0.000 A 
ATOM     19  C   UNL     1       3.638   3.068  17.776  0.00  0.00    +0.000 A 
ATOM     20  C   UNL     1       4.241   3.279  19.022  0.00  0.00    +0.000 A 
ATOM     21  C   UNL     1       5.363   4.118  19.097  0.00  0.00    +0.000 A 
ATOM     22  C   UNL     1       5.825   4.787  17.962  0.00  0.00    +0.000 A 
BRANCH  17  24
ATOM     23  C   UNL     1       6.029   4.110  14.164  0.00  0.00    +0.000 C 
ATOM     24  S   UNL     1       5.769   5.502  15.298  0.00  0.00    +0.000 S 
ENDBRANCH  17  24
ENDBRANCH  16  20
ENDBRANCH  14  16
ENDBRANCH   1  14
TORSDOF 6
ENDMDL
MODEL 3
REMARK VINA RESULT:      -6.5      0.421      1.090
REMARK  Name = 
REMARK  9 active torsions:
REMARK  status: ('A' for Active; 'I' for Inactive)
REMARK    1  A    between atoms: C_1  and  S_2
REMARK    2  A    between atoms: S_2  and  C_3
REMARK    3  A    between atoms: C_6  and  C_7
REMARK    4  A    between atoms: C_7  and  N_8
REMARK    5  A    between atoms: N_8  and  C_9
REMARK    6  A    between atoms: N_8  and  C_10
REMARK    7  A    between atoms: C_10  and  C_11
REMARK    8  A    between atoms: N_13  and  C_14
REMARK    9  A    between atoms: C_17  and  C_18
REMARK                            x       y       z     vdW  Elec       q    Type
REMARK                         _______ _______ _______ _____ _____    ______ ____
ROOT
ATOM      1  C   UNL     1       2.787   3.659  20.840  0.00  0.00    +0.000 C 
ENDROOT
BRANCH   1   2
ATOM      2  C   UNL     1       1.895   4.864  20.506  0.00  0.00    +0.000 C 
ATOM      3  O   UNL     1       0.723   4.723  20.163  0.00  0.00    +0.000 OA
ATOM      4  N   UNL     1       2.527   6.093  20.639  0.00  0.00    +0.000 N 
ATOM      5  H   UNL     1       3.520   6.106  20.445  0.00  0.00    +0.000 HD
BRANCH   4   6
ATOM      6  C   UNL     1       1.818   7.294  20.398  0.00  0.00    +0.000 A 
ATOM      7  C   UNL     1       0.916   7.769  21.357  0.00  0.00    +0.000 A 
ATOM      8  C   UNL     1       0.224   8.966  21.149  0.00  0.00    +0.000 A 
ATOM      9  C   UNL     1       0.428   9.705  19.972  0.00  0.00    +0.000 A 
ATOM     10  C   UNL     1      -0.335  10.962  19.708  0.00  0.00    +0.000 C 
ATOM     11  C   UNL     1       1.326   9.222  19.012  0.00  0.00    +0.000 A 
ATOM     12  C   UNL     1       2.020   8.037  19.226  0.00  0.00    +0.000 A 
ATOM     13 BR   UNL     1       3.094   7.364  17.808  0.00  0.00    +0.000 Br
ENDBRANCH   4   6
ENDBRANCH   1   2
BRANCH   1  14
ATOM     14  N   UNL     1       3.698   3.290  19.730  0.00  0.00    +0.000 NA
ATOM     15  C   UNL     1       4.149   1.903  19.884  0.00  0.00    +0.000 C 
BRANCH  14  16
ATOM     16  C   UNL     1       4.822   4.231  19.605  0.00  0.00    +0.000 C 
BRANCH  16  20
ATOM     17  C   UNL     1       6.409   4.530  15.594  0.00  0.00    +0.000 A 
ATOM     18  C   UNL     1       7.205   4.864  16.688  0.00  0.00    +0.000 A 
ATOM     19  C   UNL     1       6.688   4.781  17.983  0.00  0.00    +0.000 A 
ATOM     20  C   UNL     1       5.361   4.388  18.197  0.00  0.00    +0.000 A 
ATOM     21  C   UNL     1       4.547   4.120  17.087  0.00  0.00    +0.000 A 
ATOM     22  C   UNL     1       5.072   4.175  15.794  0.00  0.00    +0.000 A 
BRANCH  17  24
ATOM     23  C   UNL     1       5.762   3.626  13.086  0.00  0.00    +0.000 C 
ATOM     24  S   UNL     1       7.074   4.548  13.934  0.00  0.00    +0.000 S 
ENDBRANCH  17  24
ENDBRANCH  16  20
ENDBRANCH  14  16
ENDBRANCH   1  14
TORSDOF 6
ENDMDL
MODEL 4
REMARK VINA RESULT:      -6.3      1.043      1.642
REMARK  Name = 
REMARK  9 active torsions:
REMARK  status: ('A' for Active; 'I' for Inactive)
REMARK    1  A    between atoms: C_1  and  S_2
REMARK    2  A    between atoms: S_2  and  C_3
REMARK    3  A    between atoms: C_6  and  C_7
REMARK    4  A    between atoms: C_7  and  N_8
REMARK    5  A    between atoms: N_8  and  C_9
REMARK    6  A    between atoms: N_8  and  C_10
REMARK    7  A    between atoms: C_10  and  C_11
REMARK    8  A    between atoms: N_13  and  C_14
REMARK    9  A    between atoms: C_17  and  C_18
REMARK                            x       y       z     vdW  Elec       q    Type
REMARK                         _______ _______ _______ _____ _____    ______ ____
ROOT
ATOM      1  C   UNL     1       2.514   4.509  21.316  0.00  0.00    +0.000 C 
ENDROOT
BRANCH   1   2
ATOM      2  C   UNL     1       1.688   5.643  20.693  0.00  0.00    +0.000 C 
ATOM      3  O   UNL     1       0.542   5.458  20.286  0.00  0.00    +0.000 OA
ATOM      4  N   UNL     1       2.343   6.867  20.649  0.00  0.00    +0.000 N 
ATOM      5  H   UNL     1       3.348   6.829  20.540  0.00  0.00    +0.000 HD
BRANCH   4   6
ATOM      6  C   UNL     1       1.691   8.012  20.133  0.00  0.00    +0.000 A 
ATOM      7  C   UNL     1       0.801   8.725  20.944  0.00  0.00    +0.000 A 
ATOM      8  C   UNL     1       0.165   9.873  20.461  0.00  0.00    +0.000 A 
ATOM      9  C   UNL     1       0.416  10.323  19.154  0.00  0.00    +0.000 A 
ATOM     10  C   UNL     1      -0.287  11.520  18.602  0.00  0.00    +0.000 C 
ATOM     11  C   UNL     1       1.302   9.601  18.344  0.00  0.00    +0.000 A 
ATOM     12  C   UNL     1       1.940   8.466  18.830  0.00  0.00    +0.000 A 
ATOM     13 BR   UNL     1       2.998   7.451  17.620  0.00  0.00    +0.000 Br
ENDBRANCH   4   6
ENDBRANCH   1   2
BRANCH   1  14
ATOM     14  N   UNL     1       2.649   3.334  20.422  0.00  0.00    +0.000 NA
ATOM     15  C   UNL     1       1.858   2.211  20.938  0.00  0.00    +0.000 C 
BRANCH  14  16
ATOM     16  C   UNL     1       4.057   2.970  20.201  0.00  0.00    +0.000 C 
BRANCH  16  20
ATOM     17  C   UNL     1       5.926   4.558  16.641  0.00  0.00    +0.000 A 
ATOM     18  C   UNL     1       6.363   4.963  17.901  0.00  0.00    +0.000 A 
ATOM     19  C   UNL     1       5.749   4.461  19.051  0.00  0.00    +0.000 A 
ATOM     20  C   UNL     1       4.676   3.567  18.954  0.00  0.00    +0.000 A 
ATOM     21  C   UNL     1       4.198   3.219  17.682  0.00  0.00    +0.000 A 
ATOM     22  C   UNL     1       4.829   3.698  16.532  0.00  0.00    +0.000 A 
BRANCH  17  24
ATOM     23  C   UNL     1       5.949   4.032  13.948  0.00  0.00    +0.000 C 
ATOM     24  S   UNL     1       6.750   5.123  15.157  0.00  0.00    +0.000 S 
ENDBRANCH  17  24
ENDBRANCH  16  20
ENDBRANCH  14  16
ENDBRANCH   1  14
TORSDOF 6
ENDMDL
MODEL 5
REMARK VINA RESULT:      -6.2      2.263      2.941
REMARK  Name = 
REMARK  9 active torsions:
REMARK  status: ('A' for Active; 'I' for Inactive)
REMARK    1  A    between atoms: C_1  and  S_2
REMARK    2  A    between atoms: S_2  and  C_3
REMARK    3  A    between atoms: C_6  and  C_7
REMARK    4  A    between atoms: C_7  and  N_8
REMARK    5  A    between atoms: N_8  and  C_9
REMARK    6  A    between atoms: N_8  and  C_10
REMARK    7  A    between atoms: C_10  and  C_11
REMARK    8  A    between atoms: N_13  and  C_14
REMARK    9  A    between atoms: C_17  and  C_18
REMARK                            x       y       z     vdW  Elec       q    Type
REMARK                         _______ _______ _______ _____ _____    ______ ____
ROOT
ATOM      1  C   UNL     1       3.185   4.182  20.075  0.00  0.00    +0.000 C 
ENDROOT
BRANCH   1   2
ATOM      2  C   UNL     1       2.131   5.283  20.256  0.00  0.00    +0.000 C 
ATOM      3  O   UNL     1       0.948   5.017  20.463  0.00  0.00    +0.000 OA
ATOM      4  N   UNL     1       2.637   6.574  20.177  0.00  0.00    +0.000 N 
ATOM      5  H   UNL     1       3.431   6.704  19.562  0.00  0.00    +0.000 HD
BRANCH   4   6
ATOM      6  C   UNL     1       1.787   7.691  20.359  0.00  0.00    +0.000 A 
ATOM      7  C   UNL     1       1.114   7.857  21.575  0.00  0.00    +0.000 A 
ATOM      8  C   UNL     1       0.289   8.966  21.784  0.00  0.00    +0.000 A 
ATOM      9  C   UNL     1       0.128   9.927  20.772  0.00  0.00    +0.000 A 
ATOM     10  C   UNL     1      -0.784  11.096  20.957  0.00  0.00    +0.000 C 
ATOM     11  C   UNL     1       0.798   9.753  19.555  0.00  0.00    +0.000 A 
ATOM     12  C   UNL     1       1.625   8.655  19.354  0.00  0.00    +0.000 A 
ATOM     13 BR   UNL     1       2.368   8.404  17.621  0.00  0.00    +0.000 Br
ENDBRANCH   4   6
ENDBRANCH   1   2
BRANCH   1  14
ATOM     14  N   UNL     1       3.847   4.229  18.749  0.00  0.00    +0.000 NA
ATOM     15  C   UNL     1       3.268   3.219  17.857  0.00  0.00    +0.000 C 
BRANCH  14  16
ATOM     16  C   UNL     1       5.309   4.104  18.860  0.00  0.00    +0.000 C 
BRANCH  16  20
ATOM     17  C   UNL     1       7.440   7.724  17.840  0.00  0.00    +0.000 A 
ATOM     18  C   UNL     1       6.224   7.432  17.225  0.00  0.00    +0.000 A 
ATOM     19  C   UNL     1       5.543   6.255  17.544  0.00  0.00    +0.000 A 
ATOM     20  C   UNL     1       6.081   5.345  18.462  0.00  0.00    +0.000 A 
ATOM     21  C   UNL     1       7.338   5.615  19.025  0.00  0.00    +0.000 A 
ATOM     22  C   UNL     1       8.006   6.805  18.728  0.00  0.00    +0.000 A 
BRANCH  17  24
ATOM     23  C   UNL     1       8.987   9.569  19.158  0.00  0.00    +0.000 C 
ATOM     24  S   UNL     1       8.290   9.263  17.510  0.00  0.00    +0.000 S 
ENDBRANCH  17  24
ENDBRANCH  16  20
ENDBRANCH  14  16
ENDBRANCH   1  14
TORSDOF 6
ENDMDL
MODEL 6
REMARK VINA RESULT:      -6.1      1.319      2.025
REMARK  Name = 
REMARK  9 active torsions:
REMARK  status: ('A' for Active; 'I' for Inactive)
REMARK    1  A    between atoms: C_1  and  S_2
REMARK    2  A    between atoms: S_2  and  C_3
REMARK    3  A    between atoms: C_6  and  C_7
REMARK    4  A    between atoms: C_7  and  N_8
REMARK    5  A    between atoms: N_8  and  C_9
REMARK    6  A    between atoms: N_8  and  C_10
REMARK    7  A    between atoms: C_10  and  C_11
REMARK    8  A    between atoms: N_13  and  C_14
REMARK    9  A    between atoms: C_17  and  C_18
REMARK                            x       y       z     vdW  Elec       q    Type
REMARK                         _______ _______ _______ _____ _____    ______ ____
ROOT
ATOM      1  C   UNL     1       2.825   4.794  20.528  0.00  0.00    +0.000 C 
ENDROOT
BRANCH   1   2
ATOM      2  C   UNL     1       1.757   5.897  20.523  0.00  0.00    +0.000 C 
ATOM      3  O   UNL     1       0.558   5.635  20.440  0.00  0.00    +0.000 OA
ATOM      4  N   UNL     1       2.268   7.184  20.632  0.00  0.00    +0.000 N 
ATOM      5  H   UNL     1       3.181   7.335  20.223  0.00  0.00    +0.000 HD
BRANCH   4   6
ATOM      6  C   UNL     1       1.400   8.300  20.677  0.00  0.00    +0.000 A 
ATOM      7  C   UNL     1       0.720   8.601  21.863  0.00  0.00    +0.000 A 
ATOM      8  C   UNL     1      -0.124   9.713  21.935  0.00  0.00    +0.000 A 
ATOM      9  C   UNL     1      -0.298  10.542  20.814  0.00  0.00    +0.000 A 
ATOM     10  C   UNL     1      -1.230  11.709  20.854  0.00  0.00    +0.000 C 
ATOM     11  C   UNL     1       0.379  10.232  19.627  0.00  0.00    +0.000 A 
ATOM     12  C   UNL     1       1.224   9.132  19.561  0.00  0.00    +0.000 A 
ATOM     13 BR   UNL     1       1.976   8.684  17.873  0.00  0.00    +0.000 Br
ENDBRANCH   4   6
ENDBRANCH   1   2
BRANCH   1  14
ATOM     14  N   UNL     1       2.247   3.431  20.446  0.00  0.00    +0.000 NA
ATOM     15  C   UNL     1       2.055   2.880  21.793  0.00  0.00    +0.000 C 
BRANCH  14  16
ATOM     16  C   UNL     1       3.048   2.544  19.589  0.00  0.00    +0.000 C 
BRANCH  16  20
ATOM     17  C   UNL     1       5.763   4.455  16.821  0.00  0.00    +0.000 A 
ATOM     18  C   UNL     1       6.064   4.416  18.181  0.00  0.00    +0.000 A 
ATOM     19  C   UNL     1       5.180   3.811  19.077  0.00  0.00    +0.000 A 
ATOM     20  C   UNL     1       3.973   3.261  18.627  0.00  0.00    +0.000 A 
ATOM     21  C   UNL     1       3.647   3.366  17.267  0.00  0.00    +0.000 A 
ATOM     22  C   UNL     1       4.544   3.946  16.366  0.00  0.00    +0.000 A 
BRANCH  17  24
ATOM     23  C   UNL     1       6.372   4.275  14.151  0.00  0.00    +0.000 C 
ATOM     24  S   UNL     1       6.917   5.150  15.644  0.00  0.00    +0.000 S 
ENDBRANCH  17  24
ENDBRANCH  16  20
ENDBRANCH  14  16
ENDBRANCH   1  14
TORSDOF 6
ENDMDL
MODEL 7
REMARK VINA RESULT:      -6.0      1.929      2.476
REMARK  Name = 
REMARK  9 active torsions:
REMARK  status: ('A' for Active; 'I' for Inactive)
REMARK    1  A    between atoms: C_1  and  S_2
REMARK    2  A    between atoms: S_2  and  C_3
REMARK    3  A    between atoms: C_6  and  C_7
REMARK    4  A    between atoms: C_7  and  N_8
REMARK    5  A    between atoms: N_8  and  C_9
REMARK    6  A    between atoms: N_8  and  C_10
REMARK    7  A    between atoms: C_10  and  C_11
REMARK    8  A    between atoms: N_13  and  C_14
REMARK    9  A    between atoms: C_17  and  C_18
REMARK                            x       y       z     vdW  Elec       q    Type
REMARK                         _______ _______ _______ _____ _____    ______ ____
ROOT
ATOM      1  C   UNL     1       2.036   5.223  20.870  0.00  0.00    +0.000 C 
ENDROOT
BRANCH   1   2
ATOM      2  C   UNL     1       2.060   6.621  20.235  0.00  0.00    +0.000 C 
ATOM      3  O   UNL     1       2.794   6.886  19.285  0.00  0.00    +0.000 OA
ATOM      4  N   UNL     1       1.183   7.525  20.820  0.00  0.00    +0.000 N 
ATOM      5  H   UNL     1       1.010   7.401  21.809  0.00  0.00    +0.000 HD
BRANCH   4   6
ATOM      6  C   UNL     1       1.071   8.843  20.317  0.00  0.00    +0.000 A 
ATOM      7  C   UNL     1       1.502   9.126  19.016  0.00  0.00    +0.000 A 
ATOM      8  C   UNL     1       1.377  10.416  18.491  0.00  0.00    +0.000 A 
ATOM      9  C   UNL     1       0.815  11.443  19.268  0.00  0.00    +0.000 A 
ATOM     10  C   UNL     1       0.714  12.839  18.744  0.00  0.00    +0.000 C 
ATOM     11  C   UNL     1       0.392  11.157  20.572  0.00  0.00    +0.000 A 
ATOM     12  C   UNL     1       0.508   9.872  21.087  0.00  0.00    +0.000 A 
ATOM     13 BR   UNL     1       0.065   9.601  22.916  0.00  0.00    +0.000 Br
ENDBRANCH   4   6
ENDBRANCH   1   2
BRANCH   1  14
ATOM     14  N   UNL     1       2.116   4.133  19.868  0.00  0.00    +0.000 NA
ATOM     15  C   UNL     1       0.981   3.217  20.025  0.00  0.00    +0.000 C 
BRANCH  14  16
ATOM     16  C   UNL     1       3.409   3.433  19.919  0.00  0.00    +0.000 C 
BRANCH  16  20
ATOM     17  C   UNL     1       5.960   4.386  16.561  0.00  0.00    +0.000 A 
ATOM     18  C   UNL     1       4.766   3.697  16.359  0.00  0.00    +0.000 A 
ATOM     19  C   UNL     1       3.948   3.376  17.445  0.00  0.00    +0.000 A 
ATOM     20  C   UNL     1       4.328   3.719  18.749  0.00  0.00    +0.000 A 
ATOM     21  C   UNL     1       5.565   4.351  18.950  0.00  0.00    +0.000 A 
ATOM     22  C   UNL     1       6.368   4.697  17.861  0.00  0.00    +0.000 A 
BRANCH  17  24
ATOM     23  C   UNL     1       6.141   3.966  13.855  0.00  0.00    +0.000 C 
ATOM     24  S   UNL     1       6.982   4.880  15.179  0.00  0.00    +0.000 S 
ENDBRANCH  17  24
ENDBRANCH  16  20
ENDBRANCH  14  16
ENDBRANCH   1  14
TORSDOF 6
ENDMDL
MODEL 8
REMARK VINA RESULT:      -6.0      3.601      5.504
REMARK  Name = 
REMARK  9 active torsions:
REMARK  status: ('A' for Active; 'I' for Inactive)
REMARK    1  A    between atoms: C_1  and  S_2
REMARK    2  A    between atoms: S_2  and  C_3
REMARK    3  A    between atoms: C_6  and  C_7
REMARK    4  A    between atoms: C_7  and  N_8
REMARK    5  A    between atoms: N_8  and  C_9
REMARK    6  A    between atoms: N_8  and  C_10
REMARK    7  A    between atoms: C_10  and  C_11
REMARK    8  A    between atoms: N_13  and  C_14
REMARK    9  A    between atoms: C_17  and  C_18
REMARK                            x       y       z     vdW  Elec       q    Type
REMARK                         _______ _______ _______ _____ _____    ______ ____
ROOT
ATOM      1  C   UNL     1       1.539   9.867  18.738  0.00  0.00    +0.000 C 
ENDROOT
BRANCH   1   2
ATOM      2  C   UNL     1       0.297  10.402  19.465  0.00  0.00    +0.000 C 
ATOM      3  O   UNL     1      -0.840  10.109  19.100  0.00  0.00    +0.000 OA
ATOM      4  N   UNL     1       0.581  11.217  20.553  0.00  0.00    +0.000 N 
ATOM      5  H   UNL     1       1.428  11.767  20.487  0.00  0.00    +0.000 HD
BRANCH   4   6
ATOM      6  C   UNL     1      -0.465  11.755  21.339  0.00  0.00    +0.000 A 
ATOM      7  C   UNL     1      -1.056  12.968  20.968  0.00  0.00    +0.000 A 
ATOM      8  C   UNL     1      -2.107  13.504  21.718  0.00  0.00    +0.000 A 
ATOM      9  C   UNL     1      -2.582  12.827  22.854  0.00  0.00    +0.000 A 
ATOM     10  C   UNL     1      -3.674  13.403  23.696  0.00  0.00    +0.000 C 
ATOM     11  C   UNL     1      -1.983  11.616  23.225  0.00  0.00    +0.000 A 
ATOM     12  C   UNL     1      -0.944  11.082  22.472  0.00  0.00    +0.000 A 
ATOM     13 BR   UNL     1      -0.076   9.524  23.132  0.00  0.00    +0.000 Br
ENDBRANCH   4   6
ENDBRANCH   1   2
BRANCH   1  14
ATOM     14  N   UNL     1       1.672   8.393  18.831  0.00  0.00    +0.000 NA
ATOM     15  C   UNL     1       1.810   7.984  20.233  0.00  0.00    +0.000 C 
BRANCH  14  16
ATOM     16  C   UNL     1       2.768   7.886  17.992  0.00  0.00    +0.000 C 
BRANCH  16  20
ATOM     17  C   UNL     1       3.357   3.621  18.383  0.00  0.00    +0.000 A 
ATOM     18  C   UNL     1       4.423   4.495  18.581  0.00  0.00    +0.000 A 
ATOM     19  C   UNL     1       4.237   5.873  18.440  0.00  0.00    +0.000 A 
ATOM     20  C   UNL     1       2.987   6.389  18.076  0.00  0.00    +0.000 A 
ATOM     21  C   UNL     1       1.937   5.497  17.811  0.00  0.00    +0.000 A 
ATOM     22  C   UNL     1       2.116   4.122  17.980  0.00  0.00    +0.000 A 
BRANCH  17  24
ATOM     23  C   UNL     1       4.510   1.896  20.178  0.00  0.00    +0.000 C 
ATOM     24  S   UNL     1       3.551   1.861  18.639  0.00  0.00    +0.000 S 
ENDBRANCH  17  24
ENDBRANCH  16  20
ENDBRANCH  14  16
ENDBRANCH   1  14
TORSDOF 6
ENDMDL
MODEL 9
REMARK VINA RESULT:      -5.9      3.344      4.918
REMARK  Name = 
REMARK  9 active torsions:
REMARK  status: ('A' for Active; 'I' for Inactive)
REMARK    1  A    between atoms: C_1  and  S_2
REMARK    2  A    between atoms: S_2  and  C_3
REMARK    3  A    between atoms: C_6  and  C_7
REMARK    4  A    between atoms: C_7  and  N_8
REMARK    5  A    between atoms: N_8  and  C_9
REMARK    6  A    between atoms: N_8  and  C_10
REMARK    7  A    between atoms: C_10  and  C_11
REMARK    8  A    between atoms: N_13  and  C_14
REMARK    9  A    between atoms: C_17  and  C_18
REMARK                            x       y       z     vdW  Elec       q    Type
REMARK                         _______ _______ _______ _____ _____    ______ ____
ROOT
ATOM      1  C   UNL     1       7.870   5.383  17.884  0.00  0.00    +0.000 C 
ENDROOT
BRANCH   1   2
ATOM      2  C   UNL     1       6.728   5.048  18.854  0.00  0.00    +0.000 C 
ATOM      3  O   UNL     1       6.743   5.425  20.024  0.00  0.00    +0.000 OA
ATOM      4  N   UNL     1       5.700   4.306  18.286  0.00  0.00    +0.000 N 
ATOM      5  H   UNL     1       5.967   3.667  17.549  0.00  0.00    +0.000 HD
BRANCH   4   6
ATOM      6  C   UNL     1       4.563   3.953  19.052  0.00  0.00    +0.000 A 
ATOM      7  C   UNL     1       4.548   2.739  19.748  0.00  0.00    +0.000 A 
ATOM      8  C   UNL     1       3.445   2.383  20.530  0.00  0.00    +0.000 A 
ATOM      9  C   UNL     1       2.338   3.243  20.624  0.00  0.00    +0.000 A 
ATOM     10  C   UNL     1       1.130   2.862  21.416  0.00  0.00    +0.000 C 
ATOM     11  C   UNL     1       2.355   4.454  19.919  0.00  0.00    +0.000 A 
ATOM     12  C   UNL     1       3.457   4.809  19.151  0.00  0.00    +0.000 A 
ATOM     13 BR   UNL     1       3.337   6.387  18.096  0.00  0.00    +0.000 Br
ENDBRANCH   4   6
ENDBRANCH   1   2
BRANCH   1  14
ATOM     14  N   UNL     1       7.540   6.500  16.967  0.00  0.00    +0.000 NA
ATOM     15  C   UNL     1       7.726   7.786  17.647  0.00  0.00    +0.000 C 
BRANCH  14  16
ATOM     16  C   UNL     1       6.192   6.361  16.395  0.00  0.00    +0.000 C 
BRANCH  16  20
ATOM     17  C   UNL     1       6.014   3.688  13.002  0.00  0.00    +0.000 A 
ATOM     18  C   UNL     1       7.177   4.409  13.264  0.00  0.00    +0.000 A 
ATOM     19  C   UNL     1       7.230   5.283  14.352  0.00  0.00    +0.000 A 
ATOM     20  C   UNL     1       6.112   5.466  15.175  0.00  0.00    +0.000 A 
ATOM     21  C   UNL     1       4.924   4.788  14.863  0.00  0.00    +0.000 A 
ATOM     22  C   UNL     1       4.880   3.892  13.793  0.00  0.00    +0.000 A 
BRANCH  17  24
ATOM     23  C   UNL     1       4.244   2.776  11.114  0.00  0.00    +0.000 C 
ATOM     24  S   UNL     1       5.950   2.500  11.666  0.00  0.00    +0.000 S 
ENDBRANCH  17  24
ENDBRANCH  16  20
ENDBRANCH  14  16
ENDBRANCH   1  14
TORSDOF 6
ENDMDL
