MODEL 1
REMARK VINA RESULT:      -7.6      0.000      0.000
REMARK  Name = 
REMARK  5 active torsions:
REMARK  status: ('A' for Active; 'I' for Inactive)
REMARK    1  A    between atoms: C_1  and  O_2
REMARK    2  A    between atoms: O_2  and  C_3
REMARK    3  A    between atoms: C_6  and  C_7
REMARK    4  A    between atoms: C_11  and  O_12
REMARK    5  A    between atoms: C_11  and  C_13
REMARK                            x       y       z     vdW  Elec       q    Type
REMARK                         _______ _______ _______ _____ _____    ______ ____
ROOT
ATOM      1  C   UNL     1       5.496   4.341  18.543  0.00  0.00    +0.000 C 
ATOM      2  O   UNL     1       6.173   4.707  19.496  0.00  0.00    +0.000 OA
ATOM      3  N   UNL     1       4.290   3.707  18.669  0.00  0.00    +0.000 N 
ATOM      4  C   UNL     1       3.560   3.325  19.869  0.00  0.00    +0.000 C 
ATOM      5  C   UNL     1       2.504   2.762  18.877  0.00  0.00    +0.000 C 
ATOM      6  C   UNL     1       3.072   3.789  17.870  0.00  0.00    +0.000 C 
ENDROOT
BRANCH   1  10
ATOM      7  C   UNL     1       6.952   5.005  14.651  0.00  0.00    +0.000 A 
ATOM      8  C   UNL     1       6.031   3.982  14.833  0.00  0.00    +0.000 A 
ATOM      9  C   UNL     1       5.530   3.755  16.114  0.00  0.00    +0.000 A 
ATOM     10  C   UNL     1       5.984   4.549  17.165  0.00  0.00    +0.000 A 
ATOM     11  C   UNL     1       6.877   5.573  16.877  0.00  0.00    +0.000 A 
ATOM     12  N   UNL     1       7.382   5.810  15.645  0.00  0.00    +0.000 NA
BRANCH   7  14
ATOM     13  C   UNL     1       6.984   4.180  12.467  0.00  0.00    +0.000 C 
ATOM     14  O   UNL     1       7.444   5.180  13.373  0.00  0.00    +0.000 OA
ENDBRANCH   7  14
ENDBRANCH   1  10
BRANCH   5  15
ATOM     15  C   UNL     1       1.066   3.033  19.278  0.00  0.00    +0.000 C 
ATOM     16  F   UNL     1       0.237   2.246  18.543  0.00  0.00    +0.000 F 
ATOM     17  F   UNL     1       0.908   2.649  20.573  0.00  0.00    +0.000 F 
ENDBRANCH   5  15
BRANCH   5  18
ATOM     18  O   UNL     1       2.692   1.366  18.486  0.00  0.00    +0.000 OA
ATOM     19  H   UNL     1       3.630   1.174  18.669  0.00  0.00    +0.000 HD
ENDBRANCH   5  18
TORSDOF 4
ENDMDL
MODEL 2
REMARK VINA RESULT:      -7.3      3.322      6.361
REMARK  Name = 
REMARK  5 active torsions:
REMARK  status: ('A' for Active; 'I' for Inactive)
REMARK    1  A    between atoms: C_1  and  O_2
REMARK    2  A    between atoms: O_2  and  C_3
REMARK    3  A    between atoms: C_6  and  C_7
REMARK    4  A    between atoms: C_11  and  O_12
REMARK    5  A    between atoms: C_11  and  C_13
REMARK                            x       y       z     vdW  Elec       q    Type
REMARK                         _______ _______ _______ _____ _____    ______ ____
ROOT
ATOM      1  C   UNL     1       6.197   4.668  18.438  0.00  0.00    +0.000 C 
ATOM      2  O   UNL     1       7.223   4.817  19.091  0.00  0.00    +0.000 OA
ATOM      3  N   UNL     1       6.147   4.747  17.073  0.00  0.00    +0.000 N 
ATOM      4  C   UNL     1       7.212   5.015  16.118  0.00  0.00    +0.000 C 
ATOM      5  C   UNL     1       6.095   4.874  15.047  0.00  0.00    +0.000 C 
ATOM      6  C   UNL     1       5.362   4.004  16.094  0.00  0.00    +0.000 C 
ENDROOT
BRANCH   1  10
ATOM      7  C   UNL     1       2.516   4.050  20.384  0.00  0.00    +0.000 A 
ATOM      8  C   UNL     1       3.300   2.936  20.109  0.00  0.00    +0.000 A 
ATOM      9  C   UNL     1       4.528   3.124  19.475  0.00  0.00    +0.000 A 
ATOM     10  C   UNL     1       4.913   4.415  19.124  0.00  0.00    +0.000 A 
ATOM     11  C   UNL     1       4.080   5.470  19.476  0.00  0.00    +0.000 A 
ATOM     12  N   UNL     1       2.882   5.314  20.085  0.00  0.00    +0.000 NA
BRANCH   7  14
ATOM     13  C   UNL     1       1.296   2.638  21.787  0.00  0.00    +0.000 C 
ATOM     14  O   UNL     1       1.298   3.819  20.989  0.00  0.00    +0.000 OA
ENDBRANCH   7  14
ENDBRANCH   1  10
BRANCH   5  15
ATOM     15  C   UNL     1       6.515   4.109  13.806  0.00  0.00    +0.000 C 
ATOM     16  F   UNL     1       5.417   3.830  13.055  0.00  0.00    +0.000 F 
ATOM     17  F   UNL     1       7.298   4.923  13.050  0.00  0.00    +0.000 F 
ENDBRANCH   5  15
BRANCH   5  18
ATOM     18  O   UNL     1       5.400   6.111  14.697  0.00  0.00    +0.000 OA
ATOM     19  H   UNL     1       6.036   6.619  14.162  0.00  0.00    +0.000 HD
ENDBRANCH   5  18
TORSDOF 4
ENDMDL
MODEL 3
REMARK VINA RESULT:      -7.3      3.351      6.473
REMARK  Name = 
REMARK  5 active torsions:
REMARK  status: ('A' for Active; 'I' for Inactive)
REMARK    1  A    between atoms: C_1  and  O_2
REMARK    2  A    between atoms: O_2  and  C_3
REMARK    3  A    between atoms: C_6  and  C_7
REMARK    4  A    between atoms: C_11  and  O_12
REMARK    5  A    between atoms: C_11  and  C_13
REMARK                            x       y       z     vdW  Elec       q    Type
REMARK                         _______ _______ _______ _____ _____    ______ ____
ROOT
ATOM      1  C   UNL     1       6.058   4.775  18.637  0.00  0.00    +0.000 C 
ATOM      2  O   UNL     1       7.044   4.945  19.344  0.00  0.00    +0.000 OA
ATOM      3  N   UNL     1       6.076   4.879  17.272  0.00  0.00    +0.000 N 
ATOM      4  C   UNL     1       7.178   5.201  16.378  0.00  0.00    +0.000 C 
ATOM      5  C   UNL     1       6.122   5.043  15.249  0.00  0.00    +0.000 C 
ATOM      6  C   UNL     1       5.366   4.130  16.241  0.00  0.00    +0.000 C 
ENDROOT
BRANCH   1  10
ATOM      7  C   UNL     1       2.362   3.802  20.398  0.00  0.00    +0.000 A 
ATOM      8  C   UNL     1       2.617   5.139  20.122  0.00  0.00    +0.000 A 
ATOM      9  C   UNL     1       3.832   5.478  19.528  0.00  0.00    +0.000 A 
ATOM     10  C   UNL     1       4.751   4.468  19.251  0.00  0.00    +0.000 A 
ATOM     11  C   UNL     1       4.389   3.156  19.527  0.00  0.00    +0.000 A 
ATOM     12  N   UNL     1       3.220   2.801  20.108  0.00  0.00    +0.000 NA
BRANCH   7  14
ATOM     13  C   UNL     1       1.278   2.488  21.996  0.00  0.00    +0.000 C 
ATOM     14  O   UNL     1       1.159   3.511  21.009  0.00  0.00    +0.000 OA
ENDBRANCH   7  14
ENDBRANCH   1  10
BRANCH   5  15
ATOM     15  C   UNL     1       6.631   4.317  14.018  0.00  0.00    +0.000 C 
ATOM     16  F   UNL     1       5.579   3.987  13.223  0.00  0.00    +0.000 F 
ATOM     17  F   UNL     1       7.396   5.181  13.301  0.00  0.00    +0.000 F 
ENDBRANCH   5  15
BRANCH   5  18
ATOM     18  O   UNL     1       5.405   6.264  14.886  0.00  0.00    +0.000 OA
ATOM     19  H   UNL     1       4.570   6.228  15.386  0.00  0.00    +0.000 HD
ENDBRANCH   5  18
TORSDOF 4
ENDMDL
MODEL 4
REMARK VINA RESULT:      -7.1      2.276      3.410
REMARK  Name = 
REMARK  5 active torsions:
REMARK  status: ('A' for Active; 'I' for Inactive)
REMARK    1  A    between atoms: C_1  and  O_2
REMARK    2  A    between atoms: O_2  and  C_3
REMARK    3  A    between atoms: C_6  and  C_7
REMARK    4  A    between atoms: C_11  and  O_12
REMARK    5  A    between atoms: C_11  and  C_13
REMARK                            x       y       z     vdW  Elec       q    Type
REMARK                         _______ _______ _______ _____ _____    ______ ____
ROOT
ATOM      1  C   UNL     1       5.193   4.110  16.736  0.00  0.00    +0.000 C 
ATOM      2  O   UNL     1       5.530   3.401  15.794  0.00  0.00    +0.000 OA
ATOM      3  N   UNL     1       3.981   4.010  17.364  0.00  0.00    +0.000 N 
ATOM      4  C   UNL     1       2.865   3.115  17.096  0.00  0.00    +0.000 C 
ATOM      5  C   UNL     1       2.176   3.848  18.280  0.00  0.00    +0.000 C 
ATOM      6  C   UNL     1       3.609   4.166  18.766  0.00  0.00    +0.000 C 
ENDROOT
BRANCH   1  10
ATOM      7  C   UNL     1       7.737   7.177  18.090  0.00  0.00    +0.000 A 
ATOM      8  C   UNL     1       7.821   5.941  18.716  0.00  0.00    +0.000 A 
ATOM      9  C   UNL     1       6.993   4.909  18.272  0.00  0.00    +0.000 A 
ATOM     10  C   UNL     1       6.102   5.162  17.233  0.00  0.00    +0.000 A 
ATOM     11  C   UNL     1       6.117   6.420  16.644  0.00  0.00    +0.000 A 
ATOM     12  N   UNL     1       6.905   7.438  17.058  0.00  0.00    +0.000 NA
BRANCH   7  14
ATOM     13  C   UNL     1       8.240   9.456  18.027  0.00  0.00    +0.000 C 
ATOM     14  O   UNL     1       8.554   8.178  18.575  0.00  0.00    +0.000 OA
ENDBRANCH   7  14
ENDBRANCH   1  10
BRANCH   5  15
ATOM     15  C   UNL     1       1.405   2.935  19.214  0.00  0.00    +0.000 C 
ATOM     16  F   UNL     1       0.926   3.659  20.260  0.00  0.00    +0.000 F 
ATOM     17  F   UNL     1       0.318   2.465  18.546  0.00  0.00    +0.000 F 
ENDBRANCH   5  15
BRANCH   5  18
ATOM     18  O   UNL     1       1.387   5.024  17.917  0.00  0.00    +0.000 OA
ATOM     19  H   UNL     1       2.011   5.772  17.957  0.00  0.00    +0.000 HD
ENDBRANCH   5  18
TORSDOF 4
ENDMDL
MODEL 5
REMARK VINA RESULT:      -6.9      2.361      3.388
REMARK  Name = 
REMARK  5 active torsions:
REMARK  status: ('A' for Active; 'I' for Inactive)
REMARK    1  A    between atoms: C_1  and  O_2
REMARK    2  A    between atoms: O_2  and  C_3
REMARK    3  A    between atoms: C_6  and  C_7
REMARK    4  A    between atoms: C_11  and  O_12
REMARK    5  A    between atoms: C_11  and  C_13
REMARK                            x       y       z     vdW  Elec       q    Type
REMARK                         _______ _______ _______ _____ _____    ______ ____
ROOT
ATOM      1  C   UNL     1       5.163   4.006  16.804  0.00  0.00    +0.000 C 
ATOM      2  O   UNL     1       5.543   3.255  15.913  0.00  0.00    +0.000 OA
ATOM      3  N   UNL     1       3.933   3.919  17.396  0.00  0.00    +0.000 N 
ATOM      4  C   UNL     1       2.840   2.993  17.138  0.00  0.00    +0.000 C 
ATOM      5  C   UNL     1       2.100   3.776  18.259  0.00  0.00    +0.000 C 
ATOM      6  C   UNL     1       3.511   4.142  18.774  0.00  0.00    +0.000 C 
ENDROOT
BRANCH   1  10
ATOM      7  C   UNL     1       7.715   7.049  18.198  0.00  0.00    +0.000 A 
ATOM      8  C   UNL     1       6.734   7.396  17.278  0.00  0.00    +0.000 A 
ATOM      9  C   UNL     1       5.873   6.402  16.814  0.00  0.00    +0.000 A 
ATOM     10  C   UNL     1       6.039   5.098  17.275  0.00  0.00    +0.000 A 
ATOM     11  C   UNL     1       7.024   4.856  18.224  0.00  0.00    +0.000 A 
ATOM     12  N   UNL     1       7.875   5.800  18.686  0.00  0.00    +0.000 NA
BRANCH   7  14
ATOM     13  C   UNL     1       8.270   9.308  17.997  0.00  0.00    +0.000 C 
ATOM     14  O   UNL     1       8.563   8.055  18.613  0.00  0.00    +0.000 OA
ENDBRANCH   7  14
ENDBRANCH   1  10
BRANCH   5  15
ATOM     15  C   UNL     1       1.311   2.899  19.213  0.00  0.00    +0.000 C 
ATOM     16  F   UNL     1       0.695   3.682  20.138  0.00  0.00    +0.000 F 
ATOM     17  F   UNL     1       0.321   2.289  18.509  0.00  0.00    +0.000 F 
ENDBRANCH   5  15
BRANCH   5  18
ATOM     18  O   UNL     1       1.307   4.918  17.807  0.00  0.00    +0.000 OA
ATOM     19  H   UNL     1       1.929   5.481  17.313  0.00  0.00    +0.000 HD
ENDBRANCH   5  18
TORSDOF 4
ENDMDL
MODEL 6
REMARK VINA RESULT:      -6.9      2.340      3.235
REMARK  Name = 
REMARK  5 active torsions:
REMARK  status: ('A' for Active; 'I' for Inactive)
REMARK    1  A    between atoms: C_1  and  O_2
REMARK    2  A    between atoms: O_2  and  C_3
REMARK    3  A    between atoms: C_6  and  C_7
REMARK    4  A    between atoms: C_11  and  O_12
REMARK    5  A    between atoms: C_11  and  C_13
REMARK                            x       y       z     vdW  Elec       q    Type
REMARK                         _______ _______ _______ _____ _____    ______ ____
ROOT
ATOM      1  C   UNL     1       3.029   3.793  17.216  0.00  0.00    +0.000 C 
ATOM      2  O   UNL     1       2.493   3.305  16.228  0.00  0.00    +0.000 OA
ATOM      3  N   UNL     1       2.564   3.625  18.492  0.00  0.00    +0.000 N 
ATOM      4  C   UNL     1       1.402   2.892  18.970  0.00  0.00    +0.000 C 
ATOM      5  C   UNL     1       1.855   3.369  20.378  0.00  0.00    +0.000 C 
ATOM      6  C   UNL     1       3.268   3.472  19.761  0.00  0.00    +0.000 C 
ENDROOT
BRANCH   1  10
ATOM      7  C   UNL     1       6.503   6.123  16.749  0.00  0.00    +0.000 A 
ATOM      8  C   UNL     1       5.336   6.769  17.134  0.00  0.00    +0.000 A 
ATOM      9  C   UNL     1       4.178   6.010  17.304  0.00  0.00    +0.000 A 
ATOM     10  C   UNL     1       4.230   4.639  17.065  0.00  0.00    +0.000 A 
ATOM     11  C   UNL     1       5.454   4.077  16.721  0.00  0.00    +0.000 A 
ATOM     12  N   UNL     1       6.588   4.791  16.544  0.00  0.00    +0.000 NA
BRANCH   7  14
ATOM     13  C   UNL     1       7.742   7.928  17.559  0.00  0.00    +0.000 C 
ATOM     14  O   UNL     1       7.620   6.912  16.566  0.00  0.00    +0.000 OA
ENDBRANCH   7  14
ENDBRANCH   1  10
BRANCH   5  15
ATOM     15  C   UNL     1       1.738   2.313  21.460  0.00  0.00    +0.000 C 
ATOM     16  F   UNL     1       2.904   2.250  22.156  0.00  0.00    +0.000 F 
ATOM     17  F   UNL     1       0.787   2.715  22.345  0.00  0.00    +0.000 F 
ENDBRANCH   5  15
BRANCH   5  18
ATOM     18  O   UNL     1       1.294   4.645  20.818  0.00  0.00    +0.000 OA
ATOM     19  H   UNL     1       1.934   4.996  21.464  0.00  0.00    +0.000 HD
ENDBRANCH   5  18
TORSDOF 4
ENDMDL
MODEL 7
REMARK VINA RESULT:      -6.8      2.283      3.136
REMARK  Name = 
REMARK  5 active torsions:
REMARK  status: ('A' for Active; 'I' for Inactive)
REMARK    1  A    between atoms: C_1  and  O_2
REMARK    2  A    between atoms: O_2  and  C_3
REMARK    3  A    between atoms: C_6  and  C_7
REMARK    4  A    between atoms: C_11  and  O_12
REMARK    5  A    between atoms: C_11  and  C_13
REMARK                            x       y       z     vdW  Elec       q    Type
REMARK                         _______ _______ _______ _____ _____    ______ ____
ROOT
ATOM      1  C   UNL     1       2.994   3.776  17.173  0.00  0.00    +0.000 C 
ATOM      2  O   UNL     1       2.405   3.323  16.199  0.00  0.00    +0.000 OA
ATOM      3  N   UNL     1       2.560   3.621  18.462  0.00  0.00    +0.000 N 
ATOM      4  C   UNL     1       1.378   2.940  18.970  0.00  0.00    +0.000 C 
ATOM      5  C   UNL     1       1.896   3.383  20.366  0.00  0.00    +0.000 C 
ATOM      6  C   UNL     1       3.294   3.423  19.707  0.00  0.00    +0.000 C 
ENDROOT
BRANCH   1  10
ATOM      7  C   UNL     1       6.471   6.101  16.709  0.00  0.00    +0.000 A 
ATOM      8  C   UNL     1       6.488   4.802  16.216  0.00  0.00    +0.000 A 
ATOM      9  C   UNL     1       5.341   4.022  16.352  0.00  0.00    +0.000 A 
ATOM     10  C   UNL     1       4.229   4.565  16.991  0.00  0.00    +0.000 A 
ATOM     11  C   UNL     1       4.294   5.886  17.415  0.00  0.00    +0.000 A 
ATOM     12  N   UNL     1       5.396   6.662  17.301  0.00  0.00    +0.000 NA
BRANCH   7  14
ATOM     13  C   UNL     1       7.720   7.900  17.518  0.00  0.00    +0.000 C 
ATOM     14  O   UNL     1       7.635   6.831  16.578  0.00  0.00    +0.000 OA
ENDBRANCH   7  14
ENDBRANCH   1  10
BRANCH   5  15
ATOM     15  C   UNL     1       1.761   2.325  21.445  0.00  0.00    +0.000 C 
ATOM     16  F   UNL     1       2.914   2.263  22.161  0.00  0.00    +0.000 F 
ATOM     17  F   UNL     1       0.794   2.724  22.312  0.00  0.00    +0.000 F 
ENDBRANCH   5  15
BRANCH   5  18
ATOM     18  O   UNL     1       1.411   4.681  20.832  0.00  0.00    +0.000 OA
ATOM     19  H   UNL     1       1.886   4.846  21.667  0.00  0.00    +0.000 HD
ENDBRANCH   5  18
TORSDOF 4
ENDMDL
MODEL 8
REMARK VINA RESULT:      -6.8      3.609      6.566
REMARK  Name = 
REMARK  5 active torsions:
REMARK  status: ('A' for Active; 'I' for Inactive)
REMARK    1  A    between atoms: C_1  and  O_2
REMARK    2  A    between atoms: O_2  and  C_3
REMARK    3  A    between atoms: C_6  and  C_7
REMARK    4  A    between atoms: C_11  and  O_12
REMARK    5  A    between atoms: C_11  and  C_13
REMARK                            x       y       z     vdW  Elec       q    Type
REMARK                         _______ _______ _______ _____ _____    ______ ____
ROOT
ATOM      1  C   UNL     1       4.822   4.143  16.710  0.00  0.00    +0.000 C 
ATOM      2  O   UNL     1       4.785   3.681  15.575  0.00  0.00    +0.000 OA
ATOM      3  N   UNL     1       5.836   4.936  17.174  0.00  0.00    +0.000 N 
ATOM      4  C   UNL     1       7.041   5.394  16.499  0.00  0.00    +0.000 C 
ATOM      5  C   UNL     1       7.353   6.107  17.845  0.00  0.00    +0.000 C 
ATOM      6  C   UNL     1       5.826   6.078  18.081  0.00  0.00    +0.000 C 
ENDROOT
BRANCH   1  10
ATOM      7  C   UNL     1       1.831   3.211  19.521  0.00  0.00    +0.000 A 
ATOM      8  C   UNL     1       1.443   3.838  18.344  0.00  0.00    +0.000 A 
ATOM      9  C   UNL     1       2.419   4.144  17.397  0.00  0.00    +0.000 A 
ATOM     10  C   UNL     1       3.747   3.827  17.673  0.00  0.00    +0.000 A 
ATOM     11  C   UNL     1       4.033   3.165  18.860  0.00  0.00    +0.000 A 
ATOM     12  N   UNL     1       3.106   2.863  19.797  0.00  0.00    +0.000 NA
BRANCH   7  14
ATOM     13  C   UNL     1       1.358   2.623  21.730  0.00  0.00    +0.000 C 
ATOM     14  O   UNL     1       0.839   2.948  20.443  0.00  0.00    +0.000 OA
ENDBRANCH   7  14
ENDBRANCH   1  10
BRANCH   5  15
ATOM     15  C   UNL     1       7.920   7.506  17.691  0.00  0.00    +0.000 C 
ATOM     16  F   UNL     1       6.898   8.399  17.613  0.00  0.00    +0.000 F 
ATOM     17  F   UNL     1       8.609   7.812  18.822  0.00  0.00    +0.000 F 
ENDBRANCH   5  15
BRANCH   5  18
ATOM     18  O   UNL     1       8.128   5.323  18.806  0.00  0.00    +0.000 OA
ATOM     19  H   UNL     1       7.659   5.425  19.654  0.00  0.00    +0.000 HD
ENDBRANCH   5  18
TORSDOF 4
ENDMDL
MODEL 9
REMARK VINA RESULT:      -6.8      2.583      2.713
REMARK  Name = 
REMARK  5 active torsions:
REMARK  status: ('A' for Active; 'I' for Inactive)
REMARK    1  A    between atoms: C_1  and  O_2
REMARK    2  A    between atoms: O_2  and  C_3
REMARK    3  A    between atoms: C_6  and  C_7
REMARK    4  A    between atoms: C_11  and  O_12
REMARK    5  A    between atoms: C_11  and  C_13
REMARK                            x       y       z     vdW  Elec       q    Type
REMARK                         _______ _______ _______ _____ _____    ______ ____
ROOT
ATOM      1  C   UNL     1       5.617   4.688  18.161  0.00  0.00    +0.000 C 
ATOM      2  O   UNL     1       6.285   4.087  18.994  0.00  0.00    +0.000 OA
ATOM      3  N   UNL     1       4.456   5.351  18.455  0.00  0.00    +0.000 N 
ATOM      4  C   UNL     1       3.765   5.497  19.727  0.00  0.00    +0.000 C 
ATOM      5  C   UNL     1       2.734   6.325  18.911  0.00  0.00    +0.000 C 
ATOM      6  C   UNL     1       3.899   6.593  17.930  0.00  0.00    +0.000 C 
ENDROOT
BRANCH   1  10
ATOM      7  C   UNL     1       6.891   4.771  14.150  0.00  0.00    +0.000 A 
ATOM      8  C   UNL     1       5.754   4.035  14.454  0.00  0.00    +0.000 A 
ATOM      9  C   UNL     1       5.311   4.006  15.777  0.00  0.00    +0.000 A 
ATOM     10  C   UNL     1       6.034   4.699  16.744  0.00  0.00    +0.000 A 
ATOM     11  C   UNL     1       7.137   5.439  16.337  0.00  0.00    +0.000 A 
ATOM     12  N   UNL     1       7.590   5.479  15.063  0.00  0.00    +0.000 NA
BRANCH   7  14
ATOM     13  C   UNL     1       6.735   3.684  12.090  0.00  0.00    +0.000 C 
ATOM     14  O   UNL     1       7.311   4.754  12.836  0.00  0.00    +0.000 OA
ENDBRANCH   7  14
ENDBRANCH   1  10
BRANCH   5  15
ATOM     15  C   UNL     1       2.235   7.571  19.619  0.00  0.00    +0.000 C 
ATOM     16  F   UNL     1       1.476   8.303  18.762  0.00  0.00    +0.000 F 
ATOM     17  F   UNL     1       1.409   7.184  20.627  0.00  0.00    +0.000 F 
ENDBRANCH   5  15
BRANCH   5  18
ATOM     18  O   UNL     1       1.627   5.561  18.339  0.00  0.00    +0.000 OA
ATOM     19  H   UNL     1       1.688   5.704  17.377  0.00  0.00    +0.000 HD
ENDBRANCH   5  18
TORSDOF 4
ENDMDL
