MODEL 1
REMARK VINA RESULT:      -5.9      0.000      0.000
REMARK  Name = 
REMARK  8 active torsions:
REMARK  status: ('A' for Active; 'I' for Inactive)
REMARK    1  A    between atoms: C_1  and  C_2
REMARK    2  A    between atoms: C_2  and  C_3
REMARK    3  A    between atoms: C_2  and  C_4
REMARK    4  A    between atoms: C_4  and  O_5
REMARK    5  A    between atoms: C_8  and  C_9
REMARK    6  A    between atoms: C_8  and  N_10
REMARK    7  A    between atoms: C_15  and  C_16
REMARK    8  A    between atoms: C_15  and  O_17
REMARK                            x       y       z     vdW  Elec       q    Type
REMARK                         _______ _______ _______ _____ _____    ______ ____
ROOT
ATOM      1  C   UNL     1       2.696   6.465  18.154  0.00  0.00    +0.000 C 
ATOM      2  C   UNL     1       3.784   6.986  17.198  0.00  0.00    +0.000 C 
ATOM      3  C   UNL     1       5.182   6.855  17.791  0.00  0.00    +0.000 C 
ATOM      4  C   UNL     1       5.556   5.368  18.072  0.00  0.00    +0.000 C 
ATOM      5  C   UNL     1       6.909   5.363  18.846  0.00  0.00    +0.000 C 
ATOM      6  C   UNL     1       4.440   4.754  19.031  0.00  0.00    +0.000 C 
ATOM      7  C   UNL     1       4.768   3.292  19.438  0.00  0.00    +0.000 C 
ATOM      8  C   UNL     1       3.756   2.182  19.175  0.00  0.00    +0.000 C 
ATOM      9  C   UNL     1       2.367   2.576  18.667  0.00  0.00    +0.000 C 
ATOM     10  C   UNL     1       1.290   2.062  19.630  0.00  0.00    +0.000 C 
ATOM     11  C   UNL     1       2.119   4.016  18.405  0.00  0.00    +0.000 C 
ATOM     12  C   UNL     1       3.017   5.012  18.541  0.00  0.00    +0.000 C 
ENDROOT
BRANCH   1  14
ATOM     13  C   UNL     1       1.726   6.681  20.542  0.00  0.00    +0.000 C 
ATOM     14  C   UNL     1       2.495   7.384  19.410  0.00  0.00    +0.000 C 
ATOM     15  C   UNL     1       1.753   8.690  19.080  0.00  0.00    +0.000 C 
ENDBRANCH   1  14
BRANCH   1  16
ATOM     16  O   UNL     1       1.461   6.501  17.408  0.00  0.00    +0.000 OA
ATOM     17  H   UNL     1       0.829   6.056  18.008  0.00  0.00    +0.000 HD
ENDBRANCH   1  16
BRANCH   4  18
ATOM     18  N   UNL     1       5.572   4.510  16.840  0.00  0.00    +0.000 NA
ATOM     19  S   UNL     1       6.766   4.595  15.918  0.00  0.00    +0.000 S 
ENDBRANCH   4  18
BRANCH   9  20
ATOM     20  O   UNL     1       2.156   1.915  17.411  0.00  0.00    +0.000 OA
ATOM     21  H   UNL     1       1.206   2.085  17.214  0.00  0.00    +0.000 HD
ENDBRANCH   9  20
TORSDOF 4
ENDMDL
MODEL 2
REMARK VINA RESULT:      -5.8      2.792      4.476
REMARK  Name = 
REMARK  8 active torsions:
REMARK  status: ('A' for Active; 'I' for Inactive)
REMARK    1  A    between atoms: C_1  and  C_2
REMARK    2  A    between atoms: C_2  and  C_3
REMARK    3  A    between atoms: C_2  and  C_4
REMARK    4  A    between atoms: C_4  and  O_5
REMARK    5  A    between atoms: C_8  and  C_9
REMARK    6  A    between atoms: C_8  and  N_10
REMARK    7  A    between atoms: C_15  and  C_16
REMARK    8  A    between atoms: C_15  and  O_17
REMARK                            x       y       z     vdW  Elec       q    Type
REMARK                         _______ _______ _______ _____ _____    ______ ____
ROOT
ATOM      1  C   UNL     1       5.895   4.065  15.706  0.00  0.00    +0.000 C 
ATOM      2  C   UNL     1       7.280   4.346  16.315  0.00  0.00    +0.000 C 
ATOM      3  C   UNL     1       7.515   5.832  16.552  0.00  0.00    +0.000 C 
ATOM      4  C   UNL     1       6.490   6.427  17.565  0.00  0.00    +0.000 C 
ATOM      5  C   UNL     1       6.695   7.972  17.587  0.00  0.00    +0.000 C 
ATOM      6  C   UNL     1       5.025   6.134  17.010  0.00  0.00    +0.000 C 
ATOM      7  C   UNL     1       3.928   6.764  17.912  0.00  0.00    +0.000 C 
ATOM      8  C   UNL     1       2.821   5.888  18.489  0.00  0.00    +0.000 C 
ATOM      9  C   UNL     1       2.729   4.435  18.018  0.00  0.00    +0.000 C 
ATOM     10  C   UNL     1       1.350   4.168  17.403  0.00  0.00    +0.000 C 
ATOM     11  C   UNL     1       3.769   3.957  17.071  0.00  0.00    +0.000 C 
ATOM     12  C   UNL     1       4.812   4.676  16.611  0.00  0.00    +0.000 C 
ENDROOT
BRANCH   1  14
ATOM     13  C   UNL     1       5.029   3.545  13.325  0.00  0.00    +0.000 C 
ATOM     14  C   UNL     1       5.771   4.553  14.220  0.00  0.00    +0.000 C 
ATOM     15  C   UNL     1       7.136   4.840  13.572  0.00  0.00    +0.000 C 
ENDBRANCH   1  14
BRANCH   1  16
ATOM     16  O   UNL     1       5.751   2.629  15.688  0.00  0.00    +0.000 OA
ATOM     17  H   UNL     1       4.808   2.506  15.461  0.00  0.00    +0.000 HD
ENDBRANCH   1  16
BRANCH   4  18
ATOM     18  N   UNL     1       6.559   5.799  18.928  0.00  0.00    +0.000 NA
ATOM     19  S   UNL     1       7.902   5.705  19.612  0.00  0.00    +0.000 S 
ENDBRANCH   4  18
BRANCH   9  20
ATOM     20  O   UNL     1       2.844   3.592  19.172  0.00  0.00    +0.000 OA
ATOM     21  H   UNL     1       2.633   2.693  18.829  0.00  0.00    +0.000 HD
ENDBRANCH   9  20
TORSDOF 4
ENDMDL
MODEL 3
REMARK VINA RESULT:      -5.7      2.524      4.853
REMARK  Name = 
REMARK  8 active torsions:
REMARK  status: ('A' for Active; 'I' for Inactive)
REMARK    1  A    between atoms: C_1  and  C_2
REMARK    2  A    between atoms: C_2  and  C_3
REMARK    3  A    between atoms: C_2  and  C_4
REMARK    4  A    between atoms: C_4  and  O_5
REMARK    5  A    between atoms: C_8  and  C_9
REMARK    6  A    between atoms: C_8  and  N_10
REMARK    7  A    between atoms: C_15  and  C_16
REMARK    8  A    between atoms: C_15  and  O_17
REMARK                            x       y       z     vdW  Elec       q    Type
REMARK                         _______ _______ _______ _____ _____    ______ ____
ROOT
ATOM      1  C   UNL     1       4.952   5.640  17.183  0.00  0.00    +0.000 C 
ATOM      2  C   UNL     1       4.541   4.163  17.038  0.00  0.00    +0.000 C 
ATOM      3  C   UNL     1       4.303   3.497  18.387  0.00  0.00    +0.000 C 
ATOM      4  C   UNL     1       3.138   4.175  19.172  0.00  0.00    +0.000 C 
ATOM      5  C   UNL     1       3.107   3.549  20.599  0.00  0.00    +0.000 C 
ATOM      6  C   UNL     1       3.484   5.724  19.322  0.00  0.00    +0.000 C 
ATOM      7  C   UNL     1       2.418   6.475  20.166  0.00  0.00    +0.000 C 
ATOM      8  C   UNL     1       1.710   7.696  19.587  0.00  0.00    +0.000 C 
ATOM      9  C   UNL     1       2.200   8.247  18.246  0.00  0.00    +0.000 C 
ATOM     10  C   UNL     1       2.616   9.715  18.402  0.00  0.00    +0.000 C 
ATOM     11  C   UNL     1       3.298   7.514  17.566  0.00  0.00    +0.000 C 
ATOM     12  C   UNL     1       3.885   6.382  18.004  0.00  0.00    +0.000 C 
ENDROOT
BRANCH   1  14
ATOM     13  C   UNL     1       7.016   7.179  17.427  0.00  0.00    +0.000 C 
ATOM     14  C   UNL     1       6.392   5.818  17.780  0.00  0.00    +0.000 C 
ATOM     15  C   UNL     1       7.367   4.721  17.319  0.00  0.00    +0.000 C 
ENDBRANCH   1  14
BRANCH   1  16
ATOM     16  O   UNL     1       4.985   6.177  15.843  0.00  0.00    +0.000 OA
ATOM     17  H   UNL     1       5.268   5.410  15.307  0.00  0.00    +0.000 HD
ENDBRANCH   1  16
BRANCH   4  18
ATOM     18  N   UNL     1       1.816   4.105  18.463  0.00  0.00    +0.000 NA
ATOM     19  S   UNL     1       0.925   2.911  18.715  0.00  0.00    +0.000 S 
ENDBRANCH   4  18
BRANCH   9  20
ATOM     20  O   UNL     1       1.096   8.220  17.332  0.00  0.00    +0.000 OA
ATOM     21  H   UNL     1       0.914   7.258  17.212  0.00  0.00    +0.000 HD
ENDBRANCH   9  20
TORSDOF 4
ENDMDL
MODEL 4
REMARK VINA RESULT:      -5.6      2.738      4.210
REMARK  Name = 
REMARK  8 active torsions:
REMARK  status: ('A' for Active; 'I' for Inactive)
REMARK    1  A    between atoms: C_1  and  C_2
REMARK    2  A    between atoms: C_2  and  C_3
REMARK    3  A    between atoms: C_2  and  C_4
REMARK    4  A    between atoms: C_4  and  O_5
REMARK    5  A    between atoms: C_8  and  C_9
REMARK    6  A    between atoms: C_8  and  N_10
REMARK    7  A    between atoms: C_15  and  C_16
REMARK    8  A    between atoms: C_15  and  O_17
REMARK                            x       y       z     vdW  Elec       q    Type
REMARK                         _______ _______ _______ _____ _____    ______ ____
ROOT
ATOM      1  C   UNL     1       5.527   4.936  17.607  0.00  0.00    +0.000 C 
ATOM      2  C   UNL     1       5.659   6.378  18.131  0.00  0.00    +0.000 C 
ATOM      3  C   UNL     1       4.522   7.271  17.652  0.00  0.00    +0.000 C 
ATOM      4  C   UNL     1       3.137   6.772  18.163  0.00  0.00    +0.000 C 
ATOM      5  C   UNL     1       2.041   7.633  17.466  0.00  0.00    +0.000 C 
ATOM      6  C   UNL     1       2.953   5.262  17.686  0.00  0.00    +0.000 C 
ATOM      7  C   UNL     1       1.560   4.697  18.078  0.00  0.00    +0.000 C 
ATOM      8  C   UNL     1       1.461   3.417  18.900  0.00  0.00    +0.000 C 
ATOM      9  C   UNL     1       2.746   2.630  19.172  0.00  0.00    +0.000 C 
ATOM     10  C   UNL     1       2.608   1.199  18.638  0.00  0.00    +0.000 C 
ATOM     11  C   UNL     1       4.018   3.204  18.664  0.00  0.00    +0.000 C 
ATOM     12  C   UNL     1       4.154   4.376  18.012  0.00  0.00    +0.000 C 
ENDROOT
BRANCH   1  14
ATOM     13  C   UNL     1       5.604   3.386  15.538  0.00  0.00    +0.000 C 
ATOM     14  C   UNL     1       5.784   4.821  16.063  0.00  0.00    +0.000 C 
ATOM     15  C   UNL     1       7.189   5.297  15.657  0.00  0.00    +0.000 C 
ENDBRANCH   1  14
BRANCH   1  16
ATOM     16  O   UNL     1       6.566   4.178  18.262  0.00  0.00    +0.000 OA
ATOM     17  H   UNL     1       6.067   3.629  18.900  0.00  0.00    +0.000 HD
ENDBRANCH   1  16
BRANCH   4  18
ATOM     18  N   UNL     1       3.019   6.758  19.660  0.00  0.00    +0.000 NA
ATOM     19  S   UNL     1       1.919   7.570  20.304  0.00  0.00    +0.000 S 
ENDBRANCH   4  18
BRANCH   9  20
ATOM     20  O   UNL     1       2.908   2.534  20.593  0.00  0.00    +0.000 OA
ATOM     21  H   UNL     1       3.241   3.424  20.852  0.00  0.00    +0.000 HD
ENDBRANCH   9  20
TORSDOF 4
ENDMDL
MODEL 5
REMARK VINA RESULT:      -5.5      2.426      4.740
REMARK  Name = 
REMARK  8 active torsions:
REMARK  status: ('A' for Active; 'I' for Inactive)
REMARK    1  A    between atoms: C_1  and  C_2
REMARK    2  A    between atoms: C_2  and  C_3
REMARK    3  A    between atoms: C_2  and  C_4
REMARK    4  A    between atoms: C_4  and  O_5
REMARK    5  A    between atoms: C_8  and  C_9
REMARK    6  A    between atoms: C_8  and  N_10
REMARK    7  A    between atoms: C_15  and  C_16
REMARK    8  A    between atoms: C_15  and  O_17
REMARK                            x       y       z     vdW  Elec       q    Type
REMARK                         _______ _______ _______ _____ _____    ______ ____
ROOT
ATOM      1  C   UNL     1       2.660   3.485  17.675  0.00  0.00    +0.000 C 
ATOM      2  C   UNL     1       1.351   4.278  17.846  0.00  0.00    +0.000 C 
ATOM      3  C   UNL     1       1.407   5.233  19.031  0.00  0.00    +0.000 C 
ATOM      4  C   UNL     1       2.521   6.309  18.858  0.00  0.00    +0.000 C 
ATOM      5  C   UNL     1       2.619   7.104  20.195  0.00  0.00    +0.000 C 
ATOM      6  C   UNL     1       3.906   5.550  18.635  0.00  0.00    +0.000 C 
ATOM      7  C   UNL     1       5.098   6.540  18.534  0.00  0.00    +0.000 C 
ATOM      8  C   UNL     1       6.011   6.510  17.313  0.00  0.00    +0.000 C 
ATOM      9  C   UNL     1       5.823   5.381  16.297  0.00  0.00    +0.000 C 
ATOM     10  C   UNL     1       7.128   4.591  16.141  0.00  0.00    +0.000 C 
ATOM     11  C   UNL     1       4.716   4.421  16.540  0.00  0.00    +0.000 C 
ATOM     12  C   UNL     1       3.834   4.470  17.558  0.00  0.00    +0.000 C 
ENDROOT
BRANCH   1  14
ATOM     13  C   UNL     1       3.780   1.257  18.361  0.00  0.00    +0.000 C 
ATOM     14  C   UNL     1       2.885   2.425  18.810  0.00  0.00    +0.000 C 
ATOM     15  C   UNL     1       1.568   1.830  19.338  0.00  0.00    +0.000 C 
ENDBRANCH   1  14
BRANCH   1  16
ATOM     16  O   UNL     1       2.524   2.753  16.439  0.00  0.00    +0.000 OA
ATOM     17  H   UNL     1       3.141   2.005  16.558  0.00  0.00    +0.000 HD
ENDBRANCH   1  16
BRANCH   4  18
ATOM     18  N   UNL     1       2.325   7.188  17.656  0.00  0.00    +0.000 NA
ATOM     19  S   UNL     1       2.051   8.658  17.875  0.00  0.00    +0.000 S 
ENDBRANCH   4  18
BRANCH   9  20
ATOM     20  O   UNL     1       5.541   5.979  15.025  0.00  0.00    +0.000 OA
ATOM     21  H   UNL     1       6.376   5.854  14.516  0.00  0.00    +0.000 HD
ENDBRANCH   9  20
TORSDOF 4
ENDMDL
MODEL 6
REMARK VINA RESULT:      -5.3      2.683      4.332
REMARK  Name = 
REMARK  8 active torsions:
REMARK  status: ('A' for Active; 'I' for Inactive)
REMARK    1  A    between atoms: C_1  and  C_2
REMARK    2  A    between atoms: C_2  and  C_3
REMARK    3  A    between atoms: C_2  and  C_4
REMARK    4  A    between atoms: C_4  and  O_5
REMARK    5  A    between atoms: C_8  and  C_9
REMARK    6  A    between atoms: C_8  and  N_10
REMARK    7  A    between atoms: C_15  and  C_16
REMARK    8  A    between atoms: C_15  and  O_17
REMARK                            x       y       z     vdW  Elec       q    Type
REMARK                         _______ _______ _______ _____ _____    ______ ____
ROOT
ATOM      1  C   UNL     1       3.987   4.317  18.037  0.00  0.00    +0.000 C 
ATOM      2  C   UNL     1       4.164   5.465  19.048  0.00  0.00    +0.000 C 
ATOM      3  C   UNL     1       5.562   5.489  19.653  0.00  0.00    +0.000 C 
ATOM      4  C   UNL     1       6.659   5.719  18.571  0.00  0.00    +0.000 C 
ATOM      5  C   UNL     1       8.045   5.536  19.260  0.00  0.00    +0.000 C 
ATOM      6  C   UNL     1       6.506   4.580  17.466  0.00  0.00    +0.000 C 
ATOM      7  C   UNL     1       7.612   4.675  16.380  0.00  0.00    +0.000 C 
ATOM      8  C   UNL     1       7.228   4.786  14.908  0.00  0.00    +0.000 C 
ATOM      9  C   UNL     1       5.753   4.628  14.532  0.00  0.00    +0.000 C 
ATOM     10  C   UNL     1       5.585   3.477  13.533  0.00  0.00    +0.000 C 
ATOM     11  C   UNL     1       4.782   4.438  15.640  0.00  0.00    +0.000 C 
ATOM     12  C   UNL     1       5.075   4.425  16.956  0.00  0.00    +0.000 C 
ENDROOT
BRANCH   1  14
ATOM     13  C   UNL     1       3.366   1.817  17.805  0.00  0.00    +0.000 C 
ATOM     14  C   UNL     1       3.964   2.903  18.716  0.00  0.00    +0.000 C 
ATOM     15  C   UNL     1       3.178   2.891  20.038  0.00  0.00    +0.000 C 
ENDBRANCH   1  14
BRANCH   1  16
ATOM     16  O   UNL     1       2.691   4.513  17.434  0.00  0.00    +0.000 OA
ATOM     17  H   UNL     1       2.383   3.599  17.273  0.00  0.00    +0.000 HD
ENDBRANCH   1  16
BRANCH   4  18
ATOM     18  N   UNL     1       6.524   7.029  17.848  0.00  0.00    +0.000 NA
ATOM     19  S   UNL     1       7.734   7.928  17.752  0.00  0.00    +0.000 S 
ENDBRANCH   4  18
BRANCH   9  20
ATOM     20  O   UNL     1       5.341   5.827  13.862  0.00  0.00    +0.000 OA
ATOM     21  H   UNL     1       5.517   5.637  12.911  0.00  0.00    +0.000 HD
ENDBRANCH   9  20
TORSDOF 4
ENDMDL
MODEL 7
REMARK VINA RESULT:      -5.2      2.777      4.156
REMARK  Name = 
REMARK  8 active torsions:
REMARK  status: ('A' for Active; 'I' for Inactive)
REMARK    1  A    between atoms: C_1  and  C_2
REMARK    2  A    between atoms: C_2  and  C_3
REMARK    3  A    between atoms: C_2  and  C_4
REMARK    4  A    between atoms: C_4  and  O_5
REMARK    5  A    between atoms: C_8  and  C_9
REMARK    6  A    between atoms: C_8  and  N_10
REMARK    7  A    between atoms: C_15  and  C_16
REMARK    8  A    between atoms: C_15  and  O_17
REMARK                            x       y       z     vdW  Elec       q    Type
REMARK                         _______ _______ _______ _____ _____    ______ ____
ROOT
ATOM      1  C   UNL     1       2.656   6.462  19.461  0.00  0.00    +0.000 C 
ATOM      2  C   UNL     1       1.991   5.743  20.649  0.00  0.00    +0.000 C 
ATOM      3  C   UNL     1       0.959   4.718  20.197  0.00  0.00    +0.000 C 
ATOM      4  C   UNL     1       1.602   3.588  19.337  0.00  0.00    +0.000 C 
ATOM      5  C   UNL     1       0.444   2.711  18.773  0.00  0.00    +0.000 C 
ATOM      6  C   UNL     1       2.346   4.271  18.105  0.00  0.00    +0.000 C 
ATOM      7  C   UNL     1       2.953   3.217  17.139  0.00  0.00    +0.000 C 
ATOM      8  C   UNL     1       4.438   3.263  16.797  0.00  0.00    +0.000 C 
ATOM      9  C   UNL     1       5.257   4.459  17.288  0.00  0.00    +0.000 C 
ATOM     10  C   UNL     1       5.908   5.174  16.098  0.00  0.00    +0.000 C 
ATOM     11  C   UNL     1       4.557   5.469  18.121  0.00  0.00    +0.000 C 
ATOM     12  C   UNL     1       3.269   5.415  18.517  0.00  0.00    +0.000 C 
ENDROOT
BRANCH   1  14
ATOM     13  C   UNL     1       2.341   8.122  17.503  0.00  0.00    +0.000 C 
ATOM     14  C   UNL     1       1.682   7.438  18.713  0.00  0.00    +0.000 C 
ATOM     15  C   UNL     1       1.124   8.541  19.629  0.00  0.00    +0.000 C 
ENDBRANCH   1  14
BRANCH   1  16
ATOM     16  O   UNL     1       3.709   7.273  20.026  0.00  0.00    +0.000 OA
ATOM     17  H   UNL     1       4.365   6.609  20.316  0.00  0.00    +0.000 HD
ENDBRANCH   1  16
BRANCH   4  18
ATOM     18  N   UNL     1       2.644   2.794  20.072  0.00  0.00    +0.000 NA
ATOM     19  S   UNL     1       2.375   2.405  21.507  0.00  0.00    +0.000 S 
ENDBRANCH   4  18
BRANCH   9  20
ATOM     20  O   UNL     1       6.321   3.955  18.107  0.00  0.00    +0.000 OA
ATOM     21  H   UNL     1       6.072   4.242  19.016  0.00  0.00    +0.000 HD
ENDBRANCH   9  20
TORSDOF 4
ENDMDL
MODEL 8
REMARK VINA RESULT:      -5.1      2.510      4.095
REMARK  Name = 
REMARK  8 active torsions:
REMARK  status: ('A' for Active; 'I' for Inactive)
REMARK    1  A    between atoms: C_1  and  C_2
REMARK    2  A    between atoms: C_2  and  C_3
REMARK    3  A    between atoms: C_2  and  C_4
REMARK    4  A    between atoms: C_4  and  O_5
REMARK    5  A    between atoms: C_8  and  C_9
REMARK    6  A    between atoms: C_8  and  N_10
REMARK    7  A    between atoms: C_15  and  C_16
REMARK    8  A    between atoms: C_15  and  O_17
REMARK                            x       y       z     vdW  Elec       q    Type
REMARK                         _______ _______ _______ _____ _____    ______ ____
ROOT
ATOM      1  C   UNL     1       2.867   6.355  19.088  0.00  0.00    +0.000 C 
ATOM      2  C   UNL     1       1.938   5.187  19.465  0.00  0.00    +0.000 C 
ATOM      3  C   UNL     1       1.727   4.221  18.306  0.00  0.00    +0.000 C 
ATOM      4  C   UNL     1       3.063   3.556  17.855  0.00  0.00    +0.000 C 
ATOM      5  C   UNL     1       2.769   2.745  16.557  0.00  0.00    +0.000 C 
ATOM      6  C   UNL     1       4.090   4.718  17.487  0.00  0.00    +0.000 C 
ATOM      7  C   UNL     1       5.431   4.154  16.944  0.00  0.00    +0.000 C 
ATOM      8  C   UNL     1       6.747   4.544  17.610  0.00  0.00    +0.000 C 
ATOM      9  C   UNL     1       6.716   5.623  18.695  0.00  0.00    +0.000 C 
ATOM     10  C   UNL     1       7.637   6.785  18.306  0.00  0.00    +0.000 C 
ATOM     11  C   UNL     1       5.390   6.176  19.071  0.00  0.00    +0.000 C 
ATOM     12  C   UNL     1       4.200   5.791  18.568  0.00  0.00    +0.000 C 
ENDROOT
BRANCH   1  14
ATOM     13  C   UNL     1       3.220   7.919  17.059  0.00  0.00    +0.000 C 
ATOM     14  C   UNL     1       2.211   7.357  18.075  0.00  0.00    +0.000 C 
ATOM     15  C   UNL     1       1.533   8.549  18.772  0.00  0.00    +0.000 C 
ENDBRANCH   1  14
BRANCH   1  16
ATOM     16  O   UNL     1       3.102   7.088  20.309  0.00  0.00    +0.000 OA
ATOM     17  H   UNL     1       3.810   6.571  20.742  0.00  0.00    +0.000 HD
ENDBRANCH   1  16
BRANCH   4  18
ATOM     18  N   UNL     1       3.720   2.739  18.931  0.00  0.00    +0.000 NA
ATOM     19  S   UNL     1       3.762   1.237  18.771  0.00  0.00    +0.000 S 
ENDBRANCH   4  18
BRANCH   9  20
ATOM     20  O   UNL     1       7.248   5.050  19.897  0.00  0.00    +0.000 OA
ATOM     21  H   UNL     1       6.464   4.637  20.327  0.00  0.00    +0.000 HD
ENDBRANCH   9  20
TORSDOF 4
ENDMDL
MODEL 9
REMARK VINA RESULT:      -5.0      5.907      8.212
REMARK  Name = 
REMARK  8 active torsions:
REMARK  status: ('A' for Active; 'I' for Inactive)
REMARK    1  A    between atoms: C_1  and  C_2
REMARK    2  A    between atoms: C_2  and  C_3
REMARK    3  A    between atoms: C_2  and  C_4
REMARK    4  A    between atoms: C_4  and  O_5
REMARK    5  A    between atoms: C_8  and  C_9
REMARK    6  A    between atoms: C_8  and  N_10
REMARK    7  A    between atoms: C_15  and  C_16
REMARK    8  A    between atoms: C_15  and  O_17
REMARK                            x       y       z     vdW  Elec       q    Type
REMARK                         _______ _______ _______ _____ _____    ______ ____
ROOT
ATOM      1  C   UNL     1      -1.839  11.575  18.471  0.00  0.00    +0.000 C 
ATOM      2  C   UNL     1      -1.928  12.817  19.377  0.00  0.00    +0.000 C 
ATOM      3  C   UNL     1      -2.094  12.448  20.845  0.00  0.00    +0.000 C 
ATOM      4  C   UNL     1      -0.878  11.633  21.380  0.00  0.00    +0.000 C 
ATOM      5  C   UNL     1      -1.233  11.147  22.818  0.00  0.00    +0.000 C 
ATOM      6  C   UNL     1      -0.704  10.346  20.456  0.00  0.00    +0.000 C 
ATOM      7  C   UNL     1       0.438   9.422  20.959  0.00  0.00    +0.000 C 
ATOM      8  C   UNL     1       1.578   9.038  20.022  0.00  0.00    +0.000 C 
ATOM      9  C   UNL     1       1.470   9.442  18.549  0.00  0.00    +0.000 C 
ATOM     10  C   UNL     1       1.550   8.199  17.656  0.00  0.00    +0.000 C 
ATOM     11  C   UNL     1       0.284  10.239  18.145  0.00  0.00    +0.000 C 
ATOM     12  C   UNL     1      -0.696  10.672  18.964  0.00  0.00    +0.000 C 
ENDROOT
BRANCH   1  14
ATOM     13  C   UNL     1      -3.143   9.650  17.339  0.00  0.00    +0.000 C 
ATOM     14  C   UNL     1      -3.199  10.802  18.357  0.00  0.00    +0.000 C 
ATOM     15  C   UNL     1      -4.372  11.717  17.965  0.00  0.00    +0.000 C 
ENDBRANCH   1  14
BRANCH   1  16
ATOM     16  O   UNL     1      -1.525  12.067  17.151  0.00  0.00    +0.000 OA
ATOM     17  H   UNL     1      -2.372  12.453  16.854  0.00  0.00    +0.000 HD
ENDBRANCH   1  16
BRANCH   4  18
ATOM     18  N   UNL     1       0.423  12.381  21.310  0.00  0.00    +0.000 NA
ATOM     19  S   UNL     1       0.441  13.836  21.716  0.00  0.00    +0.000 S 
ENDBRANCH   4  18
BRANCH   9  20
ATOM     20  O   UNL     1       2.606  10.258  18.235  0.00  0.00    +0.000 OA
ATOM     21  H   UNL     1       2.258  10.902  17.575  0.00  0.00    +0.000 HD
ENDBRANCH   9  20
TORSDOF 4
ENDMDL
