MODEL 1
REMARK VINA RESULT:      -8.4      0.000      0.000
REMARK  Name = 
REMARK  9 active torsions:
REMARK  status: ('A' for Active; 'I' for Inactive)
REMARK    1  A    between atoms: C_1  and  C_2
REMARK    2  A    between atoms: C_5  and  N_6
REMARK    3  A    between atoms: N_6  and  C_7
REMARK    4  A    between atoms: C_7  and  C_8
REMARK    5  A    between atoms: C_8  and  C_9
REMARK    6  A    between atoms: C_9  and  N_10
REMARK    7  A    between atoms: N_10  and  C_11
REMARK    8  A    between atoms: N_10  and  C_12
REMARK    9  A    between atoms: C_18  and  O_19
REMARK                            x       y       z     vdW  Elec       q    Type
REMARK                         _______ _______ _______ _____ _____    ______ ____
ROOT
ATOM      1  C   UNL     1       2.269   2.981  21.641  0.00  0.00    +0.000 C 
ATOM      2  C   UNL     1       2.771   3.455  20.322  0.00  0.00    +0.000 A 
ATOM      3  C   UNL     1       3.454   2.702  19.450  0.00  0.00    +0.000 A 
ATOM      4  N   UNL     1       3.910   3.156  18.239  0.00  0.00    +0.000 N 
ATOM      5  C   UNL     1       3.840   4.474  17.836  0.00  0.00    +0.000 A 
ATOM      6  C   UNL     1       3.126   5.335  18.595  0.00  0.00    +0.000 A 
ATOM      7  C   UNL     1       2.710   6.733  18.527  0.00  0.00    +0.000 A 
ATOM      8  C   UNL     1       2.830   7.716  17.572  0.00  0.00    +0.000 A 
ATOM      9  C   UNL     1       2.279   8.977  17.827  0.00  0.00    +0.000 A 
ATOM     10  C   UNL     1       1.573   9.266  19.021  0.00  0.00    +0.000 A 
ATOM     11  C   UNL     1       0.993  10.531  19.300  0.00  0.00    +0.000 A 
ATOM     12  C   UNL     1       0.279  10.764  20.472  0.00  0.00    +0.000 A 
ATOM     13  C   UNL     1       0.124   9.747  21.403  0.00  0.00    +0.000 A 
ATOM     14  C   UNL     1       0.688   8.493  21.163  0.00  0.00    +0.000 A 
ATOM     15  C   UNL     1       1.417   8.231  19.981  0.00  0.00    +0.000 A 
ATOM     16  C   UNL     1       1.994   6.967  19.716  0.00  0.00    +0.000 A 
ATOM     17  N   UNL     1       1.910   5.803  20.546  0.00  0.00    +0.000 NA
ATOM     18  C   UNL     1       2.548   4.861  19.899  0.00  0.00    +0.000 A 
ATOM     19  H   UNL     1       4.596   2.595  17.747  0.00  0.00    +0.000 HD
ENDROOT
BRANCH   5  20
ATOM     20  N   UNL     1       4.538   4.779  16.692  0.00  0.00    +0.000 N 
ATOM     21  H   UNL     1       4.460   5.747  16.393  0.00  0.00    +0.000 HD
BRANCH  20  22
ATOM     22  C   UNL     1       5.504   3.936  16.030  0.00  0.00    +0.000 C 
BRANCH  22  23
ATOM     23  C   UNL     1       6.877   4.595  15.910  0.00  0.00    +0.000 C 
BRANCH  23  24
ATOM     24  C   UNL     1       7.511   4.598  17.309  0.00  0.00    +0.000 C 
BRANCH  24  25
ATOM     25  N   UNL     1       7.146   5.727  18.175  0.00  0.00    +0.000 NA
ATOM     26  C   UNL     1       7.926   5.750  19.413  0.00  0.00    +0.000 C 
ATOM     27  C   UNL     1       7.357   6.983  17.443  0.00  0.00    +0.000 C 
ENDBRANCH  24  25
ENDBRANCH  23  24
ENDBRANCH  22  23
ENDBRANCH  20  22
ENDBRANCH   5  20
BRANCH  11  28
ATOM     28  O   UNL     1       1.076  11.616  18.460  0.00  0.00    +0.000 OA
ATOM     29  H   UNL     1       0.210  11.789  18.064  0.00  0.00    +0.000 HD
ENDBRANCH  11  28
TORSDOF 6
ENDMDL
MODEL 2
REMARK VINA RESULT:      -8.0      1.270      2.028
REMARK  Name = 
REMARK  9 active torsions:
REMARK  status: ('A' for Active; 'I' for Inactive)
REMARK    1  A    between atoms: C_1  and  C_2
REMARK    2  A    between atoms: C_5  and  N_6
REMARK    3  A    between atoms: N_6  and  C_7
REMARK    4  A    between atoms: C_7  and  C_8
REMARK    5  A    between atoms: C_8  and  C_9
REMARK    6  A    between atoms: C_9  and  N_10
REMARK    7  A    between atoms: N_10  and  C_11
REMARK    8  A    between atoms: N_10  and  C_12
REMARK    9  A    between atoms: C_18  and  O_19
REMARK                            x       y       z     vdW  Elec       q    Type
REMARK                         _______ _______ _______ _____ _____    ______ ____
ROOT
ATOM      1  C   UNL     1       2.144   2.688  21.824  0.00  0.00    +0.000 C 
ATOM      2  C   UNL     1       2.911   3.041  20.598  0.00  0.00    +0.000 A 
ATOM      3  C   UNL     1       3.727   2.206  19.941  0.00  0.00    +0.000 A 
ATOM      4  N   UNL     1       4.427   2.547  18.813  0.00  0.00    +0.000 N 
ATOM      5  C   UNL     1       4.481   3.829  18.301  0.00  0.00    +0.000 A 
ATOM      6  C   UNL     1       3.660   4.761  18.832  0.00  0.00    +0.000 A 
ATOM      7  C   UNL     1       3.312   6.156  18.572  0.00  0.00    +0.000 A 
ATOM      8  C   UNL     1       3.650   7.052  17.584  0.00  0.00    +0.000 A 
ATOM      9  C   UNL     1       3.101   8.339  17.624  0.00  0.00    +0.000 A 
ATOM     10  C   UNL     1       2.184   8.740  18.627  0.00  0.00    +0.000 A 
ATOM     11  C   UNL     1       1.602  10.033  18.683  0.00  0.00    +0.000 A 
ATOM     12  C   UNL     1       0.680  10.376  19.667  0.00  0.00    +0.000 A 
ATOM     13  C   UNL     1       0.311   9.444  20.627  0.00  0.00    +0.000 A 
ATOM     14  C   UNL     1       0.870   8.165  20.605  0.00  0.00    +0.000 A 
ATOM     15  C   UNL     1       1.808   7.792  19.616  0.00  0.00    +0.000 A 
ATOM     16  C   UNL     1       2.384   6.501  19.572  0.00  0.00    +0.000 A 
ATOM     17  N   UNL     1       2.100   5.413  20.459  0.00  0.00    +0.000 NA
ATOM     18  C   UNL     1       2.822   4.409  20.028  0.00  0.00    +0.000 A 
ATOM     19  H   UNL     1       5.178   1.936  18.513  0.00  0.00    +0.000 HD
ENDROOT
BRANCH   5  20
ATOM     20  N   UNL     1       5.400   4.024  17.298  0.00  0.00    +0.000 N 
ATOM     21  H   UNL     1       5.038   3.882  16.358  0.00  0.00    +0.000 HD
BRANCH  20  22
ATOM     22  C   UNL     1       6.715   4.600  17.443  0.00  0.00    +0.000 C 
BRANCH  22  23
ATOM     23  C   UNL     1       6.946   5.785  16.506  0.00  0.00    +0.000 C 
BRANCH  23  24
ATOM     24  C   UNL     1       6.186   5.497  15.203  0.00  0.00    +0.000 C 
BRANCH  24  25
ATOM     25  N   UNL     1       6.796   4.500  14.313  0.00  0.00    +0.000 NA
ATOM     26  C   UNL     1       5.794   3.715  13.590  0.00  0.00    +0.000 C 
ATOM     27  C   UNL     1       7.668   5.184  13.349  0.00  0.00    +0.000 C 
ENDBRANCH  24  25
ENDBRANCH  23  24
ENDBRANCH  22  23
ENDBRANCH  20  22
ENDBRANCH   5  20
BRANCH  11  28
ATOM     28  O   UNL     1       1.883  11.042  17.793  0.00  0.00    +0.000 OA
ATOM     29  H   UNL     1       1.159  11.128  17.158  0.00  0.00    +0.000 HD
ENDBRANCH  11  28
TORSDOF 6
ENDMDL
MODEL 3
REMARK VINA RESULT:      -8.0      0.841      1.097
REMARK  Name = 
REMARK  9 active torsions:
REMARK  status: ('A' for Active; 'I' for Inactive)
REMARK    1  A    between atoms: C_1  and  C_2
REMARK    2  A    between atoms: C_5  and  N_6
REMARK    3  A    between atoms: N_6  and  C_7
REMARK    4  A    between atoms: C_7  and  C_8
REMARK    5  A    between atoms: C_8  and  C_9
REMARK    6  A    between atoms: C_9  and  N_10
REMARK    7  A    between atoms: N_10  and  C_11
REMARK    8  A    between atoms: N_10  and  C_12
REMARK    9  A    between atoms: C_18  and  O_19
REMARK                            x       y       z     vdW  Elec       q    Type
REMARK                         _______ _______ _______ _____ _____    ______ ____
ROOT
ATOM      1  C   UNL     1       1.865   2.612  22.024  0.00  0.00    +0.000 C 
ATOM      2  C   UNL     1       2.624   2.941  20.786  0.00  0.00    +0.000 A 
ATOM      3  C   UNL     1       3.404   2.082  20.118  0.00  0.00    +0.000 A 
ATOM      4  N   UNL     1       4.097   2.402  18.979  0.00  0.00    +0.000 N 
ATOM      5  C   UNL     1       4.182   3.680  18.465  0.00  0.00    +0.000 A 
ATOM      6  C   UNL     1       3.398   4.638  19.007  0.00  0.00    +0.000 A 
ATOM      7  C   UNL     1       3.088   6.042  18.751  0.00  0.00    +0.000 A 
ATOM      8  C   UNL     1       3.438   6.927  17.758  0.00  0.00    +0.000 A 
ATOM      9  C   UNL     1       2.929   8.230  17.805  0.00  0.00    +0.000 A 
ATOM     10  C   UNL     1       2.039   8.659  18.821  0.00  0.00    +0.000 A 
ATOM     11  C   UNL     1       1.498   9.969  18.884  0.00  0.00    +0.000 A 
ATOM     12  C   UNL     1       0.601  10.340  19.882  0.00  0.00    +0.000 A 
ATOM     13  C   UNL     1       0.218   9.420  20.848  0.00  0.00    +0.000 A 
ATOM     14  C   UNL     1       0.738   8.125  20.819  0.00  0.00    +0.000 A 
ATOM     15  C   UNL     1       1.649   7.723  19.816  0.00  0.00    +0.000 A 
ATOM     16  C   UNL     1       2.186   6.415  19.765  0.00  0.00    +0.000 A 
ATOM     17  N   UNL     1       1.883   5.337  20.657  0.00  0.00    +0.000 NA
ATOM     18  C   UNL     1       2.567   4.312  20.216  0.00  0.00    +0.000 A 
ATOM     19  H   UNL     1       4.824   1.768  18.669  0.00  0.00    +0.000 HD
ENDROOT
BRANCH   5  20
ATOM     20  N   UNL     1       5.091   3.847  17.448  0.00  0.00    +0.000 N 
ATOM     21  H   UNL     1       6.018   3.478  17.643  0.00  0.00    +0.000 HD
BRANCH  20  22
ATOM     22  C   UNL     1       4.800   4.284  16.104  0.00  0.00    +0.000 C 
BRANCH  22  23
ATOM     23  C   UNL     1       5.857   5.240  15.553  0.00  0.00    +0.000 C 
BRANCH  23  24
ATOM     24  C   UNL     1       7.172   4.947  16.289  0.00  0.00    +0.000 C 
BRANCH  24  25
ATOM     25  N   UNL     1       7.647   6.001  17.196  0.00  0.00    +0.000 NA
ATOM     26  C   UNL     1       6.800   7.194  17.149  0.00  0.00    +0.000 C 
ATOM     27  C   UNL     1       7.676   5.478  18.568  0.00  0.00    +0.000 C 
ENDBRANCH  24  25
ENDBRANCH  23  24
ENDBRANCH  22  23
ENDBRANCH  20  22
ENDBRANCH   5  20
BRANCH  11  28
ATOM     28  O   UNL     1       1.796  10.969  17.990  0.00  0.00    +0.000 OA
ATOM     29  H   UNL     1       1.954  10.587  17.115  0.00  0.00    +0.000 HD
ENDBRANCH  11  28
TORSDOF 6
ENDMDL
MODEL 4
REMARK VINA RESULT:      -7.7      1.593      2.508
REMARK  Name = 
REMARK  9 active torsions:
REMARK  status: ('A' for Active; 'I' for Inactive)
REMARK    1  A    between atoms: C_1  and  C_2
REMARK    2  A    between atoms: C_5  and  N_6
REMARK    3  A    between atoms: N_6  and  C_7
REMARK    4  A    between atoms: C_7  and  C_8
REMARK    5  A    between atoms: C_8  and  C_9
REMARK    6  A    between atoms: C_9  and  N_10
REMARK    7  A    between atoms: N_10  and  C_11
REMARK    8  A    between atoms: N_10  and  C_12
REMARK    9  A    between atoms: C_18  and  O_19
REMARK                            x       y       z     vdW  Elec       q    Type
REMARK                         _______ _______ _______ _____ _____    ______ ____
ROOT
ATOM      1  C   UNL     1       2.647   2.542  21.619  0.00  0.00    +0.000 C 
ATOM      2  C   UNL     1       3.102   2.975  20.270  0.00  0.00    +0.000 A 
ATOM      3  C   UNL     1       3.746   2.193  19.393  0.00  0.00    +0.000 A 
ATOM      4  N   UNL     1       4.158   2.609  18.154  0.00  0.00    +0.000 N 
ATOM      5  C   UNL     1       4.082   3.917  17.718  0.00  0.00    +0.000 A 
ATOM      6  C   UNL     1       3.403   4.803  18.478  0.00  0.00    +0.000 A 
ATOM      7  C   UNL     1       2.994   6.202  18.388  0.00  0.00    +0.000 A 
ATOM      8  C   UNL     1       3.084   7.157  17.401  0.00  0.00    +0.000 A 
ATOM      9  C   UNL     1       2.551   8.429  17.642  0.00  0.00    +0.000 A 
ATOM     10  C   UNL     1       1.894   8.757  18.854  0.00  0.00    +0.000 A 
ATOM     11  C   UNL     1       1.333  10.033  19.118  0.00  0.00    +0.000 A 
ATOM     12  C   UNL     1       0.666  10.304  20.310  0.00  0.00    +0.000 A 
ATOM     13  C   UNL     1       0.539   9.315  21.274  0.00  0.00    +0.000 A 
ATOM     14  C   UNL     1       1.086   8.050  21.048  0.00  0.00    +0.000 A 
ATOM     15  C   UNL     1       1.767   7.749  19.847  0.00  0.00    +0.000 A 
ATOM     16  C   UNL     1       2.325   6.474  19.596  0.00  0.00    +0.000 A 
ATOM     17  N   UNL     1       2.265   5.335  20.461  0.00  0.00    +0.000 NA
ATOM     18  C   UNL     1       2.872   4.371  19.816  0.00  0.00    +0.000 A 
ATOM     19  H   UNL     1       4.821   2.030  17.652  0.00  0.00    +0.000 HD
ENDROOT
BRANCH   5  20
ATOM     20  N   UNL     1       4.737   4.184  16.540  0.00  0.00    +0.000 N 
ATOM     21  H   UNL     1       4.145   4.175  15.714  0.00  0.00    +0.000 HD
BRANCH  20  22
ATOM     22  C   UNL     1       6.089   4.670  16.405  0.00  0.00    +0.000 C 
BRANCH  22  23
ATOM     23  C   UNL     1       6.440   5.045  14.965  0.00  0.00    +0.000 C 
BRANCH  23  24
ATOM     24  C   UNL     1       6.239   3.791  14.101  0.00  0.00    +0.000 C 
BRANCH  24  25
ATOM     25  N   UNL     1       6.105   4.024  12.657  0.00  0.00    +0.000 NA
ATOM     26  C   UNL     1       7.381   4.372  12.031  0.00  0.00    +0.000 C 
ATOM     27  C   UNL     1       5.565   2.814  12.022  0.00  0.00    +0.000 C 
ENDBRANCH  24  25
ENDBRANCH  23  24
ENDBRANCH  22  23
ENDBRANCH  20  22
ENDBRANCH   5  20
BRANCH  11  28
ATOM     28  O   UNL     1       1.390  11.094  18.246  0.00  0.00    +0.000 OA
ATOM     29  H   UNL     1       1.876  11.825  18.654  0.00  0.00    +0.000 HD
ENDBRANCH  11  28
TORSDOF 6
ENDMDL
MODEL 5
REMARK VINA RESULT:      -7.7      3.764      5.982
REMARK  Name = 
REMARK  9 active torsions:
REMARK  status: ('A' for Active; 'I' for Inactive)
REMARK    1  A    between atoms: C_1  and  C_2
REMARK    2  A    between atoms: C_5  and  N_6
REMARK    3  A    between atoms: N_6  and  C_7
REMARK    4  A    between atoms: C_7  and  C_8
REMARK    5  A    between atoms: C_8  and  C_9
REMARK    6  A    between atoms: C_9  and  N_10
REMARK    7  A    between atoms: N_10  and  C_11
REMARK    8  A    between atoms: N_10  and  C_12
REMARK    9  A    between atoms: C_18  and  O_19
REMARK                            x       y       z     vdW  Elec       q    Type
REMARK                         _______ _______ _______ _____ _____    ______ ____
ROOT
ATOM      1  C   UNL     1       5.639   3.260  13.170  0.00  0.00    +0.000 C 
ATOM      2  C   UNL     1       6.119   4.208  14.213  0.00  0.00    +0.000 A 
ATOM      3  C   UNL     1       7.156   5.043  14.067  0.00  0.00    +0.000 A 
ATOM      4  N   UNL     1       7.585   5.909  15.039  0.00  0.00    +0.000 N 
ATOM      5  C   UNL     1       7.088   5.926  16.327  0.00  0.00    +0.000 A 
ATOM      6  C   UNL     1       5.999   5.174  16.599  0.00  0.00    +0.000 A 
ATOM      7  C   UNL     1       5.105   4.952  17.732  0.00  0.00    +0.000 A 
ATOM      8  C   UNL     1       4.990   5.524  18.979  0.00  0.00    +0.000 A 
ATOM      9  C   UNL     1       3.976   5.079  19.834  0.00  0.00    +0.000 A 
ATOM     10  C   UNL     1       3.043   4.085  19.448  0.00  0.00    +0.000 A 
ATOM     11  C   UNL     1       1.997   3.626  20.291  0.00  0.00    +0.000 A 
ATOM     12  C   UNL     1       1.080   2.670  19.860  0.00  0.00    +0.000 A 
ATOM     13  C   UNL     1       1.179   2.141  18.582  0.00  0.00    +0.000 A 
ATOM     14  C   UNL     1       2.201   2.565  17.730  0.00  0.00    +0.000 A 
ATOM     15  C   UNL     1       3.143   3.534  18.143  0.00  0.00    +0.000 A 
ATOM     16  C   UNL     1       4.184   3.982  17.296  0.00  0.00    +0.000 A 
ATOM     17  N   UNL     1       4.419   3.568  15.945  0.00  0.00    +0.000 NA
ATOM     18  C   UNL     1       5.452   4.260  15.539  0.00  0.00    +0.000 A 
ATOM     19  H   UNL     1       8.497   6.338  14.928  0.00  0.00    +0.000 HD
ENDROOT
BRANCH   5  20
ATOM     20  N   UNL     1       7.784   6.709  17.217  0.00  0.00    +0.000 N 
ATOM     21  H   UNL     1       8.604   6.264  17.621  0.00  0.00    +0.000 HD
BRANCH  20  22
ATOM     22  C   UNL     1       7.588   8.119  17.450  0.00  0.00    +0.000 C 
BRANCH  22  23
ATOM     23  C   UNL     1       8.587   8.695  18.453  0.00  0.00    +0.000 C 
BRANCH  23  24
ATOM     24  C   UNL     1       8.538  10.225  18.324  0.00  0.00    +0.000 C 
BRANCH  24  25
ATOM     25  N   UNL     1       9.821  10.922  18.485  0.00  0.00    +0.000 NA
ATOM     26  C   UNL     1       9.827  12.230  17.827  0.00  0.00    +0.000 C 
ATOM     27  C   UNL     1      10.098  11.096  19.917  0.00  0.00    +0.000 C 
ENDBRANCH  24  25
ENDBRANCH  23  24
ENDBRANCH  22  23
ENDBRANCH  20  22
ENDBRANCH   5  20
BRANCH  11  28
ATOM     28  O   UNL     1       1.791   4.071  21.575  0.00  0.00    +0.000 OA
ATOM     29  H   UNL     1       2.029   3.374  22.203  0.00  0.00    +0.000 HD
ENDBRANCH  11  28
TORSDOF 6
ENDMDL
MODEL 6
REMARK VINA RESULT:      -7.6      1.117      1.909
REMARK  Name = 
REMARK  9 active torsions:
REMARK  status: ('A' for Active; 'I' for Inactive)
REMARK    1  A    between atoms: C_1  and  C_2
REMARK    2  A    between atoms: C_5  and  N_6
REMARK    3  A    between atoms: N_6  and  C_7
REMARK    4  A    between atoms: C_7  and  C_8
REMARK    5  A    between atoms: C_8  and  C_9
REMARK    6  A    between atoms: C_9  and  N_10
REMARK    7  A    between atoms: N_10  and  C_11
REMARK    8  A    between atoms: N_10  and  C_12
REMARK    9  A    between atoms: C_18  and  O_19
REMARK                            x       y       z     vdW  Elec       q    Type
REMARK                         _______ _______ _______ _____ _____    ______ ____
ROOT
ATOM      1  C   UNL     1       2.119   3.094  21.665  0.00  0.00    +0.000 C 
ATOM      2  C   UNL     1       2.612   3.649  20.375  0.00  0.00    +0.000 A 
ATOM      3  C   UNL     1       3.288   2.952  19.453  0.00  0.00    +0.000 A 
ATOM      4  N   UNL     1       3.736   3.479  18.269  0.00  0.00    +0.000 N 
ATOM      5  C   UNL     1       3.663   4.820  17.949  0.00  0.00    +0.000 A 
ATOM      6  C   UNL     1       2.956   5.632  18.765  0.00  0.00    +0.000 A 
ATOM      7  C   UNL     1       2.540   7.032  18.787  0.00  0.00    +0.000 A 
ATOM      8  C   UNL     1       2.654   8.072  17.893  0.00  0.00    +0.000 A 
ATOM      9  C   UNL     1       2.105   9.315  18.230  0.00  0.00    +0.000 A 
ATOM     10  C   UNL     1       1.407   9.529  19.445  0.00  0.00    +0.000 A 
ATOM     11  C   UNL     1       0.830  10.775  19.805  0.00  0.00    +0.000 A 
ATOM     12  C   UNL     1       0.124  10.934  20.994  0.00  0.00    +0.000 A 
ATOM     13  C   UNL     1      -0.025   9.862  21.861  0.00  0.00    +0.000 A 
ATOM     14  C   UNL     1       0.537   8.625  21.541  0.00  0.00    +0.000 A 
ATOM     15  C   UNL     1       1.257   8.436  20.340  0.00  0.00    +0.000 A 
ATOM     16  C   UNL     1       1.832   7.191  19.993  0.00  0.00    +0.000 A 
ATOM     17  N   UNL     1       1.753   5.978  20.750  0.00  0.00    +0.000 NA
ATOM     18  C   UNL     1       2.386   5.078  20.041  0.00  0.00    +0.000 A 
ATOM     19  H   UNL     1       4.418   2.950  17.738  0.00  0.00    +0.000 HD
ENDROOT
BRANCH   5  20
ATOM     20  N   UNL     1       4.353   5.194  16.821  0.00  0.00    +0.000 N 
ATOM     21  H   UNL     1       3.817   5.140  15.959  0.00  0.00    +0.000 HD
BRANCH  20  22
ATOM     22  C   UNL     1       5.644   5.838  16.783  0.00  0.00    +0.000 C 
BRANCH  22  23
ATOM     23  C   UNL     1       6.800   4.840  16.721  0.00  0.00    +0.000 C 
BRANCH  23  24
ATOM     24  C   UNL     1       6.570   3.945  15.494  0.00  0.00    +0.000 C 
BRANCH  24  25
ATOM     25  N   UNL     1       6.358   4.647  14.221  0.00  0.00    +0.000 NA
ATOM     26  C   UNL     1       7.594   5.235  13.701  0.00  0.00    +0.000 C 
ATOM     27  C   UNL     1       5.816   3.702  13.235  0.00  0.00    +0.000 C 
ENDBRANCH  24  25
ENDBRANCH  23  24
ENDBRANCH  22  23
ENDBRANCH  20  22
ENDBRANCH   5  20
BRANCH  11  28
ATOM     28  O   UNL     1       0.907  11.910  19.034  0.00  0.00    +0.000 OA
ATOM     29  H   UNL     1       0.034  12.117  18.670  0.00  0.00    +0.000 HD
ENDBRANCH  11  28
TORSDOF 6
ENDMDL
MODEL 7
REMARK VINA RESULT:      -7.2      2.032      4.499
REMARK  Name = 
REMARK  9 active torsions:
REMARK  status: ('A' for Active; 'I' for Inactive)
REMARK    1  A    between atoms: C_1  and  C_2
REMARK    2  A    between atoms: C_5  and  N_6
REMARK    3  A    between atoms: N_6  and  C_7
REMARK    4  A    between atoms: C_7  and  C_8
REMARK    5  A    between atoms: C_8  and  C_9
REMARK    6  A    between atoms: C_9  and  N_10
REMARK    7  A    between atoms: N_10  and  C_11
REMARK    8  A    between atoms: N_10  and  C_12
REMARK    9  A    between atoms: C_18  and  O_19
REMARK                            x       y       z     vdW  Elec       q    Type
REMARK                         _______ _______ _______ _____ _____    ______ ____
ROOT
ATOM      1  C   UNL     1       4.687   6.980  16.259  0.00  0.00    +0.000 C 
ATOM      2  C   UNL     1       4.256   6.463  17.587  0.00  0.00    +0.000 A 
ATOM      3  C   UNL     1       4.691   5.323  18.140  0.00  0.00    +0.000 A 
ATOM      4  N   UNL     1       4.283   4.861  19.364  0.00  0.00    +0.000 N 
ATOM      5  C   UNL     1       3.275   5.442  20.108  0.00  0.00    +0.000 A 
ATOM      6  C   UNL     1       2.784   6.631  19.695  0.00  0.00    +0.000 A 
ATOM      7  C   UNL     1       1.828   7.623  20.180  0.00  0.00    +0.000 A 
ATOM      8  C   UNL     1       1.100   7.754  21.341  0.00  0.00    +0.000 A 
ATOM      9  C   UNL     1       0.274   8.873  21.497  0.00  0.00    +0.000 A 
ATOM     10  C   UNL     1       0.187   9.891  20.515  0.00  0.00    +0.000 A 
ATOM     11  C   UNL     1      -0.632  11.042  20.654  0.00  0.00    +0.000 A 
ATOM     12  C   UNL     1      -0.664  12.036  19.679  0.00  0.00    +0.000 A 
ATOM     13  C   UNL     1       0.114  11.913  18.537  0.00  0.00    +0.000 A 
ATOM     14  C   UNL     1       0.925  10.789  18.366  0.00  0.00    +0.000 A 
ATOM     15  C   UNL     1       0.976   9.767  19.341  0.00  0.00    +0.000 A 
ATOM     16  C   UNL     1       1.793   8.623  19.190  0.00  0.00    +0.000 A 
ATOM     17  N   UNL     1       2.676   8.346  18.097  0.00  0.00    +0.000 NA
ATOM     18  C   UNL     1       3.256   7.210  18.391  0.00  0.00    +0.000 A 
ATOM     19  H   UNL     1       4.489   3.898  19.604  0.00  0.00    +0.000 HD
ENDROOT
BRANCH   5  20
ATOM     20  N   UNL     1       2.857   4.719  21.200  0.00  0.00    +0.000 N 
ATOM     21  H   UNL     1       3.140   5.106  22.096  0.00  0.00    +0.000 HD
BRANCH  20  22
ATOM     22  C   UNL     1       1.910   3.631  21.194  0.00  0.00    +0.000 C 
BRANCH  22  23
ATOM     23  C   UNL     1       0.813   3.810  20.145  0.00  0.00    +0.000 C 
BRANCH  23  24
ATOM     24  C   UNL     1       0.775   2.530  19.296  0.00  0.00    +0.000 C 
BRANCH  24  25
ATOM     25  N   UNL     1       1.328   2.645  17.940  0.00  0.00    +0.000 NA
ATOM     26  C   UNL     1       1.350   4.031  17.467  0.00  0.00    +0.000 C 
ATOM     27  C   UNL     1       2.694   2.105  17.929  0.00  0.00    +0.000 C 
ENDBRANCH  24  25
ENDBRANCH  23  24
ENDBRANCH  22  23
ENDBRANCH  20  22
ENDBRANCH   5  20
BRANCH  11  28
ATOM     28  O   UNL     1      -1.447  11.281  21.735  0.00  0.00    +0.000 OA
ATOM     29  H   UNL     1      -0.967  11.800  22.396  0.00  0.00    +0.000 HD
ENDBRANCH  11  28
TORSDOF 6
ENDMDL
MODEL 8
REMARK VINA RESULT:      -7.2      1.842      4.352
REMARK  Name = 
REMARK  9 active torsions:
REMARK  status: ('A' for Active; 'I' for Inactive)
REMARK    1  A    between atoms: C_1  and  C_2
REMARK    2  A    between atoms: C_5  and  N_6
REMARK    3  A    between atoms: N_6  and  C_7
REMARK    4  A    between atoms: C_7  and  C_8
REMARK    5  A    between atoms: C_8  and  C_9
REMARK    6  A    between atoms: C_9  and  N_10
REMARK    7  A    between atoms: N_10  and  C_11
REMARK    8  A    between atoms: N_10  and  C_12
REMARK    9  A    between atoms: C_18  and  O_19
REMARK                            x       y       z     vdW  Elec       q    Type
REMARK                         _______ _______ _______ _____ _____    ______ ____
ROOT
ATOM      1  C   UNL     1       5.701   6.342  14.752  0.00  0.00    +0.000 C 
ATOM      2  C   UNL     1       5.572   5.607  16.041  0.00  0.00    +0.000 A 
ATOM      3  C   UNL     1       6.254   4.499  16.359  0.00  0.00    +0.000 A 
ATOM      4  N   UNL     1       6.122   3.834  17.551  0.00  0.00    +0.000 N 
ATOM      5  C   UNL     1       5.173   4.146  18.504  0.00  0.00    +0.000 A 
ATOM      6  C   UNL     1       4.453   5.277  18.338  0.00  0.00    +0.000 A 
ATOM      7  C   UNL     1       3.453   6.031  19.090  0.00  0.00    +0.000 A 
ATOM      8  C   UNL     1       2.912   5.901  20.349  0.00  0.00    +0.000 A 
ATOM      9  C   UNL     1       1.966   6.840  20.777  0.00  0.00    +0.000 A 
ATOM     10  C   UNL     1       1.572   7.938  19.973  0.00  0.00    +0.000 A 
ATOM     11  C   UNL     1       0.627   8.912  20.388  0.00  0.00    +0.000 A 
ATOM     12  C   UNL     1       0.291   9.994  19.579  0.00  0.00    +0.000 A 
ATOM     13  C   UNL     1       0.884  10.138  18.333  0.00  0.00    +0.000 A 
ATOM     14  C   UNL     1       1.812   9.194  17.891  0.00  0.00    +0.000 A 
ATOM     15  C   UNL     1       2.171   8.087  18.693  0.00  0.00    +0.000 A 
ATOM     16  C   UNL     1       3.112   7.121  18.267  0.00  0.00    +0.000 A 
ATOM     17  N   UNL     1       3.837   7.127  17.032  0.00  0.00    +0.000 NA
ATOM     18  C   UNL     1       4.617   6.077  17.076  0.00  0.00    +0.000 A 
ATOM     19  H   UNL     1       6.504   2.898  17.620  0.00  0.00    +0.000 HD
ENDROOT
BRANCH   5  20
ATOM     20  N   UNL     1       5.049   3.241  19.530  0.00  0.00    +0.000 N 
ATOM     21  H   UNL     1       5.745   3.336  20.265  0.00  0.00    +0.000 HD
BRANCH  20  22
ATOM     22  C   UNL     1       3.937   2.350  19.754  0.00  0.00    +0.000 C 
BRANCH  22  23
ATOM     23  C   UNL     1       3.674   1.424  18.567  0.00  0.00    +0.000 C 
BRANCH  23  24
ATOM     24  C   UNL     1       2.600   2.089  17.694  0.00  0.00    +0.000 C 
BRANCH  24  25
ATOM     25  N   UNL     1       1.671   2.987  18.394  0.00  0.00    +0.000 NA
ATOM     26  C   UNL     1       1.184   4.063  17.530  0.00  0.00    +0.000 C 
ATOM     27  C   UNL     1       0.531   2.207  18.892  0.00  0.00    +0.000 C 
ENDBRANCH  24  25
ENDBRANCH  23  24
ENDBRANCH  22  23
ENDBRANCH  20  22
ENDBRANCH   5  20
BRANCH  11  28
ATOM     28  O   UNL     1      -0.028   8.882  21.596  0.00  0.00    +0.000 OA
ATOM     29  H   UNL     1       0.205   8.073  22.074  0.00  0.00    +0.000 HD
ENDBRANCH  11  28
TORSDOF 6
ENDMDL
MODEL 9
REMARK VINA RESULT:      -7.1      3.611      7.706
REMARK  Name = 
REMARK  9 active torsions:
REMARK  status: ('A' for Active; 'I' for Inactive)
REMARK    1  A    between atoms: C_1  and  C_2
REMARK    2  A    between atoms: C_5  and  N_6
REMARK    3  A    between atoms: N_6  and  C_7
REMARK    4  A    between atoms: C_7  and  C_8
REMARK    5  A    between atoms: C_8  and  C_9
REMARK    6  A    between atoms: C_9  and  N_10
REMARK    7  A    between atoms: N_10  and  C_11
REMARK    8  A    between atoms: N_10  and  C_12
REMARK    9  A    between atoms: C_18  and  O_19
REMARK                            x       y       z     vdW  Elec       q    Type
REMARK                         _______ _______ _______ _____ _____    ______ ____
ROOT
ATOM      1  C   UNL     1      -0.323   9.472  23.603  0.00  0.00    +0.000 C 
ATOM      2  C   UNL     1      -0.076  10.120  22.286  0.00  0.00    +0.000 A 
ATOM      3  C   UNL     1      -0.483  11.352  21.954  0.00  0.00    +0.000 A 
ATOM      4  N   UNL     1      -0.247  11.935  20.735  0.00  0.00    +0.000 N 
ATOM      5  C   UNL     1       0.315  11.272  19.663  0.00  0.00    +0.000 A 
ATOM      6  C   UNL     1       0.825  10.039  19.873  0.00  0.00    +0.000 A 
ATOM      7  C   UNL     1       1.564   9.039  19.107  0.00  0.00    +0.000 A 
ATOM      8  C   UNL     1       2.114   9.023  17.845  0.00  0.00    +0.000 A 
ATOM      9  C   UNL     1       2.798   7.878  17.421  0.00  0.00    +0.000 A 
ATOM     10  C   UNL     1       2.972   6.748  18.258  0.00  0.00    +0.000 A 
ATOM     11  C   UNL     1       3.673   5.580  17.858  0.00  0.00    +0.000 A 
ATOM     12  C   UNL     1       3.849   4.504  18.723  0.00  0.00    +0.000 A 
ATOM     13  C   UNL     1       3.332   4.555  20.010  0.00  0.00    +0.000 A 
ATOM     14  C   UNL     1       2.631   5.686  20.432  0.00  0.00    +0.000 A 
ATOM     15  C   UNL     1       2.439   6.793  19.574  0.00  0.00    +0.000 A 
ATOM     16  C   UNL     1       1.735   7.950  19.982  0.00  0.00    +0.000 A 
ATOM     17  N   UNL     1       1.162   8.186  21.273  0.00  0.00    +0.000 NA
ATOM     18  C   UNL     1       0.650   9.389  21.217  0.00  0.00    +0.000 A 
ATOM     19  H   UNL     1      -0.773  12.767  20.494  0.00  0.00    +0.000 HD
ENDROOT
BRANCH   5  20
ATOM     20  N   UNL     1       0.275  11.947  18.466  0.00  0.00    +0.000 N 
ATOM     21  H   UNL     1       1.156  11.965  17.960  0.00  0.00    +0.000 HD
BRANCH  20  22
ATOM     22  C   UNL     1      -0.909  12.421  17.792  0.00  0.00    +0.000 C 
BRANCH  22  23
ATOM     23  C   UNL     1      -2.110  11.496  17.987  0.00  0.00    +0.000 C 
BRANCH  23  24
ATOM     24  C   UNL     1      -2.071  10.448  16.865  0.00  0.00    +0.000 C 
BRANCH  24  25
ATOM     25  N   UNL     1      -3.340  10.214  16.164  0.00  0.00    +0.000 NA
ATOM     26  C   UNL     1      -4.331  11.253  16.449  0.00  0.00    +0.000 C 
ATOM     27  C   UNL     1      -3.089  10.165  14.717  0.00  0.00    +0.000 C 
ENDBRANCH  24  25
ENDBRANCH  23  24
ENDBRANCH  22  23
ENDBRANCH  20  22
ENDBRANCH   5  20
BRANCH  11  28
ATOM     28  O   UNL     1       4.231   5.406  16.615  0.00  0.00    +0.000 OA
ATOM     29  H   UNL     1       4.884   6.101  16.450  0.00  0.00    +0.000 HD
ENDBRANCH  11  28
TORSDOF 6
ENDMDL
