MODEL 1
REMARK VINA RESULT:      -6.6      0.000      0.000
REMARK  Name = 
REMARK  2 active torsions:
REMARK  status: ('A' for Active; 'I' for Inactive)
REMARK    1  A    between atoms: N_4  and  C_5
REMARK    2  A    between atoms: C_5  and  C_6
REMARK                            x       y       z     vdW  Elec       q    Type
REMARK                         _______ _______ _______ _____ _____    ______ ____
ROOT
ATOM      1  O   UNL     1       7.526   5.520  20.033  0.00  0.00    +0.000 OA
ATOM      2  N   UNL     1       6.907   5.422  18.940  0.00  0.00    +0.000 N 
ATOM      3  N   UNL     1       6.165   4.374  18.649  0.00  0.00    +0.000 NA
ATOM      4  N   UNL     1       5.663   4.632  17.435  0.00  0.00    +0.000 N 
ATOM      5  C   UNL     1       6.115   5.809  16.938  0.00  0.00    +0.000 A 
ATOM      6  C   UNL     1       6.927   6.320  17.919  0.00  0.00    +0.000 A 
ATOM      7 BR   UNL     1       7.893   7.926  17.864  0.00  0.00    +0.000 Br
ENDROOT
BRANCH   4   8
ATOM      8  C   UNL     1       4.841   3.642  16.747  0.00  0.00    +0.000 C 
BRANCH   8   9
ATOM      9  C   UNL     1       3.530   3.385  17.446  0.00  0.00    +0.000 A 
ATOM     10  C   UNL     1       3.246   2.119  17.982  0.00  0.00    +0.000 A 
ATOM     11  C   UNL     1       2.060   1.895  18.686  0.00  0.00    +0.000 A 
ATOM     12  C   UNL     1       1.145   2.929  18.862  0.00  0.00    +0.000 A 
ATOM     13  C   UNL     1       1.413   4.191  18.333  0.00  0.00    +0.000 A 
ATOM     14  C   UNL     1       2.599   4.419  17.634  0.00  0.00    +0.000 A 
ENDBRANCH   8   9
ENDBRANCH   4   8
TORSDOF 2
ENDMDL
MODEL 2
REMARK VINA RESULT:      -6.5      3.085      3.404
REMARK  Name = 
REMARK  2 active torsions:
REMARK  status: ('A' for Active; 'I' for Inactive)
REMARK    1  A    between atoms: N_4  and  C_5
REMARK    2  A    between atoms: C_5  and  C_6
REMARK                            x       y       z     vdW  Elec       q    Type
REMARK                         _______ _______ _______ _____ _____    ______ ____
ROOT
ATOM      1  O   UNL     1       8.314   5.552  13.764  0.00  0.00    +0.000 OA
ATOM      2  N   UNL     1       7.349   5.098  14.435  0.00  0.00    +0.000 N 
ATOM      3  N   UNL     1       7.178   5.402  15.705  0.00  0.00    +0.000 NA
ATOM      4  N   UNL     1       6.059   4.759  16.066  0.00  0.00    +0.000 N 
ATOM      5  C   UNL     1       5.549   4.019  15.052  0.00  0.00    +0.000 A 
ATOM      6  C   UNL     1       6.391   4.240  13.992  0.00  0.00    +0.000 A 
ATOM      7 BR   UNL     1       6.270   3.495  12.276  0.00  0.00    +0.000 Br
ENDROOT
BRANCH   4   8
ATOM      8  C   UNL     1       5.594   4.801  17.448  0.00  0.00    +0.000 C 
BRANCH   8   9
ATOM      9  C   UNL     1       4.193   4.266  17.609  0.00  0.00    +0.000 A 
ATOM     10  C   UNL     1       3.969   2.886  17.739  0.00  0.00    +0.000 A 
ATOM     11  C   UNL     1       2.680   2.392  17.951  0.00  0.00    +0.000 A 
ATOM     12  C   UNL     1       1.601   3.268  18.037  0.00  0.00    +0.000 A 
ATOM     13  C   UNL     1       1.808   4.640  17.908  0.00  0.00    +0.000 A 
ATOM     14  C   UNL     1       3.096   5.136  17.700  0.00  0.00    +0.000 A 
ENDBRANCH   8   9
ENDBRANCH   4   8
TORSDOF 2
ENDMDL
MODEL 3
REMARK VINA RESULT:      -6.5      3.678      4.261
REMARK  Name = 
REMARK  2 active torsions:
REMARK  status: ('A' for Active; 'I' for Inactive)
REMARK    1  A    between atoms: N_4  and  C_5
REMARK    2  A    between atoms: C_5  and  C_6
REMARK                            x       y       z     vdW  Elec       q    Type
REMARK                         _______ _______ _______ _____ _____    ______ ____
ROOT
ATOM      1  O   UNL     1       8.056   5.599  13.143  0.00  0.00    +0.000 OA
ATOM      2  N   UNL     1       7.343   5.106  14.058  0.00  0.00    +0.000 N 
ATOM      3  N   UNL     1       7.462   5.482  15.315  0.00  0.00    +0.000 NA
ATOM      4  N   UNL     1       6.544   4.766  15.977  0.00  0.00    +0.000 N 
ATOM      5  C   UNL     1       5.880   3.912  15.161  0.00  0.00    +0.000 A 
ATOM      6  C   UNL     1       6.404   4.133  13.913  0.00  0.00    +0.000 A 
ATOM      7 BR   UNL     1       5.941   3.259  12.320  0.00  0.00    +0.000 Br
ENDROOT
BRANCH   4   8
ATOM      8  C   UNL     1       6.435   4.864  17.429  0.00  0.00    +0.000 C 
BRANCH   8   9
ATOM      9  C   UNL     1       5.151   5.517  17.876  0.00  0.00    +0.000 A 
ATOM     10  C   UNL     1       4.467   5.042  19.005  0.00  0.00    +0.000 A 
ATOM     11  C   UNL     1       3.312   5.684  19.458  0.00  0.00    +0.000 A 
ATOM     12  C   UNL     1       2.828   6.806  18.791  0.00  0.00    +0.000 A 
ATOM     13  C   UNL     1       3.496   7.288  17.667  0.00  0.00    +0.000 A 
ATOM     14  C   UNL     1       4.653   6.650  17.214  0.00  0.00    +0.000 A 
ENDBRANCH   8   9
ENDBRANCH   4   8
TORSDOF 2
ENDMDL
MODEL 4
REMARK VINA RESULT:      -6.5      3.491      4.329
REMARK  Name = 
REMARK  2 active torsions:
REMARK  status: ('A' for Active; 'I' for Inactive)
REMARK    1  A    between atoms: N_4  and  C_5
REMARK    2  A    between atoms: C_5  and  C_6
REMARK                            x       y       z     vdW  Elec       q    Type
REMARK                         _______ _______ _______ _____ _____    ______ ____
ROOT
ATOM      1  O   UNL     1       8.071   5.565  13.175  0.00  0.00    +0.000 OA
ATOM      2  N   UNL     1       7.317   5.091  14.066  0.00  0.00    +0.000 N 
ATOM      3  N   UNL     1       7.414   5.453  15.328  0.00  0.00    +0.000 NA
ATOM      4  N   UNL     1       6.453   4.764  15.959  0.00  0.00    +0.000 N 
ATOM      5  C   UNL     1       5.783   3.940  15.119  0.00  0.00    +0.000 A 
ATOM      6  C   UNL     1       6.348   4.152  13.888  0.00  0.00    +0.000 A 
ATOM      7 BR   UNL     1       5.899   3.307  12.275  0.00  0.00    +0.000 Br
ENDROOT
BRANCH   4   8
ATOM      8  C   UNL     1       6.308   4.855  17.409  0.00  0.00    +0.000 C 
BRANCH   8   9
ATOM      9  C   UNL     1       5.002   5.483  17.827  0.00  0.00    +0.000 A 
ATOM     10  C   UNL     1       4.656   6.768  17.381  0.00  0.00    +0.000 A 
ATOM     11  C   UNL     1       3.420   7.327  17.714  0.00  0.00    +0.000 A 
ATOM     12  C   UNL     1       2.516   6.611  18.495  0.00  0.00    +0.000 A 
ATOM     13  C   UNL     1       2.848   5.334  18.946  0.00  0.00    +0.000 A 
ATOM     14  C   UNL     1       4.081   4.772  18.611  0.00  0.00    +0.000 A 
ENDBRANCH   8   9
ENDBRANCH   4   8
TORSDOF 2
ENDMDL
MODEL 5
REMARK VINA RESULT:      -6.5      1.872      2.380
REMARK  Name = 
REMARK  2 active torsions:
REMARK  status: ('A' for Active; 'I' for Inactive)
REMARK    1  A    between atoms: N_4  and  C_5
REMARK    2  A    between atoms: C_5  and  C_6
REMARK                            x       y       z     vdW  Elec       q    Type
REMARK                         _______ _______ _______ _____ _____    ______ ____
ROOT
ATOM      1  O   UNL     1       7.430   4.441  18.273  0.00  0.00    +0.000 OA
ATOM      2  N   UNL     1       6.356   4.971  17.882  0.00  0.00    +0.000 N 
ATOM      3  N   UNL     1       5.410   5.334  18.723  0.00  0.00    +0.000 NA
ATOM      4  N   UNL     1       4.451   5.865  17.954  0.00  0.00    +0.000 N 
ATOM      5  C   UNL     1       4.761   5.801  16.637  0.00  0.00    +0.000 A 
ATOM      6  C   UNL     1       6.001   5.217  16.592  0.00  0.00    +0.000 A 
ATOM      7 BR   UNL     1       7.006   4.811  15.062  0.00  0.00    +0.000 Br
ENDROOT
BRANCH   4   8
ATOM      8  C   UNL     1       3.193   6.314  18.543  0.00  0.00    +0.000 C 
BRANCH   8   9
ATOM      9  C   UNL     1       2.325   5.171  19.008  0.00  0.00    +0.000 A 
ATOM     10  C   UNL     1       1.842   4.226  18.090  0.00  0.00    +0.000 A 
ATOM     11  C   UNL     1       1.091   3.132  18.525  0.00  0.00    +0.000 A 
ATOM     12  C   UNL     1       0.814   2.967  19.880  0.00  0.00    +0.000 A 
ATOM     13  C   UNL     1       1.287   3.899  20.802  0.00  0.00    +0.000 A 
ATOM     14  C   UNL     1       2.041   4.991  20.370  0.00  0.00    +0.000 A 
ENDBRANCH   8   9
ENDBRANCH   4   8
TORSDOF 2
ENDMDL
MODEL 6
REMARK VINA RESULT:      -6.4      2.304      2.527
REMARK  Name = 
REMARK  2 active torsions:
REMARK  status: ('A' for Active; 'I' for Inactive)
REMARK    1  A    between atoms: N_4  and  C_5
REMARK    2  A    between atoms: C_5  and  C_6
REMARK                            x       y       z     vdW  Elec       q    Type
REMARK                         _______ _______ _______ _____ _____    ______ ____
ROOT
ATOM      1  O   UNL     1       8.077   4.160  16.931  0.00  0.00    +0.000 OA
ATOM      2  N   UNL     1       6.899   4.511  17.206  0.00  0.00    +0.000 N 
ATOM      3  N   UNL     1       6.523   4.787  18.438  0.00  0.00    +0.000 NA
ATOM      4  N   UNL     1       5.233   5.132  18.335  0.00  0.00    +0.000 N 
ATOM      5  C   UNL     1       4.780   5.034  17.062  0.00  0.00    +0.000 A 
ATOM      6  C   UNL     1       5.866   4.627  16.330  0.00  0.00    +0.000 A 
ATOM      7 BR   UNL     1       5.921   4.277  14.488  0.00  0.00    +0.000 Br
ENDROOT
BRANCH   4   8
ATOM      8  C   UNL     1       4.449   5.435  19.529  0.00  0.00    +0.000 C 
BRANCH   8   9
ATOM      9  C   UNL     1       3.259   4.523  19.693  0.00  0.00    +0.000 A 
ATOM     10  C   UNL     1       3.398   3.136  19.531  0.00  0.00    +0.000 A 
ATOM     11  C   UNL     1       2.313   2.283  19.744  0.00  0.00    +0.000 A 
ATOM     12  C   UNL     1       1.077   2.804  20.121  0.00  0.00    +0.000 A 
ATOM     13  C   UNL     1       0.925   4.180  20.284  0.00  0.00    +0.000 A 
ATOM     14  C   UNL     1       2.009   5.033  20.076  0.00  0.00    +0.000 A 
ENDBRANCH   8   9
ENDBRANCH   4   8
TORSDOF 2
ENDMDL
MODEL 7
REMARK VINA RESULT:      -6.4      1.101      1.199
REMARK  Name = 
REMARK  2 active torsions:
REMARK  status: ('A' for Active; 'I' for Inactive)
REMARK    1  A    between atoms: N_4  and  C_5
REMARK    2  A    between atoms: C_5  and  C_6
REMARK                            x       y       z     vdW  Elec       q    Type
REMARK                         _______ _______ _______ _____ _____    ______ ____
ROOT
ATOM      1  O   UNL     1       7.891   5.253  19.592  0.00  0.00    +0.000 OA
ATOM      2  N   UNL     1       6.901   5.327  18.816  0.00  0.00    +0.000 N 
ATOM      3  N   UNL     1       5.983   4.384  18.764  0.00  0.00    +0.000 NA
ATOM      4  N   UNL     1       5.098   4.813  17.855  0.00  0.00    +0.000 N 
ATOM      5  C   UNL     1       5.470   5.993  17.301  0.00  0.00    +0.000 A 
ATOM      6  C   UNL     1       6.645   6.323  17.927  0.00  0.00    +0.000 A 
ATOM      7 BR   UNL     1       7.708   7.836  17.611  0.00  0.00    +0.000 Br
ENDROOT
BRANCH   4   8
ATOM      8  C   UNL     1       3.964   3.978  17.472  0.00  0.00    +0.000 C 
BRANCH   8   9
ATOM      9  C   UNL     1       2.946   3.833  18.575  0.00  0.00    +0.000 A 
ATOM     10  C   UNL     1       2.524   2.562  18.992  0.00  0.00    +0.000 A 
ATOM     11  C   UNL     1       1.630   2.423  20.056  0.00  0.00    +0.000 A 
ATOM     12  C   UNL     1       1.146   3.550  20.715  0.00  0.00    +0.000 A 
ATOM     13  C   UNL     1       1.555   4.820  20.310  0.00  0.00    +0.000 A 
ATOM     14  C   UNL     1       2.452   4.961  19.250  0.00  0.00    +0.000 A 
ENDBRANCH   8   9
ENDBRANCH   4   8
TORSDOF 2
ENDMDL
MODEL 8
REMARK VINA RESULT:      -6.4      1.494      1.970
REMARK  Name = 
REMARK  2 active torsions:
REMARK  status: ('A' for Active; 'I' for Inactive)
REMARK    1  A    between atoms: N_4  and  C_5
REMARK    2  A    between atoms: C_5  and  C_6
REMARK                            x       y       z     vdW  Elec       q    Type
REMARK                         _______ _______ _______ _____ _____    ______ ____
ROOT
ATOM      1  O   UNL     1       8.139   5.409  19.633  0.00  0.00    +0.000 OA
ATOM      2  N   UNL     1       7.080   5.325  18.956  0.00  0.00    +0.000 N 
ATOM      3  N   UNL     1       6.253   4.307  19.077  0.00  0.00    +0.000 NA
ATOM      4  N   UNL     1       5.253   4.573  18.227  0.00  0.00    +0.000 N 
ATOM      5  C   UNL     1       5.462   5.721  17.539  0.00  0.00    +0.000 A 
ATOM      6  C   UNL     1       6.653   6.207  18.013  0.00  0.00    +0.000 A 
ATOM      7 BR   UNL     1       7.538   7.767  17.464  0.00  0.00    +0.000 Br
ENDROOT
BRANCH   4   8
ATOM      8  C   UNL     1       4.171   3.612  18.032  0.00  0.00    +0.000 C 
BRANCH   8   9
ATOM      9  C   UNL     1       3.229   3.547  19.208  0.00  0.00    +0.000 A 
ATOM     10  C   UNL     1       2.012   4.243  19.183  0.00  0.00    +0.000 A 
ATOM     11  C   UNL     1       1.109   4.134  20.244  0.00  0.00    +0.000 A 
ATOM     12  C   UNL     1       1.411   3.330  21.340  0.00  0.00    +0.000 A 
ATOM     13  C   UNL     1       2.618   2.634  21.378  0.00  0.00    +0.000 A 
ATOM     14  C   UNL     1       3.520   2.738  20.318  0.00  0.00    +0.000 A 
ENDBRANCH   8   9
ENDBRANCH   4   8
TORSDOF 2
ENDMDL
MODEL 9
REMARK VINA RESULT:      -6.4      1.081      1.584
REMARK  Name = 
REMARK  2 active torsions:
REMARK  status: ('A' for Active; 'I' for Inactive)
REMARK    1  A    between atoms: N_4  and  C_5
REMARK    2  A    between atoms: C_5  and  C_6
REMARK                            x       y       z     vdW  Elec       q    Type
REMARK                         _______ _______ _______ _____ _____    ______ ____
ROOT
ATOM      1  O   UNL     1       8.019   5.389  19.638  0.00  0.00    +0.000 OA
ATOM      2  N   UNL     1       7.033   5.397  18.854  0.00  0.00    +0.000 N 
ATOM      3  N   UNL     1       6.169   4.404  18.808  0.00  0.00    +0.000 NA
ATOM      4  N   UNL     1       5.269   4.773  17.888  0.00  0.00    +0.000 N 
ATOM      5  C   UNL     1       5.579   5.964  17.321  0.00  0.00    +0.000 A 
ATOM      6  C   UNL     1       6.729   6.367  17.950  0.00  0.00    +0.000 A 
ATOM      7 BR   UNL     1       7.710   7.931  17.621  0.00  0.00    +0.000 Br
ENDROOT
BRANCH   4   8
ATOM      8  C   UNL     1       4.186   3.871  17.508  0.00  0.00    +0.000 C 
BRANCH   8   9
ATOM      9  C   UNL     1       3.059   3.856  18.511  0.00  0.00    +0.000 A 
ATOM     10  C   UNL     1       2.954   4.868  19.478  0.00  0.00    +0.000 A 
ATOM     11  C   UNL     1       1.878   4.892  20.367  0.00  0.00    +0.000 A 
ATOM     12  C   UNL     1       0.895   3.907  20.303  0.00  0.00    +0.000 A 
ATOM     13  C   UNL     1       0.988   2.895  19.349  0.00  0.00    +0.000 A 
ATOM     14  C   UNL     1       2.060   2.872  18.456  0.00  0.00    +0.000 A 
ENDBRANCH   8   9
ENDBRANCH   4   8
TORSDOF 2
ENDMDL
