MODEL 1
REMARK VINA RESULT:      -5.6      0.000      0.000
REMARK  Name = 
REMARK  10 active torsions:
REMARK  status: ('A' for Active; 'I' for Inactive)
REMARK    1  A    between atoms: C_1  and  O_2
REMARK    2  A    between atoms: O_2  and  C_3
REMARK    3  A    between atoms: C_6  and  O_7
REMARK    4  A    between atoms: O_7  and  C_8
REMARK    5  A    between atoms: C_8  and  C_9
REMARK    6  A    between atoms: C_9  and  N_10
REMARK    7  A    between atoms: N_10  and  C_11
REMARK    8  A    between atoms: N_10  and  C_12
REMARK    9  A    between atoms: C_12  and  C_13
REMARK   10  A    between atoms: C_13  and  O_14
REMARK                            x       y       z     vdW  Elec       q    Type
REMARK                         _______ _______ _______ _____ _____    ______ ____
ROOT
ATOM      1  O   UNL     1       4.501   5.228  19.636  0.00  0.00    +0.000 OA
ENDROOT
BRANCH   1   5
ATOM      2  C   UNL     1       6.757   5.417  16.112  0.00  0.00    +0.000 A 
ATOM      3  C   UNL     1       5.512   6.037  16.154  0.00  0.00    +0.000 A 
ATOM      4  C   UNL     1       4.745   6.006  17.315  0.00  0.00    +0.000 A 
ATOM      5  C   UNL     1       5.198   5.330  18.454  0.00  0.00    +0.000 A 
ATOM      6  C   UNL     1       6.442   4.698  18.406  0.00  0.00    +0.000 A 
ATOM      7  C   UNL     1       7.223   4.738  17.240  0.00  0.00    +0.000 A 
BRANCH   2   9
ATOM      8  C   UNL     1       6.944   4.587  13.916  0.00  0.00    +0.000 C 
ATOM      9  O   UNL     1       7.390   5.504  14.906  0.00  0.00    +0.000 OA
ENDBRANCH   2   9
ENDBRANCH   1   5
BRANCH   1  10
ATOM     10  C   UNL     1       3.170   5.747  19.558  0.00  0.00    +0.000 C 
BRANCH  10  11
ATOM     11  C   UNL     1       2.107   4.647  19.660  0.00  0.00    +0.000 C 
BRANCH  11  12
ATOM     12  N   UNL     1       2.673   3.375  20.174  0.00  0.00    +0.000 NA
ATOM     13  C   UNL     1       2.164   3.065  21.520  0.00  0.00    +0.000 C 
BRANCH  12  14
ATOM     14  C   UNL     1       2.367   2.232  19.282  0.00  0.00    +0.000 C 
BRANCH  14  15
ATOM     15  C   UNL     1       3.436   1.973  18.208  0.00  0.00    +0.000 C 
BRANCH  15  16
ATOM     16  O   UNL     1       4.013   0.681  18.373  0.00  0.00    +0.000 OA
ATOM     17  H   UNL     1       4.747   0.640  17.730  0.00  0.00    +0.000 HD
ENDBRANCH  15  16
ENDBRANCH  14  15
ENDBRANCH  12  14
ENDBRANCH  11  12
ENDBRANCH  10  11
ENDBRANCH   1  10
TORSDOF 8
ENDMDL
MODEL 2
REMARK VINA RESULT:      -5.5      1.002      1.221
REMARK  Name = 
REMARK  10 active torsions:
REMARK  status: ('A' for Active; 'I' for Inactive)
REMARK    1  A    between atoms: C_1  and  O_2
REMARK    2  A    between atoms: O_2  and  C_3
REMARK    3  A    between atoms: C_6  and  O_7
REMARK    4  A    between atoms: O_7  and  C_8
REMARK    5  A    between atoms: C_8  and  C_9
REMARK    6  A    between atoms: C_9  and  N_10
REMARK    7  A    between atoms: N_10  and  C_11
REMARK    8  A    between atoms: N_10  and  C_12
REMARK    9  A    between atoms: C_12  and  C_13
REMARK   10  A    between atoms: C_13  and  O_14
REMARK                            x       y       z     vdW  Elec       q    Type
REMARK                         _______ _______ _______ _____ _____    ______ ____
ROOT
ATOM      1  O   UNL     1       3.902   5.905  19.522  0.00  0.00    +0.000 OA
ENDROOT
BRANCH   1   5
ATOM      2  C   UNL     1       6.659   5.549  16.389  0.00  0.00    +0.000 A 
ATOM      3  C   UNL     1       5.366   5.982  16.108  0.00  0.00    +0.000 A 
ATOM      4  C   UNL     1       4.431   6.125  17.129  0.00  0.00    +0.000 A 
ATOM      5  C   UNL     1       4.763   5.815  18.452  0.00  0.00    +0.000 A 
ATOM      6  C   UNL     1       6.057   5.369  18.731  0.00  0.00    +0.000 A 
ATOM      7  C   UNL     1       7.006   5.235  17.705  0.00  0.00    +0.000 A 
BRANCH   2   9
ATOM      8  C   UNL     1       6.889   4.747  14.187  0.00  0.00    +0.000 C 
ATOM      9  O   UNL     1       7.463   5.429  15.293  0.00  0.00    +0.000 OA
ENDBRANCH   2   9
ENDBRANCH   1   5
BRANCH   1  10
ATOM     10  C   UNL     1       2.530   5.710  19.163  0.00  0.00    +0.000 C 
BRANCH  10  11
ATOM     11  C   UNL     1       1.765   4.885  20.205  0.00  0.00    +0.000 C 
BRANCH  11  12
ATOM     12  N   UNL     1       1.707   3.448  19.840  0.00  0.00    +0.000 NA
ATOM     13  C   UNL     1       1.697   3.264  18.379  0.00  0.00    +0.000 C 
BRANCH  12  14
ATOM     14  C   UNL     1       2.848   2.687  20.401  0.00  0.00    +0.000 C 
BRANCH  14  15
ATOM     15  C   UNL     1       3.861   2.211  19.349  0.00  0.00    +0.000 C 
BRANCH  15  16
ATOM     16  O   UNL     1       5.133   1.975  19.945  0.00  0.00    +0.000 OA
ATOM     17  H   UNL     1       5.604   2.831  19.898  0.00  0.00    +0.000 HD
ENDBRANCH  15  16
ENDBRANCH  14  15
ENDBRANCH  12  14
ENDBRANCH  11  12
ENDBRANCH  10  11
ENDBRANCH   1  10
TORSDOF 8
ENDMDL
MODEL 3
REMARK VINA RESULT:      -5.5      2.604      5.919
REMARK  Name = 
REMARK  10 active torsions:
REMARK  status: ('A' for Active; 'I' for Inactive)
REMARK    1  A    between atoms: C_1  and  O_2
REMARK    2  A    between atoms: O_2  and  C_3
REMARK    3  A    between atoms: C_6  and  O_7
REMARK    4  A    between atoms: O_7  and  C_8
REMARK    5  A    between atoms: C_8  and  C_9
REMARK    6  A    between atoms: C_9  and  N_10
REMARK    7  A    between atoms: N_10  and  C_11
REMARK    8  A    between atoms: N_10  and  C_12
REMARK    9  A    between atoms: C_12  and  C_13
REMARK   10  A    between atoms: C_13  and  O_14
REMARK                            x       y       z     vdW  Elec       q    Type
REMARK                         _______ _______ _______ _____ _____    ______ ____
ROOT
ATOM      1  O   UNL     1       4.990   3.721  16.621  0.00  0.00    +0.000 OA
ENDROOT
BRANCH   1   5
ATOM      2  C   UNL     1       1.900   3.218  19.403  0.00  0.00    +0.000 A 
ATOM      3  C   UNL     1       3.201   2.886  19.769  0.00  0.00    +0.000 A 
ATOM      4  C   UNL     1       4.252   3.056  18.873  0.00  0.00    +0.000 A 
ATOM      5  C   UNL     1       4.020   3.540  17.581  0.00  0.00    +0.000 A 
ATOM      6  C   UNL     1       2.712   3.861  17.211  0.00  0.00    +0.000 A 
ATOM      7  C   UNL     1       1.651   3.701  18.117  0.00  0.00    +0.000 A 
BRANCH   2   9
ATOM      8  C   UNL     1       1.479   2.753  21.673  0.00  0.00    +0.000 C 
ATOM      9  O   UNL     1       0.965   2.977  20.368  0.00  0.00    +0.000 OA
ENDBRANCH   2   9
ENDBRANCH   1   5
BRANCH   1  10
ATOM     10  C   UNL     1       5.028   5.052  16.097  0.00  0.00    +0.000 C 
BRANCH  10  11
ATOM     11  C   UNL     1       5.538   6.070  17.123  0.00  0.00    +0.000 C 
BRANCH  11  12
ATOM     12  N   UNL     1       7.021   6.125  17.160  0.00  0.00    +0.000 NA
ATOM     13  C   UNL     1       7.501   7.486  17.450  0.00  0.00    +0.000 C 
BRANCH  12  14
ATOM     14  C   UNL     1       7.584   5.203  18.174  0.00  0.00    +0.000 C 
BRANCH  14  15
ATOM     15  C   UNL     1       7.054   5.439  19.597  0.00  0.00    +0.000 C 
BRANCH  15  16
ATOM     16  O   UNL     1       8.124   5.449  20.537  0.00  0.00    +0.000 OA
ATOM     17  H   UNL     1       8.596   6.291  20.385  0.00  0.00    +0.000 HD
ENDBRANCH  15  16
ENDBRANCH  14  15
ENDBRANCH  12  14
ENDBRANCH  11  12
ENDBRANCH  10  11
ENDBRANCH   1  10
TORSDOF 8
ENDMDL
MODEL 4
REMARK VINA RESULT:      -5.5      2.559      5.867
REMARK  Name = 
REMARK  10 active torsions:
REMARK  status: ('A' for Active; 'I' for Inactive)
REMARK    1  A    between atoms: C_1  and  O_2
REMARK    2  A    between atoms: O_2  and  C_3
REMARK    3  A    between atoms: C_6  and  O_7
REMARK    4  A    between atoms: O_7  and  C_8
REMARK    5  A    between atoms: C_8  and  C_9
REMARK    6  A    between atoms: C_9  and  N_10
REMARK    7  A    between atoms: N_10  and  C_11
REMARK    8  A    between atoms: N_10  and  C_12
REMARK    9  A    between atoms: C_12  and  C_13
REMARK   10  A    between atoms: C_13  and  O_14
REMARK                            x       y       z     vdW  Elec       q    Type
REMARK                         _______ _______ _______ _____ _____    ______ ____
ROOT
ATOM      1  O   UNL     1       5.043   3.451  16.664  0.00  0.00    +0.000 OA
ENDROOT
BRANCH   1   5
ATOM      2  C   UNL     1       1.925   3.284  19.457  0.00  0.00    +0.000 A 
ATOM      3  C   UNL     1       3.237   3.132  19.896  0.00  0.00    +0.000 A 
ATOM      4  C   UNL     1       4.296   3.197  18.995  0.00  0.00    +0.000 A 
ATOM      5  C   UNL     1       4.063   3.393  17.630  0.00  0.00    +0.000 A 
ATOM      6  C   UNL     1       2.746   3.534  17.189  0.00  0.00    +0.000 A 
ATOM      7  C   UNL     1       1.676   3.479  18.097  0.00  0.00    +0.000 A 
BRANCH   2   9
ATOM      8  C   UNL     1       1.451   2.635  21.670  0.00  0.00    +0.000 C 
ATOM      9  O   UNL     1       0.986   3.172  20.440  0.00  0.00    +0.000 OA
ENDBRANCH   2   9
ENDBRANCH   1   5
BRANCH   1  10
ATOM     10  C   UNL     1       4.894   4.558  15.770  0.00  0.00    +0.000 C 
BRANCH  10  11
ATOM     11  C   UNL     1       6.214   5.298  15.531  0.00  0.00    +0.000 C 
BRANCH  11  12
ATOM     12  N   UNL     1       6.292   6.559  16.311  0.00  0.00    +0.000 NA
ATOM     13  C   UNL     1       5.031   6.830  17.021  0.00  0.00    +0.000 C 
BRANCH  12  14
ATOM     14  C   UNL     1       7.392   6.529  17.303  0.00  0.00    +0.000 C 
BRANCH  14  15
ATOM     15  C   UNL     1       7.117   5.628  18.516  0.00  0.00    +0.000 C 
BRANCH  15  16
ATOM     16  O   UNL     1       7.573   4.300  18.271  0.00  0.00    +0.000 OA
ATOM     17  H   UNL     1       8.270   4.138  18.937  0.00  0.00    +0.000 HD
ENDBRANCH  15  16
ENDBRANCH  14  15
ENDBRANCH  12  14
ENDBRANCH  11  12
ENDBRANCH  10  11
ENDBRANCH   1  10
TORSDOF 8
ENDMDL
MODEL 5
REMARK VINA RESULT:      -5.5      0.896      1.710
REMARK  Name = 
REMARK  10 active torsions:
REMARK  status: ('A' for Active; 'I' for Inactive)
REMARK    1  A    between atoms: C_1  and  O_2
REMARK    2  A    between atoms: O_2  and  C_3
REMARK    3  A    between atoms: C_6  and  O_7
REMARK    4  A    between atoms: O_7  and  C_8
REMARK    5  A    between atoms: C_8  and  C_9
REMARK    6  A    between atoms: C_9  and  N_10
REMARK    7  A    between atoms: N_10  and  C_11
REMARK    8  A    between atoms: N_10  and  C_12
REMARK    9  A    between atoms: C_12  and  C_13
REMARK   10  A    between atoms: C_13  and  O_14
REMARK                            x       y       z     vdW  Elec       q    Type
REMARK                         _______ _______ _______ _____ _____    ______ ____
ROOT
ATOM      1  O   UNL     1       4.849   5.532  19.478  0.00  0.00    +0.000 OA
ENDROOT
BRANCH   1   5
ATOM      2  C   UNL     1       6.301   5.322  15.554  0.00  0.00    +0.000 A 
ATOM      3  C   UNL     1       6.894   4.538  16.539  0.00  0.00    +0.000 A 
ATOM      4  C   UNL     1       6.425   4.573  17.849  0.00  0.00    +0.000 A 
ATOM      5  C   UNL     1       5.365   5.414  18.207  0.00  0.00    +0.000 A 
ATOM      6  C   UNL     1       4.779   6.210  17.220  0.00  0.00    +0.000 A 
ATOM      7  C   UNL     1       5.243   6.167  15.896  0.00  0.00    +0.000 A 
BRANCH   2   9
ATOM      8  C   UNL     1       6.482   4.071  13.568  0.00  0.00    +0.000 C 
ATOM      9  O   UNL     1       6.876   5.208  14.322  0.00  0.00    +0.000 OA
ENDBRANCH   2   9
ENDBRANCH   1   5
BRANCH   1  10
ATOM     10  C   UNL     1       3.427   5.372  19.529  0.00  0.00    +0.000 C 
BRANCH  10  11
ATOM     11  C   UNL     1       3.012   3.918  19.776  0.00  0.00    +0.000 C 
BRANCH  11  12
ATOM     12  N   UNL     1       1.891   3.504  18.895  0.00  0.00    +0.000 NA
ATOM     13  C   UNL     1       1.650   4.495  17.832  0.00  0.00    +0.000 C 
BRANCH  12  14
ATOM     14  C   UNL     1       2.142   2.188  18.262  0.00  0.00    +0.000 C 
BRANCH  14  15
ATOM     15  C   UNL     1       3.623   1.908  17.964  0.00  0.00    +0.000 C 
BRANCH  15  16
ATOM     16  O   UNL     1       4.003   0.628  18.458  0.00  0.00    +0.000 OA
ATOM     17  H   UNL     1       4.949   0.532  18.230  0.00  0.00    +0.000 HD
ENDBRANCH  15  16
ENDBRANCH  14  15
ENDBRANCH  12  14
ENDBRANCH  11  12
ENDBRANCH  10  11
ENDBRANCH   1  10
TORSDOF 8
ENDMDL
MODEL 6
REMARK VINA RESULT:      -5.4      1.670      2.279
REMARK  Name = 
REMARK  10 active torsions:
REMARK  status: ('A' for Active; 'I' for Inactive)
REMARK    1  A    between atoms: C_1  and  O_2
REMARK    2  A    between atoms: O_2  and  C_3
REMARK    3  A    between atoms: C_6  and  O_7
REMARK    4  A    between atoms: O_7  and  C_8
REMARK    5  A    between atoms: C_8  and  C_9
REMARK    6  A    between atoms: C_9  and  N_10
REMARK    7  A    between atoms: N_10  and  C_11
REMARK    8  A    between atoms: N_10  and  C_12
REMARK    9  A    between atoms: C_12  and  C_13
REMARK   10  A    between atoms: C_13  and  O_14
REMARK                            x       y       z     vdW  Elec       q    Type
REMARK                         _______ _______ _______ _____ _____    ______ ____
ROOT
ATOM      1  O   UNL     1       4.143   4.583  19.606  0.00  0.00    +0.000 OA
ENDROOT
BRANCH   1   5
ATOM      2  C   UNL     1       6.911   6.960  17.550  0.00  0.00    +0.000 A 
ATOM      3  C   UNL     1       7.350   6.171  18.608  0.00  0.00    +0.000 A 
ATOM      4  C   UNL     1       6.458   5.358  19.302  0.00  0.00    +0.000 A 
ATOM      5  C   UNL     1       5.100   5.337  18.966  0.00  0.00    +0.000 A 
ATOM      6  C   UNL     1       4.659   6.139  17.911  0.00  0.00    +0.000 A 
ATOM      7  C   UNL     1       5.559   6.950  17.202  0.00  0.00    +0.000 A 
BRANCH   2   9
ATOM      8  C   UNL     1       8.179   8.942  17.648  0.00  0.00    +0.000 C 
ATOM      9  O   UNL     1       7.885   7.726  16.976  0.00  0.00    +0.000 OA
ENDBRANCH   2   9
ENDBRANCH   1   5
BRANCH   1  10
ATOM     10  C   UNL     1       2.917   5.290  19.824  0.00  0.00    +0.000 C 
BRANCH  10  11
ATOM     11  C   UNL     1       1.714   4.348  19.947  0.00  0.00    +0.000 C 
BRANCH  11  12
ATOM     12  N   UNL     1       2.126   2.964  20.290  0.00  0.00    +0.000 NA
ATOM     13  C   UNL     1       1.518   2.520  21.555  0.00  0.00    +0.000 C 
BRANCH  12  14
ATOM     14  C   UNL     1       1.760   1.997  19.228  0.00  0.00    +0.000 C 
BRANCH  14  15
ATOM     15  C   UNL     1       2.797   1.885  18.100  0.00  0.00    +0.000 C 
BRANCH  15  16
ATOM     16  O   UNL     1       4.115   1.802  18.634  0.00  0.00    +0.000 OA
ATOM     17  H   UNL     1       4.713   1.911  17.868  0.00  0.00    +0.000 HD
ENDBRANCH  15  16
ENDBRANCH  14  15
ENDBRANCH  12  14
ENDBRANCH  11  12
ENDBRANCH  10  11
ENDBRANCH   1  10
TORSDOF 8
ENDMDL
MODEL 7
REMARK VINA RESULT:      -5.4      2.540      5.803
REMARK  Name = 
REMARK  10 active torsions:
REMARK  status: ('A' for Active; 'I' for Inactive)
REMARK    1  A    between atoms: C_1  and  O_2
REMARK    2  A    between atoms: O_2  and  C_3
REMARK    3  A    between atoms: C_6  and  O_7
REMARK    4  A    between atoms: O_7  and  C_8
REMARK    5  A    between atoms: C_8  and  C_9
REMARK    6  A    between atoms: C_9  and  N_10
REMARK    7  A    between atoms: N_10  and  C_11
REMARK    8  A    between atoms: N_10  and  C_12
REMARK    9  A    between atoms: C_12  and  C_13
REMARK   10  A    between atoms: C_13  and  O_14
REMARK                            x       y       z     vdW  Elec       q    Type
REMARK                         _______ _______ _______ _____ _____    ______ ____
ROOT
ATOM      1  O   UNL     1       4.547   4.461  16.399  0.00  0.00    +0.000 OA
ENDROOT
BRANCH   1   5
ATOM      2  C   UNL     1       2.697   3.958  20.123  0.00  0.00    +0.000 A 
ATOM      3  C   UNL     1       2.613   5.192  19.486  0.00  0.00    +0.000 A 
ATOM      4  C   UNL     1       3.203   5.387  18.240  0.00  0.00    +0.000 A 
ATOM      5  C   UNL     1       3.913   4.356  17.616  0.00  0.00    +0.000 A 
ATOM      6  C   UNL     1       4.008   3.122  18.263  0.00  0.00    +0.000 A 
ATOM      7  C   UNL     1       3.403   2.919  19.513  0.00  0.00    +0.000 A 
BRANCH   2   9
ATOM      8  C   UNL     1       1.440   2.694  21.662  0.00  0.00    +0.000 C 
ATOM      9  O   UNL     1       2.096   3.914  21.348  0.00  0.00    +0.000 OA
ENDBRANCH   2   9
ENDBRANCH   1   5
BRANCH   1  10
ATOM     10  C   UNL     1       5.912   4.033  16.430  0.00  0.00    +0.000 C 
BRANCH  10  11
ATOM     11  C   UNL     1       6.865   5.074  15.832  0.00  0.00    +0.000 C 
BRANCH  11  12
ATOM     12  N   UNL     1       7.564   5.854  16.883  0.00  0.00    +0.000 NA
ATOM     13  C   UNL     1       6.836   7.093  17.206  0.00  0.00    +0.000 C 
BRANCH  12  14
ATOM     14  C   UNL     1       7.739   5.073  18.130  0.00  0.00    +0.000 C 
BRANCH  14  15
ATOM     15  C   UNL     1       7.412   5.856  19.410  0.00  0.00    +0.000 C 
BRANCH  15  16
ATOM     16  O   UNL     1       8.088   5.293  20.531  0.00  0.00    +0.000 OA
ATOM     17  H   UNL     1       8.368   6.056  21.075  0.00  0.00    +0.000 HD
ENDBRANCH  15  16
ENDBRANCH  14  15
ENDBRANCH  12  14
ENDBRANCH  11  12
ENDBRANCH  10  11
ENDBRANCH   1  10
TORSDOF 8
ENDMDL
MODEL 8
REMARK VINA RESULT:      -5.4      0.963      1.024
REMARK  Name = 
REMARK  10 active torsions:
REMARK  status: ('A' for Active; 'I' for Inactive)
REMARK    1  A    between atoms: C_1  and  O_2
REMARK    2  A    between atoms: O_2  and  C_3
REMARK    3  A    between atoms: C_6  and  O_7
REMARK    4  A    between atoms: O_7  and  C_8
REMARK    5  A    between atoms: C_8  and  C_9
REMARK    6  A    between atoms: C_9  and  N_10
REMARK    7  A    between atoms: N_10  and  C_11
REMARK    8  A    between atoms: N_10  and  C_12
REMARK    9  A    between atoms: C_12  and  C_13
REMARK   10  A    between atoms: C_13  and  O_14
REMARK                            x       y       z     vdW  Elec       q    Type
REMARK                         _______ _______ _______ _____ _____    ______ ____
ROOT
ATOM      1  O   UNL     1       4.416   5.553  19.653  0.00  0.00    +0.000 OA
ENDROOT
BRANCH   1   5
ATOM      2  C   UNL     1       6.825   5.417  16.229  0.00  0.00    +0.000 A 
ATOM      3  C   UNL     1       5.540   5.944  16.133  0.00  0.00    +0.000 A 
ATOM      4  C   UNL     1       4.720   6.017  17.256  0.00  0.00    +0.000 A 
ATOM      5  C   UNL     1       5.161   5.542  18.496  0.00  0.00    +0.000 A 
ATOM      6  C   UNL     1       6.446   5.002  18.588  0.00  0.00    +0.000 A 
ATOM      7  C   UNL     1       7.279   4.938  17.459  0.00  0.00    +0.000 A 
BRANCH   2   9
ATOM      8  C   UNL     1       6.872   4.673  13.996  0.00  0.00    +0.000 C 
ATOM      9  O   UNL     1       7.509   5.382  15.048  0.00  0.00    +0.000 OA
ENDBRANCH   2   9
ENDBRANCH   1   5
BRANCH   1  10
ATOM     10  C   UNL     1       3.066   5.985  19.455  0.00  0.00    +0.000 C 
BRANCH  10  11
ATOM     11  C   UNL     1       2.044   4.955  19.948  0.00  0.00    +0.000 C 
BRANCH  11  12
ATOM     12  N   UNL     1       2.696   3.698  20.395  0.00  0.00    +0.000 NA
ATOM     13  C   UNL     1       2.116   3.213  21.658  0.00  0.00    +0.000 C 
BRANCH  12  14
ATOM     14  C   UNL     1       2.581   2.623  19.381  0.00  0.00    +0.000 C 
BRANCH  14  15
ATOM     15  C   UNL     1       1.538   2.903  18.289  0.00  0.00    +0.000 C 
BRANCH  15  16
ATOM     16  O   UNL     1       2.171   3.128  17.033  0.00  0.00    +0.000 OA
ATOM     17  H   UNL     1       1.447   3.336  16.410  0.00  0.00    +0.000 HD
ENDBRANCH  15  16
ENDBRANCH  14  15
ENDBRANCH  12  14
ENDBRANCH  11  12
ENDBRANCH  10  11
ENDBRANCH   1  10
TORSDOF 8
ENDMDL
MODEL 9
REMARK VINA RESULT:      -5.4      1.531      1.689
REMARK  Name = 
REMARK  10 active torsions:
REMARK  status: ('A' for Active; 'I' for Inactive)
REMARK    1  A    between atoms: C_1  and  O_2
REMARK    2  A    between atoms: O_2  and  C_3
REMARK    3  A    between atoms: C_6  and  O_7
REMARK    4  A    between atoms: O_7  and  C_8
REMARK    5  A    between atoms: C_8  and  C_9
REMARK    6  A    between atoms: C_9  and  N_10
REMARK    7  A    between atoms: N_10  and  C_11
REMARK    8  A    between atoms: N_10  and  C_12
REMARK    9  A    between atoms: C_12  and  C_13
REMARK   10  A    between atoms: C_13  and  O_14
REMARK                            x       y       z     vdW  Elec       q    Type
REMARK                         _______ _______ _______ _____ _____    ______ ____
ROOT
ATOM      1  O   UNL     1       2.508   5.781  18.060  0.00  0.00    +0.000 OA
ENDROOT
BRANCH   1   5
ATOM      2  C   UNL     1       6.171   5.346  16.076  0.00  0.00    +0.000 A 
ATOM      3  C   UNL     1       5.860   6.568  16.666  0.00  0.00    +0.000 A 
ATOM      4  C   UNL     1       4.658   6.740  17.346  0.00  0.00    +0.000 A 
ATOM      5  C   UNL     1       3.728   5.698  17.429  0.00  0.00    +0.000 A 
ATOM      6  C   UNL     1       4.036   4.476  16.826  0.00  0.00    +0.000 A 
ATOM      7  C   UNL     1       5.253   4.297  16.150  0.00  0.00    +0.000 A 
BRANCH   2   9
ATOM      8  C   UNL     1       7.308   4.960  14.050  0.00  0.00    +0.000 C 
ATOM      9  O   UNL     1       7.368   5.325  15.422  0.00  0.00    +0.000 OA
ENDBRANCH   2   9
ENDBRANCH   1   5
BRANCH   1  10
ATOM     10  C   UNL     1       1.942   4.503  18.372  0.00  0.00    +0.000 C 
BRANCH  10  11
ATOM     11  C   UNL     1       1.527   4.392  19.843  0.00  0.00    +0.000 C 
BRANCH  11  12
ATOM     12  N   UNL     1       2.374   3.426  20.586  0.00  0.00    +0.000 NA
ATOM     13  C   UNL     1       1.589   2.677  21.582  0.00  0.00    +0.000 C 
BRANCH  12  14
ATOM     14  C   UNL     1       3.033   2.455  19.681  0.00  0.00    +0.000 C 
BRANCH  14  15
ATOM     15  C   UNL     1       4.474   2.104  20.081  0.00  0.00    +0.000 C 
BRANCH  15  16
ATOM     16  O   UNL     1       5.391   3.050  19.540  0.00  0.00    +0.000 OA
ATOM     17  H   UNL     1       5.828   3.459  20.313  0.00  0.00    +0.000 HD
ENDBRANCH  15  16
ENDBRANCH  14  15
ENDBRANCH  12  14
ENDBRANCH  11  12
ENDBRANCH  10  11
ENDBRANCH   1  10
TORSDOF 8
ENDMDL
