MODEL 1
REMARK VINA RESULT:      -8.7      0.000      0.000
REMARK  Name = 
REMARK  7 active torsions:
REMARK  status: ('A' for Active; 'I' for Inactive)
REMARK    1  A    between atoms: C_1  and  C_2
REMARK    2  A    between atoms: C_2  and  C_3
REMARK    3  A    between atoms: C_2  and  N_4
REMARK    4  A    between atoms: N_15  and  C_16
REMARK    5  A    between atoms: C_16  and  C_17
REMARK    6  A    between atoms: C_16  and  C_25
REMARK    7  A    between atoms: C_17  and  N_18
REMARK                            x       y       z     vdW  Elec       q    Type
REMARK                         _______ _______ _______ _____ _____    ______ ____
ROOT
ATOM      1  N   UNL     1       5.347   3.804  16.740  0.00  0.00    +0.000 N 
ATOM      2  C   UNL     1       4.418   4.479  17.522  0.00  0.00    +0.000 A 
ATOM      3  N   UNL     1       3.905   3.746  18.518  0.00  0.00    +0.000 NA
ATOM      4  C   UNL     1       3.017   4.353  19.317  0.00  0.00    +0.000 A 
ATOM      5  C   UNL     1       2.643   5.668  19.178  0.00  0.00    +0.000 A 
ATOM      6  C   UNL     1       3.206   6.353  18.113  0.00  0.00    +0.000 A 
ATOM      7  N   UNL     1       4.104   5.763  17.291  0.00  0.00    +0.000 NA
ATOM      8  C   UNL     1       2.875   7.825  17.876  0.00  0.00    +0.000 C 
ATOM      9  N   UNL     1       1.894   8.388  18.831  0.00  0.00    +0.000 N 
ATOM     10  C   UNL     1       1.357   9.631  18.562  0.00  0.00    +0.000 C 
ATOM     11  O   UNL     1       1.695  10.311  17.597  0.00  0.00    +0.000 OA
ATOM     12  N   UNL     1       0.417  10.062  19.475  0.00  0.00    +0.000 N 
ATOM     13  C   UNL     1       1.937   7.812  20.171  0.00  0.00    +0.000 C 
ATOM     14  C   UNL     1       1.670   6.315  20.104  0.00  0.00    +0.000 C 
ATOM     15  H   UNL     1       5.629   3.006  17.302  0.00  0.00    +0.000 HD
ATOM     16  H   UNL     1      -0.114   9.348  19.940  0.00  0.00    +0.000 HD
ENDROOT
BRANCH   1  18
ATOM     17  C   UNL     1       7.650   4.480  17.076  0.00  0.00    +0.000 C 
ATOM     18  C   UNL     1       6.420   4.603  16.172  0.00  0.00    +0.000 C 
ATOM     19  C   UNL     1       6.755   4.094  14.770  0.00  0.00    +0.000 C 
ENDBRANCH   1  18
BRANCH  12  20
ATOM     20  C   UNL     1      -0.260  11.357  19.378  0.00  0.00    +0.000 C 
BRANCH  20  21
ATOM     21  C   UNL     1      -1.695  11.206  18.862  0.00  0.00    +0.000 A 
ATOM     22  C   UNL     1      -2.106  10.199  17.974  0.00  0.00    +0.000 A 
ATOM     23  C   UNL     1      -3.453  10.058  17.610  0.00  0.00    +0.000 A 
ATOM     24  C   UNL     1      -4.409  10.927  18.121  0.00  0.00    +0.000 A 
ATOM     25  F   UNL     1      -5.692  10.760  17.773  0.00  0.00    +0.000 F 
ATOM     26  C   UNL     1      -4.033  11.945  18.988  0.00  0.00    +0.000 A 
ATOM     27 CL   UNL     1      -5.204  13.031  19.630  0.00  0.00    +0.000 Cl
ATOM     28  C   UNL     1      -2.689  12.079  19.359  0.00  0.00    +0.000 A 
ENDBRANCH  20  21
BRANCH  20  29
ATOM     29  C   UNL     1      -0.034  12.193  20.672  0.00  0.00    +0.000 C 
BRANCH  29  30
ATOM     30  N   UNL     1       1.180  13.028  20.710  0.00  0.00    +0.000 N 
ATOM     31  C   UNL     1       0.992  14.228  20.006  0.00  0.00    +0.000 A 
ATOM     32  N   UNL     1      -0.250  14.725  19.869  0.00  0.00    +0.000 NA
ATOM     33  C   UNL     1      -0.402  15.845  19.136  0.00  0.00    +0.000 A 
ATOM     34  C   UNL     1       0.638  16.509  18.547  0.00  0.00    +0.000 A 
ATOM     35  C   UNL     1       1.872  15.941  18.755  0.00  0.00    +0.000 A 
ATOM     36  N   UNL     1       2.074  14.801  19.459  0.00  0.00    +0.000 NA
ATOM     37  H   UNL     1       2.023  12.621  20.318  0.00  0.00    +0.000 HD
ENDBRANCH  29  30
ENDBRANCH  20  29
ENDBRANCH  12  20
TORSDOF 5
ENDMDL
MODEL 2
REMARK VINA RESULT:      -8.6      1.560      1.929
REMARK  Name = 
REMARK  7 active torsions:
REMARK  status: ('A' for Active; 'I' for Inactive)
REMARK    1  A    between atoms: C_1  and  C_2
REMARK    2  A    between atoms: C_2  and  C_3
REMARK    3  A    between atoms: C_2  and  N_4
REMARK    4  A    between atoms: N_15  and  C_16
REMARK    5  A    between atoms: C_16  and  C_17
REMARK    6  A    between atoms: C_16  and  C_25
REMARK    7  A    between atoms: C_17  and  N_18
REMARK                            x       y       z     vdW  Elec       q    Type
REMARK                         _______ _______ _______ _____ _____    ______ ____
ROOT
ATOM      1  N   UNL     1       5.359   3.834  16.831  0.00  0.00    +0.000 N 
ATOM      2  C   UNL     1       4.428   4.467  17.646  0.00  0.00    +0.000 A 
ATOM      3  N   UNL     1       3.914   3.682  18.602  0.00  0.00    +0.000 NA
ATOM      4  C   UNL     1       3.024   4.247  19.430  0.00  0.00    +0.000 A 
ATOM      5  C   UNL     1       2.651   5.566  19.360  0.00  0.00    +0.000 A 
ATOM      6  C   UNL     1       3.215   6.307  18.332  0.00  0.00    +0.000 A 
ATOM      7  N   UNL     1       4.114   5.761  17.482  0.00  0.00    +0.000 NA
ATOM      8  C   UNL     1       2.883   7.789  18.173  0.00  0.00    +0.000 C 
ATOM      9  N   UNL     1       1.901   8.301  19.154  0.00  0.00    +0.000 N 
ATOM     10  C   UNL     1       1.363   9.556  18.949  0.00  0.00    +0.000 C 
ATOM     11  O   UNL     1       1.702  10.286  18.022  0.00  0.00    +0.000 OA
ATOM     12  N   UNL     1       0.422   9.939  19.882  0.00  0.00    +0.000 N 
ATOM     13  C   UNL     1       1.942   7.656  20.462  0.00  0.00    +0.000 C 
ATOM     14  C   UNL     1       1.676   6.164  20.317  0.00  0.00    +0.000 C 
ATOM     15  H   UNL     1       5.640   3.007  17.351  0.00  0.00    +0.000 HD
ATOM     16  H   UNL     1      -0.110   9.201  20.308  0.00  0.00    +0.000 HD
ENDROOT
BRANCH   1  18
ATOM     17  C   UNL     1       7.673   4.462  17.183  0.00  0.00    +0.000 C 
ATOM     18  C   UNL     1       6.433   4.661  16.307  0.00  0.00    +0.000 C 
ATOM     19  C   UNL     1       6.743   4.252  14.868  0.00  0.00    +0.000 C 
ENDBRANCH   1  18
BRANCH  12  20
ATOM     20  C   UNL     1      -0.256  11.236  19.852  0.00  0.00    +0.000 C 
BRANCH  20  21
ATOM     21  C   UNL     1      -1.598  11.155  19.117  0.00  0.00    +0.000 A 
ATOM     22  C   UNL     1      -1.871  10.245  18.084  0.00  0.00    +0.000 A 
ATOM     23  C   UNL     1      -3.148  10.158  17.512  0.00  0.00    +0.000 A 
ATOM     24  C   UNL     1      -4.171  10.986  17.958  0.00  0.00    +0.000 A 
ATOM     25  F   UNL     1      -5.388  10.870  17.409  0.00  0.00    +0.000 F 
ATOM     26  C   UNL     1      -3.929  11.910  18.968  0.00  0.00    +0.000 A 
ATOM     27 CL   UNL     1      -5.184  12.944  19.532  0.00  0.00    +0.000 Cl
ATOM     28  C   UNL     1      -2.656  11.989  19.545  0.00  0.00    +0.000 A 
ENDBRANCH  20  21
BRANCH  20  29
ATOM     29  C   UNL     1      -0.234  11.900  21.261  0.00  0.00    +0.000 C 
BRANCH  29  30
ATOM     30  N   UNL     1       0.260  13.287  21.325  0.00  0.00    +0.000 N 
ATOM     31  C   UNL     1      -0.558  14.078  22.148  0.00  0.00    +0.000 A 
ATOM     32  N   UNL     1      -1.268  13.495  23.129  0.00  0.00    +0.000 NA
ATOM     33  C   UNL     1      -2.089  14.274  23.860  0.00  0.00    +0.000 A 
ATOM     34  C   UNL     1      -2.218  15.622  23.670  0.00  0.00    +0.000 A 
ATOM     35  C   UNL     1      -1.440  16.136  22.660  0.00  0.00    +0.000 A 
ATOM     36  N   UNL     1      -0.622  15.390  21.879  0.00  0.00    +0.000 NA
ATOM     37  H   UNL     1       0.315  13.790  20.445  0.00  0.00    +0.000 HD
ENDBRANCH  29  30
ENDBRANCH  20  29
ENDBRANCH  12  20
TORSDOF 5
ENDMDL
MODEL 3
REMARK VINA RESULT:      -8.5      3.765      9.973
REMARK  Name = 
REMARK  7 active torsions:
REMARK  status: ('A' for Active; 'I' for Inactive)
REMARK    1  A    between atoms: C_1  and  C_2
REMARK    2  A    between atoms: C_2  and  C_3
REMARK    3  A    between atoms: C_2  and  N_4
REMARK    4  A    between atoms: N_15  and  C_16
REMARK    5  A    between atoms: C_16  and  C_17
REMARK    6  A    between atoms: C_16  and  C_25
REMARK    7  A    between atoms: C_17  and  N_18
REMARK                            x       y       z     vdW  Elec       q    Type
REMARK                         _______ _______ _______ _____ _____    ______ ____
ROOT
ATOM      1  N   UNL     1      -3.947  13.637  21.350  0.00  0.00    +0.000 N 
ATOM      2  C   UNL     1      -3.344  12.729  20.488  0.00  0.00    +0.000 A 
ATOM      3  N   UNL     1      -4.014  12.530  19.345  0.00  0.00    +0.000 NA
ATOM      4  C   UNL     1      -3.467  11.677  18.468  0.00  0.00    +0.000 A 
ATOM      5  C   UNL     1      -2.269  11.038  18.674  0.00  0.00    +0.000 A 
ATOM      6  C   UNL     1      -1.647  11.283  19.888  0.00  0.00    +0.000 A 
ATOM      7  N   UNL     1      -2.178  12.139  20.791  0.00  0.00    +0.000 NA
ATOM      8  C   UNL     1      -0.301  10.639  20.214  0.00  0.00    +0.000 C 
ATOM      9  N   UNL     1       0.207   9.730  19.163  0.00  0.00    +0.000 N 
ATOM     10  C   UNL     1       1.289   8.926  19.459  0.00  0.00    +0.000 C 
ATOM     11  O   UNL     1       1.881   8.970  20.535  0.00  0.00    +0.000 OA
ATOM     12  N   UNL     1       1.671   8.075  18.443  0.00  0.00    +0.000 N 
ATOM     13  C   UNL     1      -0.165  10.093  17.799  0.00  0.00    +0.000 C 
ATOM     14  C   UNL     1      -1.681  10.115  17.661  0.00  0.00    +0.000 C 
ATOM     15  H   UNL     1      -4.601  14.153  20.767  0.00  0.00    +0.000 HD
ATOM     16  H   UNL     1       0.944   7.772  17.818  0.00  0.00    +0.000 HD
ENDROOT
BRANCH   1  18
ATOM     17  C   UNL     1      -2.991  15.849  21.605  0.00  0.00    +0.000 C 
ATOM     18  C   UNL     1      -3.059  14.432  22.180  0.00  0.00    +0.000 C 
ATOM     19  C   UNL     1      -3.595  14.479  23.610  0.00  0.00    +0.000 C 
ENDBRANCH   1  18
BRANCH  12  20
ATOM     20  C   UNL     1       2.802   7.152  18.551  0.00  0.00    +0.000 C 
BRANCH  20  21
ATOM     21  C   UNL     1       2.336   5.711  18.781  0.00  0.00    +0.000 A 
ATOM     22  C   UNL     1       1.920   4.850  17.753  0.00  0.00    +0.000 A 
ATOM     23  C   UNL     1       1.591   3.512  18.016  0.00  0.00    +0.000 A 
ATOM     24  C   UNL     1       1.665   3.017  19.312  0.00  0.00    +0.000 A 
ATOM     25  F   UNL     1       1.364   1.730  19.534  0.00  0.00    +0.000 F 
ATOM     26  C   UNL     1       2.057   3.847  20.355  0.00  0.00    +0.000 A 
ATOM     27 CL   UNL     1       2.153   3.250  21.966  0.00  0.00    +0.000 Cl
ATOM     28  C   UNL     1       2.394   5.180  20.089  0.00  0.00    +0.000 A 
ENDBRANCH  20  21
BRANCH  20  29
ATOM     29  C   UNL     1       3.834   7.413  17.414  0.00  0.00    +0.000 C 
BRANCH  29  30
ATOM     30  N   UNL     1       5.245   7.125  17.729  0.00  0.00    +0.000 N 
ATOM     31  C   UNL     1       5.793   6.214  16.812  0.00  0.00    +0.000 A 
ATOM     32  N   UNL     1       5.275   6.130  15.575  0.00  0.00    +0.000 NA
ATOM     33  C   UNL     1       5.784   5.203  14.740  0.00  0.00    +0.000 A 
ATOM     34  C   UNL     1       6.809   4.364  15.079  0.00  0.00    +0.000 A 
ATOM     35  C   UNL     1       7.290   4.533  16.356  0.00  0.00    +0.000 A 
ATOM     36  N   UNL     1       6.793   5.430  17.241  0.00  0.00    +0.000 NA
ATOM     37  H   UNL     1       5.433   6.726  18.643  0.00  0.00    +0.000 HD
ENDBRANCH  29  30
ENDBRANCH  20  29
ENDBRANCH  12  20
TORSDOF 5
ENDMDL
MODEL 4
REMARK VINA RESULT:      -8.3      1.354      1.813
REMARK  Name = 
REMARK  7 active torsions:
REMARK  status: ('A' for Active; 'I' for Inactive)
REMARK    1  A    between atoms: C_1  and  C_2
REMARK    2  A    between atoms: C_2  and  C_3
REMARK    3  A    between atoms: C_2  and  N_4
REMARK    4  A    between atoms: N_15  and  C_16
REMARK    5  A    between atoms: C_16  and  C_17
REMARK    6  A    between atoms: C_16  and  C_25
REMARK    7  A    between atoms: C_17  and  N_18
REMARK                            x       y       z     vdW  Elec       q    Type
REMARK                         _______ _______ _______ _____ _____    ______ ____
ROOT
ATOM      1  N   UNL     1       5.380   3.854  17.362  0.00  0.00    +0.000 N 
ATOM      2  C   UNL     1       4.437   4.609  18.048  0.00  0.00    +0.000 A 
ATOM      3  N   UNL     1       3.898   3.986  19.103  0.00  0.00    +0.000 NA
ATOM      4  C   UNL     1       2.995   4.675  19.814  0.00  0.00    +0.000 A 
ATOM      5  C   UNL     1       2.631   5.969  19.529  0.00  0.00    +0.000 A 
ATOM      6  C   UNL     1       3.220   6.537  18.411  0.00  0.00    +0.000 A 
ATOM      7  N   UNL     1       4.134   5.862  17.677  0.00  0.00    +0.000 NA
ATOM      8  C   UNL     1       2.901   7.977  18.014  0.00  0.00    +0.000 C 
ATOM      9  N   UNL     1       1.902   8.639  18.882  0.00  0.00    +0.000 N 
ATOM     10  C   UNL     1       1.376   9.848  18.471  0.00  0.00    +0.000 C 
ATOM     11  O   UNL     1       1.738  10.422  17.448  0.00  0.00    +0.000 OA
ATOM     12  N   UNL     1       0.418  10.375  19.313  0.00  0.00    +0.000 N 
ATOM     13  C   UNL     1       1.912   8.207  20.275  0.00  0.00    +0.000 C 
ATOM     14  C   UNL     1       1.640   6.712  20.360  0.00  0.00    +0.000 C 
ATOM     15  H   UNL     1       5.645   3.118  18.011  0.00  0.00    +0.000 HD
ATOM     16  H   UNL     1      -0.127   9.714  19.838  0.00  0.00    +0.000 HD
ENDROOT
BRANCH   1  18
ATOM     17  C   UNL     1       7.722   4.427  17.603  0.00  0.00    +0.000 C 
ATOM     18  C   UNL     1       6.469   4.586  16.738  0.00  0.00    +0.000 C 
ATOM     19  C   UNL     1       6.731   4.028  15.340  0.00  0.00    +0.000 C 
ENDBRANCH   1  18
BRANCH  12  20
ATOM     20  C   UNL     1      -0.251  11.653  19.065  0.00  0.00    +0.000 C 
BRANCH  20  21
ATOM     21  C   UNL     1      -1.684  11.452  18.560  0.00  0.00    +0.000 A 
ATOM     22  C   UNL     1      -2.824  11.919  19.234  0.00  0.00    +0.000 A 
ATOM     23  C   UNL     1      -4.103  11.784  18.675  0.00  0.00    +0.000 A 
ATOM     24  C   UNL     1      -4.264  11.172  17.438  0.00  0.00    +0.000 A 
ATOM     25  F   UNL     1      -5.494  11.072  16.917  0.00  0.00    +0.000 F 
ATOM     26  C   UNL     1      -3.158  10.683  16.753  0.00  0.00    +0.000 A 
ATOM     27 CL   UNL     1      -3.339   9.921  15.221  0.00  0.00    +0.000 Cl
ATOM     28  C   UNL     1      -1.880  10.828  17.308  0.00  0.00    +0.000 A 
ENDBRANCH  20  21
BRANCH  20  29
ATOM     29  C   UNL     1      -0.027  12.630  20.257  0.00  0.00    +0.000 C 
BRANCH  29  30
ATOM     30  N   UNL     1      -0.039  14.069  19.938  0.00  0.00    +0.000 N 
ATOM     31  C   UNL     1       1.236  14.633  20.095  0.00  0.00    +0.000 A 
ATOM     32  N   UNL     1       2.323  13.853  19.971  0.00  0.00    +0.000 NA
ATOM     33  C   UNL     1       3.529  14.413  20.188  0.00  0.00    +0.000 A 
ATOM     34  C   UNL     1       3.702  15.733  20.504  0.00  0.00    +0.000 A 
ATOM     35  C   UNL     1       2.538  16.459  20.590  0.00  0.00    +0.000 A 
ATOM     36  N   UNL     1       1.302  15.935  20.409  0.00  0.00    +0.000 NA
ATOM     37  H   UNL     1      -0.657  14.651  20.494  0.00  0.00    +0.000 HD
ENDBRANCH  29  30
ENDBRANCH  20  29
ENDBRANCH  12  20
TORSDOF 5
ENDMDL
MODEL 5
REMARK VINA RESULT:      -8.3      3.854     10.033
REMARK  Name = 
REMARK  7 active torsions:
REMARK  status: ('A' for Active; 'I' for Inactive)
REMARK    1  A    between atoms: C_1  and  C_2
REMARK    2  A    between atoms: C_2  and  C_3
REMARK    3  A    between atoms: C_2  and  N_4
REMARK    4  A    between atoms: N_15  and  C_16
REMARK    5  A    between atoms: C_16  and  C_17
REMARK    6  A    between atoms: C_16  and  C_25
REMARK    7  A    between atoms: C_17  and  N_18
REMARK                            x       y       z     vdW  Elec       q    Type
REMARK                         _______ _______ _______ _____ _____    ______ ____
ROOT
ATOM      1  N   UNL     1      -4.552  13.621  20.742  0.00  0.00    +0.000 N 
ATOM      2  C   UNL     1      -3.864  12.686  19.978  0.00  0.00    +0.000 A 
ATOM      3  N   UNL     1      -4.495  12.328  18.853  0.00  0.00    +0.000 NA
ATOM      4  C   UNL     1      -3.868  11.442  18.067  0.00  0.00    +0.000 A 
ATOM      5  C   UNL     1      -2.628  10.922  18.346  0.00  0.00    +0.000 A 
ATOM      6  C   UNL     1      -2.050  11.329  19.538  0.00  0.00    +0.000 A 
ATOM      7  N   UNL     1      -2.662  12.222  20.349  0.00  0.00    +0.000 NA
ATOM      8  C   UNL     1      -0.664  10.827  19.938  0.00  0.00    +0.000 C 
ATOM      9  N   UNL     1      -0.067   9.865  18.984  0.00  0.00    +0.000 N 
ATOM     10  C   UNL     1       1.068   9.180  19.368  0.00  0.00    +0.000 C 
ATOM     11  O   UNL     1       1.634   9.372  20.441  0.00  0.00    +0.000 OA
ATOM     12  N   UNL     1       1.533   8.270  18.442  0.00  0.00    +0.000 N 
ATOM     13  C   UNL     1      -0.442  10.067  17.589  0.00  0.00    +0.000 C 
ATOM     14  C   UNL     1      -1.952   9.956  17.432  0.00  0.00    +0.000 C 
ATOM     15  H   UNL     1      -5.232  14.027  20.106  0.00  0.00    +0.000 HD
ATOM     16  H   UNL     1       0.844   7.853  17.842  0.00  0.00    +0.000 HD
ENDROOT
BRANCH   1  18
ATOM     17  C   UNL     1      -3.939  15.959  20.916  0.00  0.00    +0.000 C 
ATOM     18  C   UNL     1      -3.743  14.559  21.503  0.00  0.00    +0.000 C 
ATOM     19  C   UNL     1      -4.180  14.545  22.968  0.00  0.00    +0.000 C 
ENDBRANCH   1  18
BRANCH  12  20
ATOM     20  C   UNL     1       2.730   7.454  18.650  0.00  0.00    +0.000 C 
BRANCH  20  21
ATOM     21  C   UNL     1       2.376   6.044  19.134  0.00  0.00    +0.000 A 
ATOM     22  C   UNL     1       1.805   5.767  20.386  0.00  0.00    +0.000 A 
ATOM     23  C   UNL     1       1.419   4.464  20.735  0.00  0.00    +0.000 A 
ATOM     24  C   UNL     1       1.605   3.418  19.841  0.00  0.00    +0.000 A 
ATOM     25  F   UNL     1       1.209   2.186  20.190  0.00  0.00    +0.000 F 
ATOM     26  C   UNL     1       2.183   3.655  18.600  0.00  0.00    +0.000 A 
ATOM     27 CL   UNL     1       2.421   2.370  17.480  0.00  0.00    +0.000 Cl
ATOM     28  C   UNL     1       2.559   4.958  18.249  0.00  0.00    +0.000 A 
ENDBRANCH  20  21
BRANCH  20  29
ATOM     29  C   UNL     1       3.703   7.588  17.441  0.00  0.00    +0.000 C 
BRANCH  29  30
ATOM     30  N   UNL     1       5.134   7.370  17.723  0.00  0.00    +0.000 N 
ATOM     31  C   UNL     1       5.645   6.312  16.955  0.00  0.00    +0.000 A 
ATOM     32  N   UNL     1       5.062   6.003  15.784  0.00  0.00    +0.000 NA
ATOM     33  C   UNL     1       5.540   4.944  15.102  0.00  0.00    +0.000 A 
ATOM     34  C   UNL     1       6.596   4.186  15.528  0.00  0.00    +0.000 A 
ATOM     35  C   UNL     1       7.142   4.586  16.724  0.00  0.00    +0.000 A 
ATOM     36  N   UNL     1       6.680   5.625  17.460  0.00  0.00    +0.000 NA
ATOM     37  H   UNL     1       5.377   7.144  18.681  0.00  0.00    +0.000 HD
ENDBRANCH  29  30
ENDBRANCH  20  29
ENDBRANCH  12  20
TORSDOF 5
ENDMDL
MODEL 6
REMARK VINA RESULT:      -8.2      1.330      1.650
REMARK  Name = 
REMARK  7 active torsions:
REMARK  status: ('A' for Active; 'I' for Inactive)
REMARK    1  A    between atoms: C_1  and  C_2
REMARK    2  A    between atoms: C_2  and  C_3
REMARK    3  A    between atoms: C_2  and  N_4
REMARK    4  A    between atoms: N_15  and  C_16
REMARK    5  A    between atoms: C_16  and  C_17
REMARK    6  A    between atoms: C_16  and  C_25
REMARK    7  A    between atoms: C_17  and  N_18
REMARK                            x       y       z     vdW  Elec       q    Type
REMARK                         _______ _______ _______ _____ _____    ______ ____
ROOT
ATOM      1  N   UNL     1       5.255   3.969  16.501  0.00  0.00    +0.000 N 
ATOM      2  C   UNL     1       4.334   4.589  17.336  0.00  0.00    +0.000 A 
ATOM      3  N   UNL     1       3.808   3.783  18.266  0.00  0.00    +0.000 NA
ATOM      4  C   UNL     1       2.927   4.334  19.112  0.00  0.00    +0.000 A 
ATOM      5  C   UNL     1       2.573   5.661  19.084  0.00  0.00    +0.000 A 
ATOM      6  C   UNL     1       3.148   6.425  18.080  0.00  0.00    +0.000 A 
ATOM      7  N   UNL     1       4.040   5.892  17.213  0.00  0.00    +0.000 NA
ATOM      8  C   UNL     1       2.839   7.916  17.967  0.00  0.00    +0.000 C 
ATOM      9  N   UNL     1       1.865   8.412  18.965  0.00  0.00    +0.000 N 
ATOM     10  C   UNL     1       1.346   9.680  18.800  0.00  0.00    +0.000 C 
ATOM     11  O   UNL     1       1.696  10.434  17.896  0.00  0.00    +0.000 OA
ATOM     12  N   UNL     1       0.411  10.048  19.745  0.00  0.00    +0.000 N 
ATOM     13  C   UNL     1       1.895   7.725  20.252  0.00  0.00    +0.000 C 
ATOM     14  C   UNL     1       1.607   6.243  20.060  0.00  0.00    +0.000 C 
ATOM     15  H   UNL     1       5.524   3.122  16.995  0.00  0.00    +0.000 HD
ATOM     16  H   UNL     1      -0.132   9.305  20.148  0.00  0.00    +0.000 HD
ENDROOT
BRANCH   1  18
ATOM     17  C   UNL     1       7.574   4.562  16.881  0.00  0.00    +0.000 C 
ATOM     18  C   UNL     1       6.341   4.796  16.003  0.00  0.00    +0.000 C 
ATOM     19  C   UNL     1       6.656   4.417  14.557  0.00  0.00    +0.000 C 
ENDBRANCH   1  18
BRANCH  12  20
ATOM     20  C   UNL     1      -0.248  11.356  19.756  0.00  0.00    +0.000 C 
BRANCH  20  21
ATOM     21  C   UNL     1      -1.614  11.306  19.065  0.00  0.00    +0.000 A 
ATOM     22  C   UNL     1      -2.744  12.008  19.513  0.00  0.00    +0.000 A 
ATOM     23  C   UNL     1      -3.943  11.995  18.785  0.00  0.00    +0.000 A 
ATOM     24  C   UNL     1      -4.033  11.272  17.602  0.00  0.00    +0.000 A 
ATOM     25  F   UNL     1      -5.184  11.290  16.915  0.00  0.00    +0.000 F 
ATOM     26  C   UNL     1      -2.938  10.552  17.140  0.00  0.00    +0.000 A 
ATOM     27 CL   UNL     1      -3.033   9.650  15.677  0.00  0.00    +0.000 Cl
ATOM     28  C   UNL     1      -1.739  10.574  17.862  0.00  0.00    +0.000 A 
ENDBRANCH  20  21
BRANCH  20  29
ATOM     29  C   UNL     1      -0.169  11.997  21.173  0.00  0.00    +0.000 C 
BRANCH  29  30
ATOM     30  N   UNL     1       0.754  13.137  21.327  0.00  0.00    +0.000 N 
ATOM     31  C   UNL     1       0.072  14.359  21.224  0.00  0.00    +0.000 A 
ATOM     32  N   UNL     1      -1.235  14.414  21.533  0.00  0.00    +0.000 NA
ATOM     33  C   UNL     1      -1.873  15.588  21.364  0.00  0.00    +0.000 A 
ATOM     34  C   UNL     1      -1.257  16.725  20.920  0.00  0.00    +0.000 A 
ATOM     35  C   UNL     1       0.083  16.582  20.647  0.00  0.00    +0.000 A 
ATOM     36  N   UNL     1       0.762  15.417  20.773  0.00  0.00    +0.000 NA
ATOM     37  H   UNL     1       1.512  13.199  20.655  0.00  0.00    +0.000 HD
ENDBRANCH  29  30
ENDBRANCH  20  29
ENDBRANCH  12  20
TORSDOF 5
ENDMDL
MODEL 7
REMARK VINA RESULT:      -8.2      2.565      3.642
REMARK  Name = 
REMARK  7 active torsions:
REMARK  status: ('A' for Active; 'I' for Inactive)
REMARK    1  A    between atoms: C_1  and  C_2
REMARK    2  A    between atoms: C_2  and  C_3
REMARK    3  A    between atoms: C_2  and  N_4
REMARK    4  A    between atoms: N_15  and  C_16
REMARK    5  A    between atoms: C_16  and  C_17
REMARK    6  A    between atoms: C_16  and  C_25
REMARK    7  A    between atoms: C_17  and  N_18
REMARK                            x       y       z     vdW  Elec       q    Type
REMARK                         _______ _______ _______ _____ _____    ______ ____
ROOT
ATOM      1  N   UNL     1       5.266   3.268  19.400  0.00  0.00    +0.000 N 
ATOM      2  C   UNL     1       4.791   4.501  18.971  0.00  0.00    +0.000 A 
ATOM      3  N   UNL     1       5.406   4.976  17.880  0.00  0.00    +0.000 NA
ATOM      4  C   UNL     1       4.974   6.155  17.411  0.00  0.00    +0.000 A 
ATOM      5  C   UNL     1       3.938   6.863  17.970  0.00  0.00    +0.000 A 
ATOM      6  C   UNL     1       3.366   6.313  19.107  0.00  0.00    +0.000 A 
ATOM      7  N   UNL     1       3.784   5.125  19.601  0.00  0.00    +0.000 NA
ATOM      8  C   UNL     1       2.195   7.007  19.798  0.00  0.00    +0.000 C 
ATOM      9  N   UNL     1       1.800   8.292  19.181  0.00  0.00    +0.000 N 
ATOM     10  C   UNL     1       0.916   9.103  19.864  0.00  0.00    +0.000 C 
ATOM     11  O   UNL     1       0.402   8.782  20.932  0.00  0.00    +0.000 OA
ATOM     12  N   UNL     1       0.636  10.302  19.242  0.00  0.00    +0.000 N 
ATOM     13  C   UNL     1       2.001   8.371  17.737  0.00  0.00    +0.000 C 
ATOM     14  C   UNL     1       3.471   8.160  17.403  0.00  0.00    +0.000 C 
ATOM     15  H   UNL     1       5.766   2.890  18.599  0.00  0.00    +0.000 HD
ATOM     16  H   UNL     1       1.362  10.685  18.663  0.00  0.00    +0.000 HD
ENDROOT
BRANCH   1  18
ATOM     17  C   UNL     1       3.456   1.723  18.938  0.00  0.00    +0.000 C 
ATOM     18  C   UNL     1       4.300   2.384  20.031  0.00  0.00    +0.000 C 
ATOM     19  C   UNL     1       5.033   1.313  20.838  0.00  0.00    +0.000 C 
ENDBRANCH   1  18
BRANCH  12  20
ATOM     20  C   UNL     1      -0.287  11.296  19.795  0.00  0.00    +0.000 C 
BRANCH  20  21
ATOM     21  C   UNL     1      -1.625  11.301  19.047  0.00  0.00    +0.000 A 
ATOM     22  C   UNL     1      -2.789  11.920  19.531  0.00  0.00    +0.000 A 
ATOM     23  C   UNL     1      -3.958  11.969  18.759  0.00  0.00    +0.000 A 
ATOM     24  C   UNL     1      -3.985  11.393  17.494  0.00  0.00    +0.000 A 
ATOM     25  F   UNL     1      -5.109  11.471  16.768  0.00  0.00    +0.000 F 
ATOM     26  C   UNL     1      -2.855  10.758  16.993  0.00  0.00    +0.000 A 
ATOM     27 CL   UNL     1      -2.871  10.039  15.430  0.00  0.00    +0.000 Cl
ATOM     28  C   UNL     1      -1.685  10.719  17.761  0.00  0.00    +0.000 A 
ENDBRANCH  20  21
BRANCH  20  29
ATOM     29  C   UNL     1      -0.319  11.210  21.350  0.00  0.00    +0.000 C 
BRANCH  29  30
ATOM     30  N   UNL     1      -0.144  12.478  22.081  0.00  0.00    +0.000 N 
ATOM     31  C   UNL     1      -1.318  12.839  22.759  0.00  0.00    +0.000 A 
ATOM     32  N   UNL     1      -2.188  11.882  23.127  0.00  0.00    +0.000 NA
ATOM     33  C   UNL     1      -3.334  12.268  23.722  0.00  0.00    +0.000 A 
ATOM     34  C   UNL     1      -3.643  13.574  23.989  0.00  0.00    +0.000 A 
ATOM     35  C   UNL     1      -2.688  14.481  23.596  0.00  0.00    +0.000 A 
ATOM     36  N   UNL     1      -1.535  14.145  22.970  0.00  0.00    +0.000 NA
ATOM     37  H   UNL     1       0.102  13.291  21.525  0.00  0.00    +0.000 HD
ENDBRANCH  29  30
ENDBRANCH  20  29
ENDBRANCH  12  20
TORSDOF 5
ENDMDL
MODEL 8
REMARK VINA RESULT:      -8.1      1.904      2.391
REMARK  Name = 
REMARK  7 active torsions:
REMARK  status: ('A' for Active; 'I' for Inactive)
REMARK    1  A    between atoms: C_1  and  C_2
REMARK    2  A    between atoms: C_2  and  C_3
REMARK    3  A    between atoms: C_2  and  N_4
REMARK    4  A    between atoms: N_15  and  C_16
REMARK    5  A    between atoms: C_16  and  C_17
REMARK    6  A    between atoms: C_16  and  C_25
REMARK    7  A    between atoms: C_17  and  N_18
REMARK                            x       y       z     vdW  Elec       q    Type
REMARK                         _______ _______ _______ _____ _____    ______ ____
ROOT
ATOM      1  N   UNL     1       5.260   3.735  17.019  0.00  0.00    +0.000 N 
ATOM      2  C   UNL     1       4.348   4.420  17.812  0.00  0.00    +0.000 A 
ATOM      3  N   UNL     1       3.866   3.703  18.836  0.00  0.00    +0.000 NA
ATOM      4  C   UNL     1       2.996   4.321  19.646  0.00  0.00    +0.000 A 
ATOM      5  C   UNL     1       2.610   5.630  19.491  0.00  0.00    +0.000 A 
ATOM      6  C   UNL     1       3.139   6.297  18.398  0.00  0.00    +0.000 A 
ATOM      7  N   UNL     1       4.019   5.697  17.564  0.00  0.00    +0.000 NA
ATOM      8  C   UNL     1       2.792   7.762  18.141  0.00  0.00    +0.000 C 
ATOM      9  N   UNL     1       1.834   8.339  19.110  0.00  0.00    +0.000 N 
ATOM     10  C   UNL     1       1.281   9.572  18.830  0.00  0.00    +0.000 C 
ATOM     11  O   UNL     1       1.588  10.235  17.843  0.00  0.00    +0.000 OA
ATOM     12  N   UNL     1       0.363  10.016  19.759  0.00  0.00    +0.000 N 
ATOM     13  C   UNL     1       1.915   7.790  20.459  0.00  0.00    +0.000 C 
ATOM     14  C   UNL     1       1.657   6.290  20.429  0.00  0.00    +0.000 C 
ATOM     15  H   UNL     1       5.562   2.950  17.589  0.00  0.00    +0.000 HD
ATOM     16  H   UNL     1      -0.151   9.308  20.252  0.00  0.00    +0.000 HD
ENDROOT
BRANCH   1  18
ATOM     17  C   UNL     1       7.576   4.407  17.264  0.00  0.00    +0.000 C 
ATOM     18  C   UNL     1       6.313   4.528  16.407  0.00  0.00    +0.000 C 
ATOM     19  C   UNL     1       6.592   4.013  14.996  0.00  0.00    +0.000 C 
ENDBRANCH   1  18
BRANCH  12  20
ATOM     20  C   UNL     1      -0.326  11.304  19.654  0.00  0.00    +0.000 C 
BRANCH  20  21
ATOM     21  C   UNL     1      -1.231  11.561  20.864  0.00  0.00    +0.000 A 
ATOM     22  C   UNL     1      -0.936  11.130  22.167  0.00  0.00    +0.000 A 
ATOM     23  C   UNL     1      -1.760  11.475  23.249  0.00  0.00    +0.000 A 
ATOM     24  C   UNL     1      -2.895  12.248  23.043  0.00  0.00    +0.000 A 
ATOM     25  F   UNL     1      -3.655  12.581  24.096  0.00  0.00    +0.000 F 
ATOM     26  C   UNL     1      -3.225  12.677  21.763  0.00  0.00    +0.000 A 
ATOM     27 CL   UNL     1      -4.628  13.635  21.490  0.00  0.00    +0.000 Cl
ATOM     28  C   UNL     1      -2.396  12.340  20.685  0.00  0.00    +0.000 A 
ENDBRANCH  20  21
BRANCH  20  29
ATOM     29  C   UNL     1       0.670  12.426  19.237  0.00  0.00    +0.000 C 
BRANCH  29  30
ATOM     30  N   UNL     1       1.584  12.916  20.284  0.00  0.00    +0.000 N 
ATOM     31  C   UNL     1       2.332  14.014  19.831  0.00  0.00    +0.000 A 
ATOM     32  N   UNL     1       1.837  14.792  18.853  0.00  0.00    +0.000 NA
ATOM     33  C   UNL     1       2.607  15.800  18.400  0.00  0.00    +0.000 A 
ATOM     34  C   UNL     1       3.849  16.084  18.898  0.00  0.00    +0.000 A 
ATOM     35  C   UNL     1       4.266  15.251  19.908  0.00  0.00    +0.000 A 
ATOM     36  N   UNL     1       3.541  14.207  20.378  0.00  0.00    +0.000 NA
ATOM     37  H   UNL     1       2.270  12.254  20.633  0.00  0.00    +0.000 HD
ENDBRANCH  29  30
ENDBRANCH  20  29
ENDBRANCH  12  20
TORSDOF 5
ENDMDL
MODEL 9
REMARK VINA RESULT:      -8.1      3.334      5.673
REMARK  Name = 
REMARK  7 active torsions:
REMARK  status: ('A' for Active; 'I' for Inactive)
REMARK    1  A    between atoms: C_1  and  C_2
REMARK    2  A    between atoms: C_2  and  C_3
REMARK    3  A    between atoms: C_2  and  N_4
REMARK    4  A    between atoms: N_15  and  C_16
REMARK    5  A    between atoms: C_16  and  C_17
REMARK    6  A    between atoms: C_16  and  C_25
REMARK    7  A    between atoms: C_17  and  N_18
REMARK                            x       y       z     vdW  Elec       q    Type
REMARK                         _______ _______ _______ _____ _____    ______ ____
ROOT
ATOM      1  N   UNL     1       3.137   4.326  20.121  0.00  0.00    +0.000 N 
ATOM      2  C   UNL     1       2.875   5.594  19.615  0.00  0.00    +0.000 A 
ATOM      3  N   UNL     1       3.447   5.839  18.429  0.00  0.00    +0.000 NA
ATOM      4  C   UNL     1       3.212   7.041  17.885  0.00  0.00    +0.000 A 
ATOM      5  C   UNL     1       2.410   7.994  18.463  0.00  0.00    +0.000 A 
ATOM      6  C   UNL     1       1.870   7.670  19.698  0.00  0.00    +0.000 A 
ATOM      7  N   UNL     1       2.092   6.464  20.269  0.00  0.00    +0.000 NA
ATOM      8  C   UNL     1       0.948   8.649  20.421  0.00  0.00    +0.000 C 
ATOM      9  N   UNL     1       0.753   9.935  19.716  0.00  0.00    +0.000 N 
ATOM     10  C   UNL     1       0.133  10.967  20.392  0.00  0.00    +0.000 C 
ATOM     11  O   UNL     1      -0.311  10.848  21.531  0.00  0.00    +0.000 OA
ATOM     12  N   UNL     1       0.033  12.144  19.681  0.00  0.00    +0.000 N 
ATOM     13  C   UNL     1       0.803   9.854  18.259  0.00  0.00    +0.000 C 
ATOM     14  C   UNL     1       2.153   9.311  17.813  0.00  0.00    +0.000 C 
ATOM     15  H   UNL     1       3.458   3.789  19.320  0.00  0.00    +0.000 HD
ATOM     16  H   UNL     1       0.752  12.317  19.000  0.00  0.00    +0.000 HD
ENDROOT
BRANCH   1  18
ATOM     17  C   UNL     1       0.986   3.218  19.992  0.00  0.00    +0.000 C 
ATOM     18  C   UNL     1       2.090   3.720  20.926  0.00  0.00    +0.000 C 
ATOM     19  C   UNL     1       2.666   2.550  21.723  0.00  0.00    +0.000 C 
ENDBRANCH   1  18
BRANCH  12  20
ATOM     20  C   UNL     1      -0.603  13.351  20.213  0.00  0.00    +0.000 C 
BRANCH  20  21
ATOM     21  C   UNL     1      -0.070  14.617  19.532  0.00  0.00    +0.000 A 
ATOM     22  C   UNL     1      -0.874  15.710  19.175  0.00  0.00    +0.000 A 
ATOM     23  C   UNL     1      -0.313  16.878  18.638  0.00  0.00    +0.000 A 
ATOM     24  C   UNL     1       1.060  16.967  18.442  0.00  0.00    +0.000 A 
ATOM     25  F   UNL     1       1.573  18.101  17.945  0.00  0.00    +0.000 F 
ATOM     26  C   UNL     1       1.882  15.896  18.769  0.00  0.00    +0.000 A 
ATOM     27 CL   UNL     1       3.584  15.989  18.531  0.00  0.00    +0.000 Cl
ATOM     28  C   UNL     1       1.321  14.734  19.314  0.00  0.00    +0.000 A 
ENDBRANCH  20  21
BRANCH  20  29
ATOM     29  C   UNL     1      -2.146  13.165  20.302  0.00  0.00    +0.000 C 
BRANCH  29  30
ATOM     30  N   UNL     1      -2.827  12.729  19.069  0.00  0.00    +0.000 N 
ATOM     31  C   UNL     1      -4.124  12.266  19.342  0.00  0.00    +0.000 A 
ATOM     32  N   UNL     1      -4.771  12.720  20.429  0.00  0.00    +0.000 NA
ATOM     33  C   UNL     1      -5.989  12.209  20.695  0.00  0.00    +0.000 A 
ATOM     34  C   UNL     1      -6.604  11.274  19.908  0.00  0.00    +0.000 A 
ATOM     35  C   UNL     1      -5.878  10.883  18.809  0.00  0.00    +0.000 A 
ATOM     36  N   UNL     1      -4.639  11.346  18.514  0.00  0.00    +0.000 NA
ATOM     37  H   UNL     1      -2.383  11.982  18.546  0.00  0.00    +0.000 HD
ENDBRANCH  29  30
ENDBRANCH  20  29
ENDBRANCH  12  20
TORSDOF 5
ENDMDL
