MODEL 1
REMARK VINA RESULT:      -7.7      0.000      0.000
REMARK  Name = 
REMARK  6 active torsions:
REMARK  status: ('A' for Active; 'I' for Inactive)
REMARK    1  A    between atoms: C_1  and  C_2
REMARK    2  A    between atoms: C_2  and  C_3
REMARK    3  A    between atoms: C_3  and  C_4
REMARK    4  A    between atoms: C_3  and  N_18
REMARK    5  A    between atoms: C_12  and  O_13
REMARK    6  A    between atoms: C_14  and  O_15
REMARK                            x       y       z     vdW  Elec       q    Type
REMARK                         _______ _______ _______ _____ _____    ______ ____
ROOT
ATOM      1  C   UNL     1       4.942   5.232  18.039  0.00  0.00    +0.000 A 
ATOM      2  C   UNL     1       4.249   6.387  17.612  0.00  0.00    +0.000 A 
ATOM      3 CL   UNL     1       4.903   7.403  16.364  0.00  0.00    +0.000 Cl
ATOM      4  C   UNL     1       3.016   6.723  18.192  0.00  0.00    +0.000 A 
ATOM      5 CL   UNL     1       2.112   8.122  17.724  0.00  0.00    +0.000 Cl
ATOM      6  C   UNL     1       2.473   5.926  19.197  0.00  0.00    +0.000 A 
ATOM      7  C   UNL     1       3.120   4.787  19.629  0.00  0.00    +0.000 A 
ATOM      8  N   UNL     1       2.550   4.060  20.613  0.00  0.00    +0.000 NA
ATOM      9  C   UNL     1       3.233   2.968  20.986  0.00  0.00    +0.000 A 
ATOM     10  C   UNL     1       4.425   2.586  20.408  0.00  0.00    +0.000 A 
ATOM     11  N   UNL     1       4.994   3.302  19.428  0.00  0.00    +0.000 NA
ATOM     12  C   UNL     1       4.364   4.422  19.032  0.00  0.00    +0.000 A 
ENDROOT
BRANCH   9  13
ATOM     13  O   UNL     1       2.674   2.251  21.995  0.00  0.00    +0.000 OA
ATOM     14  H   UNL     1       2.294   2.968  22.537  0.00  0.00    +0.000 HD
ENDBRANCH   9  13
BRANCH  10  15
ATOM     15  O   UNL     1       5.097   1.465  20.793  0.00  0.00    +0.000 OA
ATOM     16  H   UNL     1       4.725   0.747  20.250  0.00  0.00    +0.000 HD
ENDBRANCH  10  15
BRANCH   1  17
ATOM     17  C   UNL     1       6.332   4.869  17.491  0.00  0.00    +0.000 C 
BRANCH  17  18
ATOM     18  N   UNL     1       6.238   4.602  16.053  0.00  0.00    +0.000 N 
ATOM     19  C   UNL     1       5.239   3.992  15.357  0.00  0.00    +0.000 A 
ATOM     20  N   UNL     1       5.552   3.954  14.082  0.00  0.00    +0.000 NA
ATOM     21  N   UNL     1       6.785   4.546  13.934  0.00  0.00    +0.000 NA
ATOM     22  C   UNL     1       7.182   4.933  15.124  0.00  0.00    +0.000 A 
ENDBRANCH  17  18
BRANCH  17  24
ATOM     23  C   UNL     1       7.827   5.774  19.363  0.00  0.00    +0.000 C 
ATOM     24  C   UNL     1       7.473   5.840  17.882  0.00  0.00    +0.000 C 
ENDBRANCH  17  24
ENDBRANCH   1  17
TORSDOF 5
ENDMDL
MODEL 2
REMARK VINA RESULT:      -7.4      1.487      1.490
REMARK  Name = 
REMARK  6 active torsions:
REMARK  status: ('A' for Active; 'I' for Inactive)
REMARK    1  A    between atoms: C_1  and  C_2
REMARK    2  A    between atoms: C_2  and  C_3
REMARK    3  A    between atoms: C_3  and  C_4
REMARK    4  A    between atoms: C_3  and  N_18
REMARK    5  A    between atoms: C_12  and  O_13
REMARK    6  A    between atoms: C_14  and  O_15
REMARK                            x       y       z     vdW  Elec       q    Type
REMARK                         _______ _______ _______ _____ _____    ______ ____
ROOT
ATOM      1  C   UNL     1       4.941   5.093  17.516  0.00  0.00    +0.000 A 
ATOM      2  C   UNL     1       4.529   6.445  17.479  0.00  0.00    +0.000 A 
ATOM      3 CL   UNL     1       5.630   7.693  16.981  0.00  0.00    +0.000 Cl
ATOM      4  C   UNL     1       3.219   6.792  17.843  0.00  0.00    +0.000 A 
ATOM      5 CL   UNL     1       2.645   8.424  17.827  0.00  0.00    +0.000 Cl
ATOM      6  C   UNL     1       2.321   5.809  18.250  0.00  0.00    +0.000 A 
ATOM      7  C   UNL     1       2.688   4.479  18.287  0.00  0.00    +0.000 A 
ATOM      8  N   UNL     1       1.777   3.573  18.699  0.00  0.00    +0.000 NA
ATOM      9  C   UNL     1       2.202   2.301  18.714  0.00  0.00    +0.000 A 
ATOM     10  C   UNL     1       3.468   1.922  18.323  0.00  0.00    +0.000 A 
ATOM     11  N   UNL     1       4.376   2.816  17.909  0.00  0.00    +0.000 NA
ATOM     12  C   UNL     1       4.011   4.111  17.899  0.00  0.00    +0.000 A 
ENDROOT
BRANCH   9  13
ATOM     13  O   UNL     1       1.294   1.392  19.154  0.00  0.00    +0.000 OA
ATOM     14  H   UNL     1       0.625   1.983  19.550  0.00  0.00    +0.000 HD
ENDBRANCH   9  13
BRANCH  10  15
ATOM     15  O   UNL     1       3.876   0.621  18.332  0.00  0.00    +0.000 OA
ATOM     16  H   UNL     1       4.797   0.647  18.646  0.00  0.00    +0.000 HD
ENDBRANCH  10  15
BRANCH   1  17
ATOM     17  C   UNL     1       6.387   4.675  17.205  0.00  0.00    +0.000 C 
BRANCH  17  18
ATOM     18  N   UNL     1       6.577   4.605  15.754  0.00  0.00    +0.000 N 
ATOM     19  C   UNL     1       5.985   3.774  14.851  0.00  0.00    +0.000 A 
ATOM     20  N   UNL     1       6.437   4.042  13.647  0.00  0.00    +0.000 NA
ATOM     21  N   UNL     1       7.350   5.065  13.758  0.00  0.00    +0.000 NA
ATOM     22  C   UNL     1       7.421   5.395  15.027  0.00  0.00    +0.000 A 
ENDBRANCH  17  18
BRANCH  17  24
ATOM     23  C   UNL     1       7.275   5.510  19.458  0.00  0.00    +0.000 C 
ATOM     24  C   UNL     1       7.484   5.477  17.949  0.00  0.00    +0.000 C 
ENDBRANCH  17  24
ENDBRANCH   1  17
TORSDOF 5
ENDMDL
MODEL 3
REMARK VINA RESULT:      -6.9      3.837      4.950
REMARK  Name = 
REMARK  6 active torsions:
REMARK  status: ('A' for Active; 'I' for Inactive)
REMARK    1  A    between atoms: C_1  and  C_2
REMARK    2  A    between atoms: C_2  and  C_3
REMARK    3  A    between atoms: C_3  and  C_4
REMARK    4  A    between atoms: C_3  and  N_18
REMARK    5  A    between atoms: C_12  and  O_13
REMARK    6  A    between atoms: C_14  and  O_15
REMARK                            x       y       z     vdW  Elec       q    Type
REMARK                         _______ _______ _______ _____ _____    ______ ____
ROOT
ATOM      1  C   UNL     1       3.560   5.765  18.630  0.00  0.00    +0.000 A 
ATOM      2  C   UNL     1       3.418   4.692  19.538  0.00  0.00    +0.000 A 
ATOM      3 CL   UNL     1       4.353   3.240  19.348  0.00  0.00    +0.000 Cl
ATOM      4  C   UNL     1       2.520   4.791  20.612  0.00  0.00    +0.000 A 
ATOM      5 CL   UNL     1       2.290   3.519  21.761  0.00  0.00    +0.000 Cl
ATOM      6  C   UNL     1       1.757   5.944  20.783  0.00  0.00    +0.000 A 
ATOM      7  C   UNL     1       1.879   7.014  19.920  0.00  0.00    +0.000 A 
ATOM      8  N   UNL     1       1.106   8.099  20.130  0.00  0.00    +0.000 NA
ATOM      9  C   UNL     1       1.274   9.099  19.253  0.00  0.00    +0.000 A 
ATOM     10  C   UNL     1       2.177   9.050  18.213  0.00  0.00    +0.000 A 
ATOM     11  N   UNL     1       2.950   7.977  18.001  0.00  0.00    +0.000 NA
ATOM     12  C   UNL     1       2.805   6.933  18.837  0.00  0.00    +0.000 A 
ENDROOT
BRANCH   9  13
ATOM     13  O   UNL     1       0.477  10.182  19.448  0.00  0.00    +0.000 OA
ATOM     14  H   UNL     1      -0.313   9.757  19.833  0.00  0.00    +0.000 HD
ENDBRANCH   9  13
BRANCH  10  15
ATOM     15  O   UNL     1       2.342  10.084  17.340  0.00  0.00    +0.000 OA
ATOM     16  H   UNL     1       1.926   9.784  16.511  0.00  0.00    +0.000 HD
ENDBRANCH  10  15
BRANCH   1  17
ATOM     17  C   UNL     1       4.470   5.670  17.395  0.00  0.00    +0.000 C 
BRANCH  17  18
ATOM     18  N   UNL     1       5.822   6.112  17.746  0.00  0.00    +0.000 N 
ATOM     19  C   UNL     1       6.703   5.559  18.625  0.00  0.00    +0.000 A 
ATOM     20  N   UNL     1       7.809   6.269  18.642  0.00  0.00    +0.000 NA
ATOM     21  N   UNL     1       7.652   7.313  17.761  0.00  0.00    +0.000 NA
ATOM     22  C   UNL     1       6.457   7.204  17.228  0.00  0.00    +0.000 A 
ENDBRANCH  17  18
BRANCH  17  24
ATOM     23  C   UNL     1       5.350   4.283  15.429  0.00  0.00    +0.000 C 
ATOM     24  C   UNL     1       4.422   4.320  16.637  0.00  0.00    +0.000 C 
ENDBRANCH  17  24
ENDBRANCH   1  17
TORSDOF 5
ENDMDL
MODEL 4
REMARK VINA RESULT:      -6.8      1.730      2.693
REMARK  Name = 
REMARK  6 active torsions:
REMARK  status: ('A' for Active; 'I' for Inactive)
REMARK    1  A    between atoms: C_1  and  C_2
REMARK    2  A    between atoms: C_2  and  C_3
REMARK    3  A    between atoms: C_3  and  C_4
REMARK    4  A    between atoms: C_3  and  N_18
REMARK    5  A    between atoms: C_12  and  O_13
REMARK    6  A    between atoms: C_14  and  O_15
REMARK                            x       y       z     vdW  Elec       q    Type
REMARK                         _______ _______ _______ _____ _____    ______ ____
ROOT
ATOM      1  C   UNL     1       3.603   5.938  18.393  0.00  0.00    +0.000 A 
ATOM      2  C   UNL     1       2.896   7.144  18.595  0.00  0.00    +0.000 A 
ATOM      3 CL   UNL     1       3.077   8.473  17.490  0.00  0.00    +0.000 Cl
ATOM      4  C   UNL     1       2.032   7.280  19.693  0.00  0.00    +0.000 A 
ATOM      5 CL   UNL     1       1.137   8.727  20.006  0.00  0.00    +0.000 Cl
ATOM      6  C   UNL     1       1.874   6.230  20.594  0.00  0.00    +0.000 A 
ATOM      7  C   UNL     1       2.542   5.036  20.421  0.00  0.00    +0.000 A 
ATOM      8  N   UNL     1       2.356   4.058  21.332  0.00  0.00    +0.000 NA
ATOM      9  C   UNL     1       3.038   2.926  21.104  0.00  0.00    +0.000 A 
ATOM     10  C   UNL     1       3.861   2.745  20.013  0.00  0.00    +0.000 A 
ATOM     11  N   UNL     1       4.047   3.710  19.102  0.00  0.00    +0.000 NA
ATOM     12  C   UNL     1       3.406   4.878  19.296  0.00  0.00    +0.000 A 
ENDROOT
BRANCH   9  13
ATOM     13  O   UNL     1       2.873   1.952  22.036  0.00  0.00    +0.000 OA
ATOM     14  H   UNL     1       3.769   1.917  22.420  0.00  0.00    +0.000 HD
ENDBRANCH   9  13
BRANCH  10  15
ATOM     15  O   UNL     1       4.535   1.581  19.792  0.00  0.00    +0.000 OA
ATOM     16  H   UNL     1       4.920   1.676  18.902  0.00  0.00    +0.000 HD
ENDBRANCH  10  15
BRANCH   1  17
ATOM     17  C   UNL     1       4.620   5.772  17.253  0.00  0.00    +0.000 C 
BRANCH  17  18
ATOM     18  N   UNL     1       5.944   6.204  17.708  0.00  0.00    +0.000 N 
ATOM     19  C   UNL     1       6.769   5.621  18.622  0.00  0.00    +0.000 A 
ATOM     20  N   UNL     1       7.867   6.332  18.739  0.00  0.00    +0.000 NA
ATOM     21  N   UNL     1       7.762   7.409  17.889  0.00  0.00    +0.000 NA
ATOM     22  C   UNL     1       6.606   7.317  17.275  0.00  0.00    +0.000 A 
ENDBRANCH  17  18
BRANCH  17  24
ATOM     23  C   UNL     1       5.427   4.372  15.265  0.00  0.00    +0.000 C 
ATOM     24  C   UNL     1       4.611   4.390  16.552  0.00  0.00    +0.000 C 
ENDBRANCH  17  24
ENDBRANCH   1  17
TORSDOF 5
ENDMDL
MODEL 5
REMARK VINA RESULT:      -6.6      3.730      4.857
REMARK  Name = 
REMARK  6 active torsions:
REMARK  status: ('A' for Active; 'I' for Inactive)
REMARK    1  A    between atoms: C_1  and  C_2
REMARK    2  A    between atoms: C_2  and  C_3
REMARK    3  A    between atoms: C_3  and  C_4
REMARK    4  A    between atoms: C_3  and  N_18
REMARK    5  A    between atoms: C_12  and  O_13
REMARK    6  A    between atoms: C_14  and  O_15
REMARK                            x       y       z     vdW  Elec       q    Type
REMARK                         _______ _______ _______ _____ _____    ______ ____
ROOT
ATOM      1  C   UNL     1       3.627   5.170  18.835  0.00  0.00    +0.000 A 
ATOM      2  C   UNL     1       3.449   4.123  19.767  0.00  0.00    +0.000 A 
ATOM      3 CL   UNL     1       4.329   2.633  19.604  0.00  0.00    +0.000 Cl
ATOM      4  C   UNL     1       2.560   4.278  20.841  0.00  0.00    +0.000 A 
ATOM      5 CL   UNL     1       2.288   3.040  22.018  0.00  0.00    +0.000 Cl
ATOM      6  C   UNL     1       1.841   5.462  20.990  0.00  0.00    +0.000 A 
ATOM      7  C   UNL     1       1.998   6.508  20.104  0.00  0.00    +0.000 A 
ATOM      8  N   UNL     1       1.268   7.625  20.294  0.00  0.00    +0.000 NA
ATOM      9  C   UNL     1       1.468   8.600  19.395  0.00  0.00    +0.000 A 
ATOM     10  C   UNL     1       2.364   8.495  18.353  0.00  0.00    +0.000 A 
ATOM     11  N   UNL     1       3.096   7.389  18.161  0.00  0.00    +0.000 NA
ATOM     12  C   UNL     1       2.916   6.370  19.020  0.00  0.00    +0.000 A 
ENDROOT
BRANCH   9  13
ATOM     13  O   UNL     1       0.712   9.715  19.570  0.00  0.00    +0.000 OA
ATOM     14  H   UNL     1       1.045  10.273  18.841  0.00  0.00    +0.000 HD
ENDBRANCH   9  13
BRANCH  10  15
ATOM     15  O   UNL     1       2.563   9.503  17.457  0.00  0.00    +0.000 OA
ATOM     16  H   UNL     1       2.171   9.183  16.624  0.00  0.00    +0.000 HD
ENDBRANCH  10  15
BRANCH   1  17
ATOM     17  C   UNL     1       4.527   5.015  17.599  0.00  0.00    +0.000 C 
BRANCH  17  18
ATOM     18  N   UNL     1       5.931   4.975  18.015  0.00  0.00    +0.000 N 
ATOM     19  C   UNL     1       6.510   5.501  19.130  0.00  0.00    +0.000 A 
ATOM     20  N   UNL     1       7.797   5.239  19.122  0.00  0.00    +0.000 NA
ATOM     21  N   UNL     1       8.074   4.531  17.975  0.00  0.00    +0.000 NA
ATOM     22  C   UNL     1       6.945   4.377  17.324  0.00  0.00    +0.000 A 
ENDBRANCH  17  18
BRANCH  17  24
ATOM     23  C   UNL     1       2.657   3.486  16.746  0.00  0.00    +0.000 C 
ATOM     24  C   UNL     1       4.123   3.883  16.622  0.00  0.00    +0.000 C 
ENDBRANCH  17  24
ENDBRANCH   1  17
TORSDOF 5
ENDMDL
MODEL 6
REMARK VINA RESULT:      -6.6      1.607      2.561
REMARK  Name = 
REMARK  6 active torsions:
REMARK  status: ('A' for Active; 'I' for Inactive)
REMARK    1  A    between atoms: C_1  and  C_2
REMARK    2  A    between atoms: C_2  and  C_3
REMARK    3  A    between atoms: C_3  and  C_4
REMARK    4  A    between atoms: C_3  and  N_18
REMARK    5  A    between atoms: C_12  and  O_13
REMARK    6  A    between atoms: C_14  and  O_15
REMARK                            x       y       z     vdW  Elec       q    Type
REMARK                         _______ _______ _______ _____ _____    ______ ____
ROOT
ATOM      1  C   UNL     1       4.051   5.658  18.213  0.00  0.00    +0.000 A 
ATOM      2  C   UNL     1       3.327   6.871  18.261  0.00  0.00    +0.000 A 
ATOM      3 CL   UNL     1       3.619   8.123  17.092  0.00  0.00    +0.000 Cl
ATOM      4  C   UNL     1       2.358   7.075  19.255  0.00  0.00    +0.000 A 
ATOM      5 CL   UNL     1       1.436   8.533  19.379  0.00  0.00    +0.000 Cl
ATOM      6  C   UNL     1       2.110   6.087  20.205  0.00  0.00    +0.000 A 
ATOM      7  C   UNL     1       2.792   4.887  20.181  0.00  0.00    +0.000 A 
ATOM      8  N   UNL     1       2.515   3.972  21.133  0.00  0.00    +0.000 NA
ATOM      9  C   UNL     1       3.216   2.832  21.051  0.00  0.00    +0.000 A 
ATOM     10  C   UNL     1       4.144   2.583  20.063  0.00  0.00    +0.000 A 
ATOM     11  N   UNL     1       4.420   3.486  19.112  0.00  0.00    +0.000 NA
ATOM     12  C   UNL     1       3.764   4.659  19.161  0.00  0.00    +0.000 A 
ENDROOT
BRANCH   9  13
ATOM     13  O   UNL     1       2.957   1.922  22.025  0.00  0.00    +0.000 OA
ATOM     14  H   UNL     1       3.104   2.465  22.823  0.00  0.00    +0.000 HD
ENDBRANCH   9  13
BRANCH  10  15
ATOM     15  O   UNL     1       4.836   1.411  19.989  0.00  0.00    +0.000 OA
ATOM     16  H   UNL     1       4.575   0.913  20.784  0.00  0.00    +0.000 HD
ENDBRANCH  10  15
BRANCH   1  17
ATOM     17  C   UNL     1       5.177   5.422  17.194  0.00  0.00    +0.000 C 
BRANCH  17  18
ATOM     18  N   UNL     1       6.448   5.243  17.899  0.00  0.00    +0.000 N 
ATOM     19  C   UNL     1       6.872   5.815  19.060  0.00  0.00    +0.000 A 
ATOM     20  N   UNL     1       8.080   5.384  19.346  0.00  0.00    +0.000 NA
ATOM     21  N   UNL     1       8.463   4.515  18.350  0.00  0.00    +0.000 NA
ATOM     22  C   UNL     1       7.473   4.438  17.492  0.00  0.00    +0.000 A 
ENDBRANCH  17  18
BRANCH  17  24
ATOM     23  C   UNL     1       5.399   4.718  14.741  0.00  0.00    +0.000 C 
ATOM     24  C   UNL     1       4.887   4.338  16.125  0.00  0.00    +0.000 C 
ENDBRANCH  17  24
ENDBRANCH   1  17
TORSDOF 5
ENDMDL
MODEL 7
REMARK VINA RESULT:      -6.6      3.677      4.800
REMARK  Name = 
REMARK  6 active torsions:
REMARK  status: ('A' for Active; 'I' for Inactive)
REMARK    1  A    between atoms: C_1  and  C_2
REMARK    2  A    between atoms: C_2  and  C_3
REMARK    3  A    between atoms: C_3  and  C_4
REMARK    4  A    between atoms: C_3  and  N_18
REMARK    5  A    between atoms: C_12  and  O_13
REMARK    6  A    between atoms: C_14  and  O_15
REMARK                            x       y       z     vdW  Elec       q    Type
REMARK                         _______ _______ _______ _____ _____    ______ ____
ROOT
ATOM      1  C   UNL     1       3.786   5.190  18.745  0.00  0.00    +0.000 A 
ATOM      2  C   UNL     1       3.581   4.099  19.619  0.00  0.00    +0.000 A 
ATOM      3 CL   UNL     1       4.508   2.639  19.446  0.00  0.00    +0.000 Cl
ATOM      4  C   UNL     1       2.626   4.185  20.643  0.00  0.00    +0.000 A 
ATOM      5 CL   UNL     1       2.318   2.890  21.748  0.00  0.00    +0.000 Cl
ATOM      6  C   UNL     1       1.868   5.343  20.799  0.00  0.00    +0.000 A 
ATOM      7  C   UNL     1       2.050   6.430  19.969  0.00  0.00    +0.000 A 
ATOM      8  N   UNL     1       1.279   7.521  20.162  0.00  0.00    +0.000 NA
ATOM      9  C   UNL     1       1.506   8.538  19.319  0.00  0.00    +0.000 A 
ATOM     10  C   UNL     1       2.466   8.502  18.330  0.00  0.00    +0.000 A 
ATOM     11  N   UNL     1       3.237   7.423  18.135  0.00  0.00    +0.000 NA
ATOM     12  C   UNL     1       3.033   6.363  18.937  0.00  0.00    +0.000 A 
ENDROOT
BRANCH   9  13
ATOM     13  O   UNL     1       0.712   9.626  19.495  0.00  0.00    +0.000 OA
ATOM     14  H   UNL     1       0.459   9.514  20.431  0.00  0.00    +0.000 HD
ENDBRANCH   9  13
BRANCH  10  15
ATOM     15  O   UNL     1       2.690   9.552  17.491  0.00  0.00    +0.000 OA
ATOM     16  H   UNL     1       1.913  10.131  17.596  0.00  0.00    +0.000 HD
ENDBRANCH  10  15
BRANCH   1  17
ATOM     17  C   UNL     1       4.762   5.112  17.560  0.00  0.00    +0.000 C 
BRANCH  17  18
ATOM     18  N   UNL     1       6.137   5.041  18.061  0.00  0.00    +0.000 N 
ATOM     19  C   UNL     1       7.225   4.446  17.497  0.00  0.00    +0.000 A 
ATOM     20  N   UNL     1       8.270   4.616  18.275  0.00  0.00    +0.000 NA
ATOM     21  N   UNL     1       7.862   5.332  19.376  0.00  0.00    +0.000 NA
ATOM     22  C   UNL     1       6.582   5.583  19.233  0.00  0.00    +0.000 A 
ENDBRANCH  17  18
BRANCH  17  24
ATOM     23  C   UNL     1       5.075   4.327  15.142  0.00  0.00    +0.000 C 
ATOM     24  C   UNL     1       4.422   4.045  16.490  0.00  0.00    +0.000 C 
ENDBRANCH  17  24
ENDBRANCH   1  17
TORSDOF 5
ENDMDL
MODEL 8
REMARK VINA RESULT:      -6.4      2.073      3.032
REMARK  Name = 
REMARK  6 active torsions:
REMARK  status: ('A' for Active; 'I' for Inactive)
REMARK    1  A    between atoms: C_1  and  C_2
REMARK    2  A    between atoms: C_2  and  C_3
REMARK    3  A    between atoms: C_3  and  C_4
REMARK    4  A    between atoms: C_3  and  N_18
REMARK    5  A    between atoms: C_12  and  O_13
REMARK    6  A    between atoms: C_14  and  O_15
REMARK                            x       y       z     vdW  Elec       q    Type
REMARK                         _______ _______ _______ _____ _____    ______ ____
ROOT
ATOM      1  C   UNL     1       4.344   5.289  17.349  0.00  0.00    +0.000 A 
ATOM      2  C   UNL     1       3.794   6.590  17.408  0.00  0.00    +0.000 A 
ATOM      3 CL   UNL     1       4.694   7.959  16.828  0.00  0.00    +0.000 Cl
ATOM      4  C   UNL     1       2.509   6.789  17.933  0.00  0.00    +0.000 A 
ATOM      5 CL   UNL     1       1.772   8.351  18.041  0.00  0.00    +0.000 Cl
ATOM      6  C   UNL     1       1.770   5.707  18.408  0.00  0.00    +0.000 A 
ATOM      7  C   UNL     1       2.273   4.424  18.356  0.00  0.00    +0.000 A 
ATOM      8  N   UNL     1       1.516   3.418  18.840  0.00  0.00    +0.000 NA
ATOM      9  C   UNL     1       2.067   2.198  18.761  0.00  0.00    +0.000 A 
ATOM     10  C   UNL     1       3.309   1.962  18.212  0.00  0.00    +0.000 A 
ATOM     11  N   UNL     1       4.065   2.957  17.727  0.00  0.00    +0.000 NA
ATOM     12  C   UNL     1       3.571   4.206  17.804  0.00  0.00    +0.000 A 
ENDROOT
BRANCH   9  13
ATOM     13  O   UNL     1       1.316   1.188  19.273  0.00  0.00    +0.000 OA
ATOM     14  H   UNL     1       1.735   1.078  20.147  0.00  0.00    +0.000 HD
ENDBRANCH   9  13
BRANCH  10  15
ATOM     15  O   UNL     1       3.846   0.713  18.129  0.00  0.00    +0.000 OA
ATOM     16  H   UNL     1       4.334   0.702  17.286  0.00  0.00    +0.000 HD
ENDBRANCH  10  15
BRANCH   1  17
ATOM     17  C   UNL     1       5.777   5.033  16.858  0.00  0.00    +0.000 C 
BRANCH  17  18
ATOM     18  N   UNL     1       6.701   5.074  17.994  0.00  0.00    +0.000 N 
ATOM     19  C   UNL     1       8.018   4.728  18.042  0.00  0.00    +0.000 A 
ATOM     20  N   UNL     1       8.477   4.916  19.258  0.00  0.00    +0.000 NA
ATOM     21  N   UNL     1       7.441   5.390  20.030  0.00  0.00    +0.000 NA
ATOM     22  C   UNL     1       6.384   5.483  19.258  0.00  0.00    +0.000 A 
ENDBRANCH  17  18
BRANCH  17  24
ATOM     23  C   UNL     1       6.113   4.163  14.472  0.00  0.00    +0.000 C 
ATOM     24  C   UNL     1       5.953   3.796  15.943  0.00  0.00    +0.000 C 
ENDBRANCH  17  24
ENDBRANCH   1  17
TORSDOF 5
ENDMDL
MODEL 9
REMARK VINA RESULT:      -6.4      2.860      5.483
REMARK  Name = 
REMARK  6 active torsions:
REMARK  status: ('A' for Active; 'I' for Inactive)
REMARK    1  A    between atoms: C_1  and  C_2
REMARK    2  A    between atoms: C_2  and  C_3
REMARK    3  A    between atoms: C_3  and  C_4
REMARK    4  A    between atoms: C_3  and  N_18
REMARK    5  A    between atoms: C_12  and  O_13
REMARK    6  A    between atoms: C_14  and  O_15
REMARK                            x       y       z     vdW  Elec       q    Type
REMARK                         _______ _______ _______ _____ _____    ______ ____
ROOT
ATOM      1  C   UNL     1       3.095   4.704  18.154  0.00  0.00    +0.000 A 
ATOM      2  C   UNL     1       2.489   5.825  18.764  0.00  0.00    +0.000 A 
ATOM      3 CL   UNL     1       1.234   5.619  19.947  0.00  0.00    +0.000 Cl
ATOM      4  C   UNL     1       2.900   7.122  18.421  0.00  0.00    +0.000 A 
ATOM      5 CL   UNL     1       2.202   8.542  19.122  0.00  0.00    +0.000 Cl
ATOM      6  C   UNL     1       3.901   7.312  17.472  0.00  0.00    +0.000 A 
ATOM      7  C   UNL     1       4.521   6.239  16.865  0.00  0.00    +0.000 A 
ATOM      8  N   UNL     1       5.477   6.486  15.946  0.00  0.00    +0.000 NA
ATOM      9  C   UNL     1       6.035   5.398  15.395  0.00  0.00    +0.000 A 
ATOM     10  C   UNL     1       5.684   4.110  15.740  0.00  0.00    +0.000 A 
ATOM     11  N   UNL     1       4.738   3.859  16.654  0.00  0.00    +0.000 NA
ATOM     12  C   UNL     1       4.127   4.915  17.221  0.00  0.00    +0.000 A 
ENDROOT
BRANCH   9  13
ATOM     13  O   UNL     1       6.979   5.646  14.450  0.00  0.00    +0.000 OA
ATOM     14  H   UNL     1       6.705   6.534  14.151  0.00  0.00    +0.000 HD
ENDBRANCH   9  13
BRANCH  10  15
ATOM     15  O   UNL     1       6.273   3.018  15.177  0.00  0.00    +0.000 OA
ATOM     16  H   UNL     1       5.534   2.435  14.922  0.00  0.00    +0.000 HD
ENDBRANCH  10  15
BRANCH   1  17
ATOM     17  C   UNL     1       2.623   3.269  18.437  0.00  0.00    +0.000 C 
BRANCH  17  18
ATOM     18  N   UNL     1       3.243   2.783  19.672  0.00  0.00    +0.000 N 
ATOM     19  C   UNL     1       2.739   2.771  20.938  0.00  0.00    +0.000 A 
ATOM     20  N   UNL     1       3.622   2.247  21.757  0.00  0.00    +0.000 NA
ATOM     21  N   UNL     1       4.733   1.910  21.018  0.00  0.00    +0.000 NA
ATOM     22  C   UNL     1       4.489   2.234  19.770  0.00  0.00    +0.000 A 
ENDBRANCH  17  18
BRANCH  17  24
ATOM     23  C   UNL     1       0.661   1.693  18.914  0.00  0.00    +0.000 C 
ATOM     24  C   UNL     1       1.091   3.049  18.368  0.00  0.00    +0.000 C 
ENDBRANCH  17  24
ENDBRANCH   1  17
TORSDOF 5
ENDMDL
