MODEL 1
REMARK VINA RESULT:      -7.1      0.000      0.000
REMARK  Name = 
REMARK  2 active torsions:
REMARK  status: ('A' for Active; 'I' for Inactive)
REMARK    1  A    between atoms: N_5  and  C_6
REMARK    2  A    between atoms: C_6  and  C_7
REMARK                            x       y       z     vdW  Elec       q    Type
REMARK                         _______ _______ _______ _____ _____    ______ ____
ROOT
ATOM      1  C   UNL     1       4.905   6.152  17.235  0.00  0.00    +0.000 A 
ATOM      2  C   UNL     1       5.944   6.809  17.888  0.00  0.00    +0.000 A 
ATOM      3  C   UNL     1       7.208   6.751  17.323  0.00  0.00    +0.000 A 
ATOM      4  N   UNL     1       7.500   6.106  16.168  0.00  0.00    +0.000 NA
ATOM      5  C   UNL     1       6.502   5.458  15.535  0.00  0.00    +0.000 A 
ATOM      6  N   UNL     1       6.744   4.839  14.332  0.00  0.00    +0.000 N 
ATOM      7  C   UNL     1       7.889   5.218  13.508  0.00  0.00    +0.000 C 
ATOM      8  C   UNL     1       7.433   5.118  12.038  0.00  0.00    +0.000 C 
ATOM      9  O   UNL     1       6.937   3.802  11.715  0.00  0.00    +0.000 OA
ATOM     10  C   UNL     1       5.836   3.445  12.574  0.00  0.00    +0.000 C 
ATOM     11  C   UNL     1       6.242   3.492  14.054  0.00  0.00    +0.000 C 
ATOM     12  C   UNL     1       5.203   5.482  16.045  0.00  0.00    +0.000 A 
ENDROOT
BRANCH   1  13
ATOM     13  C   UNL     1       3.481   6.187  17.737  0.00  0.00    +0.000 C 
BRANCH  13  18
ATOM     14  C   UNL     1       1.300   3.266  21.055  0.00  0.00    +0.000 A 
ATOM     15  C   UNL     1       0.778   3.055  19.805  0.00  0.00    +0.000 A 
ATOM     16  N   UNL     1       1.289   3.592  18.681  0.00  0.00    +0.000 NA
ATOM     17  C   UNL     1       2.375   4.366  18.818  0.00  0.00    +0.000 A 
ATOM     18  N   UNL     1       2.908   4.863  17.637  0.00  0.00    +0.000 N 
ATOM     19  N   UNL     1       2.944   4.653  19.997  0.00  0.00    +0.000 NA
ATOM     20  C   UNL     1       2.397   4.090  21.092  0.00  0.00    +0.000 A 
ATOM     21  H   UNL     1       2.204   4.745  16.922  0.00  0.00    +0.000 HD
ENDBRANCH  13  18
ENDBRANCH   1  13
TORSDOF 2
ENDMDL
MODEL 2
REMARK VINA RESULT:      -7.0      4.309      5.673
REMARK  Name = 
REMARK  2 active torsions:
REMARK  status: ('A' for Active; 'I' for Inactive)
REMARK    1  A    between atoms: N_5  and  C_6
REMARK    2  A    between atoms: C_6  and  C_7
REMARK                            x       y       z     vdW  Elec       q    Type
REMARK                         _______ _______ _______ _____ _____    ______ ____
ROOT
ATOM      1  C   UNL     1       2.298   6.679  19.879  0.00  0.00    +0.000 A 
ATOM      2  C   UNL     1       1.879   5.558  20.590  0.00  0.00    +0.000 A 
ATOM      3  C   UNL     1       2.538   4.361  20.365  0.00  0.00    +0.000 A 
ATOM      4  N   UNL     1       3.573   4.208  19.505  0.00  0.00    +0.000 NA
ATOM      5  C   UNL     1       3.978   5.285  18.804  0.00  0.00    +0.000 A 
ATOM      6  N   UNL     1       5.061   5.186  17.963  0.00  0.00    +0.000 N 
ATOM      7  C   UNL     1       6.043   4.118  18.125  0.00  0.00    +0.000 C 
ATOM      8  C   UNL     1       7.420   4.722  17.780  0.00  0.00    +0.000 C 
ATOM      9  O   UNL     1       7.443   5.291  16.453  0.00  0.00    +0.000 OA
ATOM     10  C   UNL     1       6.434   6.311  16.317  0.00  0.00    +0.000 C 
ATOM     11  C   UNL     1       5.033   5.757  16.615  0.00  0.00    +0.000 C 
ATOM     12  C   UNL     1       3.364   6.524  18.987  0.00  0.00    +0.000 A 
ENDROOT
BRANCH   1  13
ATOM     13  C   UNL     1       1.682   8.043  20.077  0.00  0.00    +0.000 C 
BRANCH  13  18
ATOM     14  C   UNL     1      -0.839  11.499  22.528  0.00  0.00    +0.000 A 
ATOM     15  C   UNL     1      -0.852  10.310  23.212  0.00  0.00    +0.000 A 
ATOM     16  N   UNL     1      -0.114   9.239  22.865  0.00  0.00    +0.000 NA
ATOM     17  C   UNL     1       0.677   9.371  21.790  0.00  0.00    +0.000 A 
ATOM     18  N   UNL     1       1.463   8.268  21.488  0.00  0.00    +0.000 N 
ATOM     19  N   UNL     1       0.741  10.480  21.041  0.00  0.00    +0.000 NA
ATOM     20  C   UNL     1      -0.015  11.525  21.431  0.00  0.00    +0.000 A 
ATOM     21  H   UNL     1       1.083   7.484  22.001  0.00  0.00    +0.000 HD
ENDBRANCH  13  18
ENDBRANCH   1  13
TORSDOF 2
ENDMDL
MODEL 3
REMARK VINA RESULT:      -6.9      4.448      5.929
REMARK  Name = 
REMARK  2 active torsions:
REMARK  status: ('A' for Active; 'I' for Inactive)
REMARK    1  A    between atoms: N_5  and  C_6
REMARK    2  A    between atoms: C_6  and  C_7
REMARK                            x       y       z     vdW  Elec       q    Type
REMARK                         _______ _______ _______ _____ _____    ______ ____
ROOT
ATOM      1  C   UNL     1       2.656   7.705  18.323  0.00  0.00    +0.000 A 
ATOM      2  C   UNL     1       2.164   7.143  19.498  0.00  0.00    +0.000 A 
ATOM      3  C   UNL     1       2.746   5.970  19.951  0.00  0.00    +0.000 A 
ATOM      4  N   UNL     1       3.771   5.336  19.333  0.00  0.00    +0.000 NA
ATOM      5  C   UNL     1       4.245   5.867  18.188  0.00  0.00    +0.000 A 
ATOM      6  N   UNL     1       5.321   5.287  17.560  0.00  0.00    +0.000 N 
ATOM      7  C   UNL     1       6.233   4.408  18.288  0.00  0.00    +0.000 C 
ATOM      8  C   UNL     1       7.647   4.670  17.727  0.00  0.00    +0.000 C 
ATOM      9  O   UNL     1       7.708   4.463  16.300  0.00  0.00    +0.000 OA
ATOM     10  C   UNL     1       6.767   5.315  15.618  0.00  0.00    +0.000 C 
ATOM     11  C   UNL     1       5.333   5.073  16.112  0.00  0.00    +0.000 C 
ATOM     12  C   UNL     1       3.711   7.052  17.679  0.00  0.00    +0.000 A 
ENDROOT
BRANCH   1  13
ATOM     13  C   UNL     1       2.128   9.004  17.762  0.00  0.00    +0.000 C 
BRANCH  13  18
ATOM     14  C   UNL     1       0.517  13.577  18.649  0.00  0.00    +0.000 A 
ATOM     15  C   UNL     1      -0.500  12.668  18.787  0.00  0.00    +0.000 A 
ATOM     16  N   UNL     1      -0.320  11.334  18.764  0.00  0.00    +0.000 NA
ATOM     17  C   UNL     1       0.937  10.896  18.604  0.00  0.00    +0.000 A 
ATOM     18  N   UNL     1       1.098   9.518  18.636  0.00  0.00    +0.000 N 
ATOM     19  N   UNL     1       1.994  11.702  18.435  0.00  0.00    +0.000 NA
ATOM     20  C   UNL     1       1.761  13.029  18.468  0.00  0.00    +0.000 A 
ATOM     21  H   UNL     1       0.180   9.110  18.517  0.00  0.00    +0.000 HD
ENDBRANCH  13  18
ENDBRANCH   1  13
TORSDOF 2
ENDMDL
MODEL 4
REMARK VINA RESULT:      -6.9      0.794      1.271
REMARK  Name = 
REMARK  2 active torsions:
REMARK  status: ('A' for Active; 'I' for Inactive)
REMARK    1  A    between atoms: N_5  and  C_6
REMARK    2  A    between atoms: C_6  and  C_7
REMARK                            x       y       z     vdW  Elec       q    Type
REMARK                         _______ _______ _______ _____ _____    ______ ____
ROOT
ATOM      1  C   UNL     1       4.900   6.402  17.179  0.00  0.00    +0.000 A 
ATOM      2  C   UNL     1       5.975   7.007  17.824  0.00  0.00    +0.000 A 
ATOM      3  C   UNL     1       7.239   6.835  17.282  0.00  0.00    +0.000 A 
ATOM      4  N   UNL     1       7.499   6.125  16.158  0.00  0.00    +0.000 NA
ATOM      5  C   UNL     1       6.465   5.527  15.534  0.00  0.00    +0.000 A 
ATOM      6  N   UNL     1       6.677   4.844  14.360  0.00  0.00    +0.000 N 
ATOM      7  C   UNL     1       7.859   5.106  13.542  0.00  0.00    +0.000 C 
ATOM      8  C   UNL     1       7.417   4.980  12.069  0.00  0.00    +0.000 C 
ATOM      9  O   UNL     1       6.831   3.691  11.789  0.00  0.00    +0.000 OA
ATOM     10  C   UNL     1       5.695   3.449  12.643  0.00  0.00    +0.000 C 
ATOM     11  C   UNL     1       6.083   3.527  14.127  0.00  0.00    +0.000 C 
ATOM     12  C   UNL     1       5.165   5.665  16.021  0.00  0.00    +0.000 A 
ENDROOT
BRANCH   1  13
ATOM     13  C   UNL     1       3.476   6.559  17.655  0.00  0.00    +0.000 C 
BRANCH  13  18
ATOM     14  C   UNL     1       1.702   2.270  19.316  0.00  0.00    +0.000 A 
ATOM     15  C   UNL     1       2.715   2.722  20.123  0.00  0.00    +0.000 A 
ATOM     16  N   UNL     1       3.275   3.941  20.007  0.00  0.00    +0.000 NA
ATOM     17  C   UNL     1       2.792   4.742  19.047  0.00  0.00    +0.000 A 
ATOM     18  N   UNL     1       3.354   6.009  18.987  0.00  0.00    +0.000 N 
ATOM     19  N   UNL     1       1.823   4.384  18.193  0.00  0.00    +0.000 NA
ATOM     20  C   UNL     1       1.294   3.155  18.351  0.00  0.00    +0.000 A 
ATOM     21  H   UNL     1       4.208   5.980  19.527  0.00  0.00    +0.000 HD
ENDBRANCH  13  18
ENDBRANCH   1  13
TORSDOF 2
ENDMDL
MODEL 5
REMARK VINA RESULT:      -6.9      4.407      5.652
REMARK  Name = 
REMARK  2 active torsions:
REMARK  status: ('A' for Active; 'I' for Inactive)
REMARK    1  A    between atoms: N_5  and  C_6
REMARK    2  A    between atoms: C_6  and  C_7
REMARK                            x       y       z     vdW  Elec       q    Type
REMARK                         _______ _______ _______ _____ _____    ______ ____
ROOT
ATOM      1  C   UNL     1       2.610   7.967  18.290  0.00  0.00    +0.000 A 
ATOM      2  C   UNL     1       2.072   7.402  19.443  0.00  0.00    +0.000 A 
ATOM      3  C   UNL     1       2.589   6.192  19.877  0.00  0.00    +0.000 A 
ATOM      4  N   UNL     1       3.593   5.525  19.260  0.00  0.00    +0.000 NA
ATOM      5  C   UNL     1       4.112   6.059  18.137  0.00  0.00    +0.000 A 
ATOM      6  N   UNL     1       5.169   5.442  17.511  0.00  0.00    +0.000 N 
ATOM      7  C   UNL     1       6.026   4.504  18.232  0.00  0.00    +0.000 C 
ATOM      8  C   UNL     1       7.459   4.710  17.701  0.00  0.00    +0.000 C 
ATOM      9  O   UNL     1       7.535   4.534  16.270  0.00  0.00    +0.000 OA
ATOM     10  C   UNL     1       6.647   5.446  15.594  0.00  0.00    +0.000 C 
ATOM     11  C   UNL     1       5.195   5.261  16.059  0.00  0.00    +0.000 C 
ATOM     12  C   UNL     1       3.643   7.279  17.648  0.00  0.00    +0.000 A 
ENDROOT
BRANCH   1  13
ATOM     13  C   UNL     1       2.154   9.302  17.752  0.00  0.00    +0.000 C 
BRANCH  13  18
ATOM     14  C   UNL     1      -0.862  12.465  20.034  0.00  0.00    +0.000 A 
ATOM     15  C   UNL     1      -1.440  11.982  18.888  0.00  0.00    +0.000 A 
ATOM     16  N   UNL     1      -0.919  10.984  18.150  0.00  0.00    +0.000 NA
ATOM     17  C   UNL     1       0.228  10.443  18.587  0.00  0.00    +0.000 A 
ATOM     18  N   UNL     1       0.713   9.383  17.833  0.00  0.00    +0.000 N 
ATOM     19  N   UNL     1       0.883  10.860  19.679  0.00  0.00    +0.000 NA
ATOM     20  C   UNL     1       0.319  11.860  20.384  0.00  0.00    +0.000 A 
ATOM     21  H   UNL     1       0.226   9.403  16.947  0.00  0.00    +0.000 HD
ENDBRANCH  13  18
ENDBRANCH   1  13
TORSDOF 2
ENDMDL
MODEL 6
REMARK VINA RESULT:      -6.8      2.578      6.648
REMARK  Name = 
REMARK  2 active torsions:
REMARK  status: ('A' for Active; 'I' for Inactive)
REMARK    1  A    between atoms: N_5  and  C_6
REMARK    2  A    between atoms: C_6  and  C_7
REMARK                            x       y       z     vdW  Elec       q    Type
REMARK                         _______ _______ _______ _____ _____    ______ ____
ROOT
ATOM      1  C   UNL     1       6.223   5.959  17.218  0.00  0.00    +0.000 A 
ATOM      2  C   UNL     1       7.215   5.961  18.194  0.00  0.00    +0.000 A 
ATOM      3  C   UNL     1       6.918   5.397  19.424  0.00  0.00    +0.000 A 
ATOM      4  N   UNL     1       5.729   4.832  19.740  0.00  0.00    +0.000 NA
ATOM      5  C   UNL     1       4.759   4.836  18.804  0.00  0.00    +0.000 A 
ATOM      6  N   UNL     1       3.556   4.224  19.064  0.00  0.00    +0.000 N 
ATOM      7  C   UNL     1       3.439   3.208  20.107  0.00  0.00    +0.000 C 
ATOM      8  C   UNL     1       2.433   2.157  19.595  0.00  0.00    +0.000 C 
ATOM      9  O   UNL     1       1.159   2.747  19.259  0.00  0.00    +0.000 OA
ATOM     10  C   UNL     1       1.318   3.772  18.258  0.00  0.00    +0.000 C 
ATOM     11  C   UNL     1       2.285   4.869  18.729  0.00  0.00    +0.000 C 
ATOM     12  C   UNL     1       4.992   5.381  17.540  0.00  0.00    +0.000 A 
ENDROOT
BRANCH   1  13
ATOM     13  C   UNL     1       6.451   6.505  15.828  0.00  0.00    +0.000 C 
BRANCH  13  18
ATOM     14  C   UNL     1       5.855   3.312  12.120  0.00  0.00    +0.000 A 
ATOM     15  C   UNL     1       7.101   3.882  12.075  0.00  0.00    +0.000 A 
ATOM     16  N   UNL     1       7.601   4.667  13.049  0.00  0.00    +0.000 NA
ATOM     17  C   UNL     1       6.818   4.880  14.117  0.00  0.00    +0.000 A 
ATOM     18  N   UNL     1       7.380   5.649  15.125  0.00  0.00    +0.000 N 
ATOM     19  N   UNL     1       5.577   4.390  14.243  0.00  0.00    +0.000 NA
ATOM     20  C   UNL     1       5.124   3.609  13.243  0.00  0.00    +0.000 A 
ATOM     21  H   UNL     1       8.186   6.112  14.729  0.00  0.00    +0.000 HD
ENDBRANCH  13  18
ENDBRANCH   1  13
TORSDOF 2
ENDMDL
MODEL 7
REMARK VINA RESULT:      -6.7      4.225      5.533
REMARK  Name = 
REMARK  2 active torsions:
REMARK  status: ('A' for Active; 'I' for Inactive)
REMARK    1  A    between atoms: N_5  and  C_6
REMARK    2  A    between atoms: C_6  and  C_7
REMARK                            x       y       z     vdW  Elec       q    Type
REMARK                         _______ _______ _______ _____ _____    ______ ____
ROOT
ATOM      1  C   UNL     1       2.459   7.439  18.321  0.00  0.00    +0.000 A 
ATOM      2  C   UNL     1       2.044   6.932  19.549  0.00  0.00    +0.000 A 
ATOM      3  C   UNL     1       2.733   5.850  20.073  0.00  0.00    +0.000 A 
ATOM      4  N   UNL     1       3.793   5.256  19.474  0.00  0.00    +0.000 NA
ATOM      5  C   UNL     1       4.194   5.733  18.280  0.00  0.00    +0.000 A 
ATOM      6  N   UNL     1       5.301   5.196  17.666  0.00  0.00    +0.000 N 
ATOM      7  C   UNL     1       6.300   4.455  18.431  0.00  0.00    +0.000 C 
ATOM      8  C   UNL     1       7.673   4.787  17.811  0.00  0.00    +0.000 C 
ATOM      9  O   UNL     1       7.719   4.475  16.403  0.00  0.00    +0.000 OA
ATOM     10  C   UNL     1       6.694   5.191  15.686  0.00  0.00    +0.000 C 
ATOM     11  C   UNL     1       5.297   4.871  16.238  0.00  0.00    +0.000 C 
ATOM     12  C   UNL     1       3.551   6.826  17.698  0.00  0.00    +0.000 A 
ENDROOT
BRANCH   1  13
ATOM     13  C   UNL     1       1.812   8.642  17.679  0.00  0.00    +0.000 C 
BRANCH  13  18
ATOM     14  C   UNL     1      -1.453  11.565  19.936  0.00  0.00    +0.000 A 
ATOM     15  C   UNL     1      -0.303  11.460  20.675  0.00  0.00    +0.000 A 
ATOM     16  N   UNL     1       0.819  10.861  20.232  0.00  0.00    +0.000 NA
ATOM     17  C   UNL     1       0.785  10.354  18.991  0.00  0.00    +0.000 A 
ATOM     18  N   UNL     1       1.971   9.789  18.544  0.00  0.00    +0.000 N 
ATOM     19  N   UNL     1      -0.297  10.384  18.201  0.00  0.00    +0.000 NA
ATOM     20  C   UNL     1      -1.393  10.997  18.689  0.00  0.00    +0.000 A 
ATOM     21  H   UNL     1       2.555   9.645  19.357  0.00  0.00    +0.000 HD
ENDBRANCH  13  18
ENDBRANCH   1  13
TORSDOF 2
ENDMDL
MODEL 8
REMARK VINA RESULT:      -6.7      2.898      7.580
REMARK  Name = 
REMARK  2 active torsions:
REMARK  status: ('A' for Active; 'I' for Inactive)
REMARK    1  A    between atoms: N_5  and  C_6
REMARK    2  A    between atoms: C_6  and  C_7
REMARK                            x       y       z     vdW  Elec       q    Type
REMARK                         _______ _______ _______ _____ _____    ______ ____
ROOT
ATOM      1  C   UNL     1       4.660   4.597  16.659  0.00  0.00    +0.000 A 
ATOM      2  C   UNL     1       4.874   5.970  16.712  0.00  0.00    +0.000 A 
ATOM      3  C   UNL     1       4.218   6.694  17.695  0.00  0.00    +0.000 A 
ATOM      4  N   UNL     1       3.388   6.151  18.618  0.00  0.00    +0.000 NA
ATOM      5  C   UNL     1       3.166   4.823  18.566  0.00  0.00    +0.000 A 
ATOM      6  N   UNL     1       2.376   4.225  19.518  0.00  0.00    +0.000 N 
ATOM      7  C   UNL     1       2.133   4.868  20.807  0.00  0.00    +0.000 C 
ATOM      8  C   UNL     1       2.078   3.744  21.863  0.00  0.00    +0.000 C 
ATOM      9  O   UNL     1       1.075   2.756  21.546  0.00  0.00    +0.000 OA
ATOM     10  C   UNL     1       1.322   2.172  20.251  0.00  0.00    +0.000 C 
ATOM     11  C   UNL     1       1.352   3.244  19.151  0.00  0.00    +0.000 C 
ATOM     12  C   UNL     1       3.801   4.033  17.607  0.00  0.00    +0.000 A 
ENDROOT
BRANCH   1  13
ATOM     13  C   UNL     1       5.357   3.705  15.659  0.00  0.00    +0.000 C 
BRANCH  13  18
ATOM     14  C   UNL     1       7.741   5.060  11.563  0.00  0.00    +0.000 A 
ATOM     15  C   UNL     1       8.182   5.781  12.643  0.00  0.00    +0.000 A 
ATOM     16  N   UNL     1       7.828   5.516  13.915  0.00  0.00    +0.000 NA
ATOM     17  C   UNL     1       7.003   4.476  14.110  0.00  0.00    +0.000 A 
ATOM     18  N   UNL     1       6.698   4.196  15.434  0.00  0.00    +0.000 N 
ATOM     19  N   UNL     1       6.498   3.727  13.120  0.00  0.00    +0.000 NA
ATOM     20  C   UNL     1       6.885   4.032  11.866  0.00  0.00    +0.000 A 
ATOM     21  H   UNL     1       6.963   5.007  15.976  0.00  0.00    +0.000 HD
ENDBRANCH  13  18
ENDBRANCH   1  13
TORSDOF 2
ENDMDL
MODEL 9
REMARK VINA RESULT:      -6.7      3.377      4.999
REMARK  Name = 
REMARK  2 active torsions:
REMARK  status: ('A' for Active; 'I' for Inactive)
REMARK    1  A    between atoms: N_5  and  C_6
REMARK    2  A    between atoms: C_6  and  C_7
REMARK                            x       y       z     vdW  Elec       q    Type
REMARK                         _______ _______ _______ _____ _____    ______ ____
ROOT
ATOM      1  C   UNL     1       2.061   4.962  19.411  0.00  0.00    +0.000 A 
ATOM      2  C   UNL     1       1.422   3.846  18.878  0.00  0.00    +0.000 A 
ATOM      3  C   UNL     1       1.976   3.255  17.754  0.00  0.00    +0.000 A 
ATOM      4  N   UNL     1       3.106   3.684  17.143  0.00  0.00    +0.000 NA
ATOM      5  C   UNL     1       3.724   4.771  17.646  0.00  0.00    +0.000 A 
ATOM      6  N   UNL     1       4.904   5.205  17.091  0.00  0.00    +0.000 N 
ATOM      7  C   UNL     1       5.732   4.308  16.287  0.00  0.00    +0.000 C 
ATOM      8  C   UNL     1       7.202   4.667  16.590  0.00  0.00    +0.000 C 
ATOM      9  O   UNL     1       7.483   6.057  16.325  0.00  0.00    +0.000 OA
ATOM     10  C   UNL     1       6.621   6.911  17.103  0.00  0.00    +0.000 C 
ATOM     11  C   UNL     1       5.140   6.623  16.815  0.00  0.00    +0.000 C 
ATOM     12  C   UNL     1       3.225   5.411  18.781  0.00  0.00    +0.000 A 
ENDROOT
BRANCH   1  13
ATOM     13  C   UNL     1       1.571   5.658  20.659  0.00  0.00    +0.000 C 
BRANCH  13  18
ATOM     14  C   UNL     1      -0.290   9.812  22.550  0.00  0.00    +0.000 A 
ATOM     15  C   UNL     1       1.081   9.846  22.558  0.00  0.00    +0.000 A 
ATOM     16  N   UNL     1       1.856   8.923  21.958  0.00  0.00    +0.000 NA
ATOM     17  C   UNL     1       1.226   7.929  21.315  0.00  0.00    +0.000 A 
ATOM     18  N   UNL     1       2.050   7.022  20.664  0.00  0.00    +0.000 N 
ATOM     19  N   UNL     1      -0.107   7.793  21.272  0.00  0.00    +0.000 NA
ATOM     20  C   UNL     1      -0.837   8.744  21.886  0.00  0.00    +0.000 A 
ATOM     21  H   UNL     1       2.983   7.156  21.027  0.00  0.00    +0.000 HD
ENDBRANCH  13  18
ENDBRANCH   1  13
TORSDOF 2
ENDMDL
