MODEL 1
REMARK VINA RESULT:      -8.0      0.000      0.000
REMARK  Name = 
REMARK  8 active torsions:
REMARK  status: ('A' for Active; 'I' for Inactive)
REMARK    1  A    between atoms: C_1  and  N_2
REMARK    2  A    between atoms: N_2  and  C_3
REMARK    3  A    between atoms: N_2  and  C_4
REMARK    4  A    between atoms: C_7  and  N_8
REMARK    5  A    between atoms: C_9  and  C_11
REMARK    6  A    between atoms: C_11  and  N_12
REMARK    7  A    between atoms: C_19  and  N_20
REMARK    8  A    between atoms: C_21  and  C_23
REMARK                            x       y       z     vdW  Elec       q    Type
REMARK                         _______ _______ _______ _____ _____    ______ ____
ROOT
ATOM      1  N   UNL     1       2.521   5.125  19.574  0.00  0.00    +0.000 NA
ATOM      2  C   UNL     1       1.432   4.354  18.951  0.00  0.00    +0.000 C 
ATOM      3  C   UNL     1       0.637   3.457  19.906  0.00  0.00    +0.000 C 
ATOM      4  C   UNL     1       1.396   2.826  21.067  0.00  0.00    +0.000 C 
ATOM      5  C   UNL     1       2.820   3.311  21.308  0.00  0.00    +0.000 C 
ATOM      6  C   UNL     1       3.449   4.174  20.205  0.00  0.00    +0.000 C 
ATOM      7  C   UNL     1       4.169   3.352  19.131  0.00  0.00    +0.000 C 
ATOM      8  C   UNL     1       3.349   2.938  17.901  0.00  0.00    +0.000 C 
ATOM      9  C   UNL     1       1.990   3.623  17.725  0.00  0.00    +0.000 C 
ENDROOT
BRANCH   8  10
ATOM     10  N   UNL     1       4.172   3.177  16.707  0.00  0.00    +0.000 N 
ATOM     11  C   UNL     1       4.667   4.419  16.358  0.00  0.00    +0.000 C 
ATOM     12  O   UNL     1       4.410   5.448  16.961  0.00  0.00    +0.000 OA
ATOM     13  H   UNL     1       4.675   2.376  16.349  0.00  0.00    +0.000 HD
BRANCH  11  14
ATOM     14  C   UNL     1       5.605   4.416  15.200  0.00  0.00    +0.000 A 
ATOM     15  C   UNL     1       6.793   5.161  15.221  0.00  0.00    +0.000 A 
ATOM     16  C   UNL     1       7.628   5.189  14.102  0.00  0.00    +0.000 A 
ATOM     17  C   UNL     1       7.287   4.464  12.963  0.00  0.00    +0.000 A 
ATOM     18  C   UNL     1       6.123   3.690  12.946  0.00  0.00    +0.000 A 
ATOM     19  C   UNL     1       5.287   3.661  14.063  0.00  0.00    +0.000 A 
ENDBRANCH  11  14
ENDBRANCH   8  10
BRANCH   1  20
ATOM     20  C   UNL     1       2.031   6.112  20.566  0.00  0.00    +0.000 C 
BRANCH  20  22
ATOM     21  N   UNL     1       0.867   8.271  20.642  0.00  0.00    +0.000 N 
ATOM     22  C   UNL     1       1.803   7.497  19.972  0.00  0.00    +0.000 C 
ATOM     23  O   UNL     1       2.421   7.814  18.953  0.00  0.00    +0.000 OA
ATOM     24  H   UNL     1       0.471   7.836  21.477  0.00  0.00    +0.000 HD
BRANCH  21  28
ATOM     25  C   UNL     1      -0.202  12.337  19.862  0.00  0.00    +0.000 A 
ATOM     26  C   UNL     1       0.610  11.980  20.942  0.00  0.00    +0.000 A 
ATOM     27  C   UNL     1       0.970  10.654  21.202  0.00  0.00    +0.000 A 
ATOM     28  C   UNL     1       0.550   9.617  20.378  0.00  0.00    +0.000 A 
ATOM     29  C   UNL     1      -0.231   9.940  19.264  0.00  0.00    +0.000 A 
ATOM     30  C   UNL     1      -0.596  11.279  19.018  0.00  0.00    +0.000 A 
BRANCH  25  32
ATOM     31  C   UNL     1       0.398  14.589  19.059  0.00  0.00    +0.000 C 
ATOM     32  N   UNL     1      -0.578  13.662  19.634  0.00  0.00    +0.000 N 
ATOM     33  C   UNL     1      -1.614  14.245  20.479  0.00  0.00    +0.000 C 
ENDBRANCH  25  32
ENDBRANCH  21  28
ENDBRANCH  20  22
ENDBRANCH   1  20
TORSDOF 6
ENDMDL
MODEL 2
REMARK VINA RESULT:      -7.8      1.001      1.332
REMARK  Name = 
REMARK  8 active torsions:
REMARK  status: ('A' for Active; 'I' for Inactive)
REMARK    1  A    between atoms: C_1  and  N_2
REMARK    2  A    between atoms: N_2  and  C_3
REMARK    3  A    between atoms: N_2  and  C_4
REMARK    4  A    between atoms: C_7  and  N_8
REMARK    5  A    between atoms: C_9  and  C_11
REMARK    6  A    between atoms: C_11  and  N_12
REMARK    7  A    between atoms: C_19  and  N_20
REMARK    8  A    between atoms: C_21  and  C_23
REMARK                            x       y       z     vdW  Elec       q    Type
REMARK                         _______ _______ _______ _____ _____    ______ ____
ROOT
ATOM      1  N   UNL     1       2.757   4.897  19.735  0.00  0.00    +0.000 NA
ATOM      2  C   UNL     1       1.542   4.416  19.057  0.00  0.00    +0.000 C 
ATOM      3  C   UNL     1       0.642   3.503  19.898  0.00  0.00    +0.000 C 
ATOM      4  C   UNL     1       1.323   2.580  20.900  0.00  0.00    +0.000 C 
ATOM      5  C   UNL     1       2.812   2.795  21.139  0.00  0.00    +0.000 C 
ATOM      6  C   UNL     1       3.539   3.724  20.155  0.00  0.00    +0.000 C 
ATOM      7  C   UNL     1       4.089   2.992  18.926  0.00  0.00    +0.000 C 
ATOM      8  C   UNL     1       3.179   2.917  17.692  0.00  0.00    +0.000 C 
ATOM      9  C   UNL     1       1.941   3.821  17.702  0.00  0.00    +0.000 C 
ENDROOT
BRANCH   8  10
ATOM     10  N   UNL     1       3.995   3.224  16.508  0.00  0.00    +0.000 N 
ATOM     11  C   UNL     1       4.776   4.357  16.393  0.00  0.00    +0.000 C 
ATOM     12  O   UNL     1       4.808   5.249  17.225  0.00  0.00    +0.000 OA
ATOM     13  H   UNL     1       4.266   2.431  15.943  0.00  0.00    +0.000 HD
BRANCH  11  14
ATOM     14  C   UNL     1       5.644   4.399  15.182  0.00  0.00    +0.000 A 
ATOM     15  C   UNL     1       6.808   5.180  15.146  0.00  0.00    +0.000 A 
ATOM     16  C   UNL     1       7.574   5.248  13.980  0.00  0.00    +0.000 A 
ATOM     17  C   UNL     1       7.188   4.529  12.851  0.00  0.00    +0.000 A 
ATOM     18  C   UNL     1       6.048   3.721  12.891  0.00  0.00    +0.000 A 
ATOM     19  C   UNL     1       5.282   3.650  14.054  0.00  0.00    +0.000 A 
ENDBRANCH  11  14
ENDBRANCH   8  10
BRANCH   1  20
ATOM     20  C   UNL     1       2.459   5.768  20.897  0.00  0.00    +0.000 C 
BRANCH  20  22
ATOM     21  N   UNL     1       0.941   7.641  21.355  0.00  0.00    +0.000 N 
ATOM     22  C   UNL     1       1.905   7.131  20.498  0.00  0.00    +0.000 C 
ATOM     23  O   UNL     1       2.314   7.656  19.461  0.00  0.00    +0.000 OA
ATOM     24  H   UNL     1       0.744   7.060  22.172  0.00  0.00    +0.000 HD
BRANCH  21  28
ATOM     25  C   UNL     1      -0.764  11.559  21.190  0.00  0.00    +0.000 A 
ATOM     26  C   UNL     1      -0.460  10.835  20.034  0.00  0.00    +0.000 A 
ATOM     27  C   UNL     1       0.091   9.551  20.077  0.00  0.00    +0.000 A 
ATOM     28  C   UNL     1       0.350   8.917  21.287  0.00  0.00    +0.000 A 
ATOM     29  C   UNL     1       0.021   9.594  22.465  0.00  0.00    +0.000 A 
ATOM     30  C   UNL     1      -0.524  10.892  22.408  0.00  0.00    +0.000 A 
BRANCH  25  32
ATOM     31  C   UNL     1      -1.114  13.743  22.277  0.00  0.00    +0.000 C 
ATOM     32  N   UNL     1      -1.286  12.852  21.129  0.00  0.00    +0.000 N 
ATOM     33  C   UNL     1      -2.450  13.091  20.284  0.00  0.00    +0.000 C 
ENDBRANCH  25  32
ENDBRANCH  21  28
ENDBRANCH  20  22
ENDBRANCH   1  20
TORSDOF 6
ENDMDL
MODEL 3
REMARK VINA RESULT:      -7.8      0.659      1.465
REMARK  Name = 
REMARK  8 active torsions:
REMARK  status: ('A' for Active; 'I' for Inactive)
REMARK    1  A    between atoms: C_1  and  N_2
REMARK    2  A    between atoms: N_2  and  C_3
REMARK    3  A    between atoms: N_2  and  C_4
REMARK    4  A    between atoms: C_7  and  N_8
REMARK    5  A    between atoms: C_9  and  C_11
REMARK    6  A    between atoms: C_11  and  N_12
REMARK    7  A    between atoms: C_19  and  N_20
REMARK    8  A    between atoms: C_21  and  C_23
REMARK                            x       y       z     vdW  Elec       q    Type
REMARK                         _______ _______ _______ _____ _____    ______ ____
ROOT
ATOM      1  N   UNL     1       2.670   4.895  19.702  0.00  0.00    +0.000 NA
ATOM      2  C   UNL     1       1.504   4.281  19.045  0.00  0.00    +0.000 C 
ATOM      3  C   UNL     1       0.677   3.339  19.929  0.00  0.00    +0.000 C 
ATOM      4  C   UNL     1       1.426   2.528  20.978  0.00  0.00    +0.000 C 
ATOM      5  C   UNL     1       2.890   2.878  21.210  0.00  0.00    +0.000 C 
ATOM      6  C   UNL     1       3.544   3.814  20.183  0.00  0.00    +0.000 C 
ATOM      7  C   UNL     1       4.161   3.069  18.994  0.00  0.00    +0.000 C 
ATOM      8  C   UNL     1       3.269   2.858  17.763  0.00  0.00    +0.000 C 
ATOM      9  C   UNL     1       1.961   3.655  17.723  0.00  0.00    +0.000 C 
ENDROOT
BRANCH   8  10
ATOM     10  N   UNL     1       4.065   3.172  16.568  0.00  0.00    +0.000 N 
ATOM     11  C   UNL     1       4.671   4.395  16.354  0.00  0.00    +0.000 C 
ATOM     12  O   UNL     1       4.544   5.356  17.095  0.00  0.00    +0.000 OA
ATOM     13  H   UNL     1       4.470   2.379  16.086  0.00  0.00    +0.000 HD
BRANCH  11  14
ATOM     14  C   UNL     1       5.559   4.454  15.158  0.00  0.00    +0.000 A 
ATOM     15  C   UNL     1       5.241   3.763  13.979  0.00  0.00    +0.000 A 
ATOM     16  C   UNL     1       6.117   3.787  12.892  0.00  0.00    +0.000 A 
ATOM     17  C   UNL     1       7.305   4.509  12.971  0.00  0.00    +0.000 A 
ATOM     18  C   UNL     1       7.611   5.229  14.129  0.00  0.00    +0.000 A 
ATOM     19  C   UNL     1       6.738   5.208  15.218  0.00  0.00    +0.000 A 
ENDBRANCH  11  14
ENDBRANCH   8  10
BRANCH   1  20
ATOM     20  C   UNL     1       2.292   5.795  20.818  0.00  0.00    +0.000 C 
BRANCH  20  22
ATOM     21  N   UNL     1       0.912   7.797  21.148  0.00  0.00    +0.000 N 
ATOM     22  C   UNL     1       1.866   7.182  20.351  0.00  0.00    +0.000 C 
ATOM     23  O   UNL     1       2.359   7.636  19.316  0.00  0.00    +0.000 OA
ATOM     24  H   UNL     1       0.636   7.264  21.974  0.00  0.00    +0.000 HD
BRANCH  21  28
ATOM     25  C   UNL     1      -0.460  11.830  20.778  0.00  0.00    +0.000 A 
ATOM     26  C   UNL     1      -0.215  11.027  19.661  0.00  0.00    +0.000 A 
ATOM     27  C   UNL     1       0.228   9.705  19.772  0.00  0.00    +0.000 A 
ATOM     28  C   UNL     1       0.430   9.113  21.013  0.00  0.00    +0.000 A 
ATOM     29  C   UNL     1       0.155   9.872  22.154  0.00  0.00    +0.000 A 
ATOM     30  C   UNL     1      -0.281  11.207  22.029  0.00  0.00    +0.000 A 
BRANCH  25  32
ATOM     31  C   UNL     1      -2.299  13.448  20.500  0.00  0.00    +0.000 C 
ATOM     32  N   UNL     1      -0.873  13.158  20.649  0.00  0.00    +0.000 N 
ATOM     33  C   UNL     1       0.055  14.119  20.064  0.00  0.00    +0.000 C 
ENDBRANCH  25  32
ENDBRANCH  21  28
ENDBRANCH  20  22
ENDBRANCH   1  20
TORSDOF 6
ENDMDL
MODEL 4
REMARK VINA RESULT:      -7.8      0.893      1.013
REMARK  Name = 
REMARK  8 active torsions:
REMARK  status: ('A' for Active; 'I' for Inactive)
REMARK    1  A    between atoms: C_1  and  N_2
REMARK    2  A    between atoms: N_2  and  C_3
REMARK    3  A    between atoms: N_2  and  C_4
REMARK    4  A    between atoms: C_7  and  N_8
REMARK    5  A    between atoms: C_9  and  C_11
REMARK    6  A    between atoms: C_11  and  N_12
REMARK    7  A    between atoms: C_19  and  N_20
REMARK    8  A    between atoms: C_21  and  C_23
REMARK                            x       y       z     vdW  Elec       q    Type
REMARK                         _______ _______ _______ _____ _____    ______ ____
ROOT
ATOM      1  N   UNL     1       2.841   4.862  19.656  0.00  0.00    +0.000 NA
ATOM      2  C   UNL     1       1.612   4.408  18.985  0.00  0.00    +0.000 C 
ATOM      3  C   UNL     1       0.705   3.502  19.826  0.00  0.00    +0.000 C 
ATOM      4  C   UNL     1       1.381   2.557  20.812  0.00  0.00    +0.000 C 
ATOM      5  C   UNL     1       2.875   2.746  21.037  0.00  0.00    +0.000 C 
ATOM      6  C   UNL     1       3.608   3.672  20.056  0.00  0.00    +0.000 C 
ATOM      7  C   UNL     1       4.133   2.944  18.814  0.00  0.00    +0.000 C 
ATOM      8  C   UNL     1       3.210   2.897  17.588  0.00  0.00    +0.000 C 
ATOM      9  C   UNL     1       1.988   3.821  17.620  0.00  0.00    +0.000 C 
ENDROOT
BRANCH   8  10
ATOM     10  N   UNL     1       4.019   3.202  16.400  0.00  0.00    +0.000 N 
ATOM     11  C   UNL     1       4.815   4.325  16.287  0.00  0.00    +0.000 C 
ATOM     12  O   UNL     1       4.867   5.210  17.127  0.00  0.00    +0.000 OA
ATOM     13  H   UNL     1       4.274   2.410  15.825  0.00  0.00    +0.000 HD
BRANCH  11  14
ATOM     14  C   UNL     1       5.672   4.366  15.068  0.00  0.00    +0.000 A 
ATOM     15  C   UNL     1       6.859   5.113  15.035  0.00  0.00    +0.000 A 
ATOM     16  C   UNL     1       7.615   5.181  13.863  0.00  0.00    +0.000 A 
ATOM     17  C   UNL     1       7.197   4.496  12.725  0.00  0.00    +0.000 A 
ATOM     18  C   UNL     1       6.035   3.721  12.760  0.00  0.00    +0.000 A 
ATOM     19  C   UNL     1       5.277   3.650  13.930  0.00  0.00    +0.000 A 
ENDBRANCH  11  14
ENDBRANCH   8  10
BRANCH   1  20
ATOM     20  C   UNL     1       2.569   5.726  20.829  0.00  0.00    +0.000 C 
BRANCH  20  22
ATOM     21  N   UNL     1       1.153   7.651  21.385  0.00  0.00    +0.000 N 
ATOM     22  C   UNL     1       2.013   7.093  20.451  0.00  0.00    +0.000 C 
ATOM     23  O   UNL     1       2.329   7.582  19.364  0.00  0.00    +0.000 OA
ATOM     24  H   UNL     1       1.025   7.097  22.233  0.00  0.00    +0.000 HD
BRANCH  21  28
ATOM     25  C   UNL     1      -0.639  11.530  21.201  0.00  0.00    +0.000 A 
ATOM     26  C   UNL     1      -0.464  10.852  22.411  0.00  0.00    +0.000 A 
ATOM     27  C   UNL     1       0.126   9.587  22.482  0.00  0.00    +0.000 A 
ATOM     28  C   UNL     1       0.591   8.941  21.342  0.00  0.00    +0.000 A 
ATOM     29  C   UNL     1       0.471   9.606  20.118  0.00  0.00    +0.000 A 
ATOM     30  C   UNL     1      -0.135  10.877  20.058  0.00  0.00    +0.000 A 
BRANCH  25  32
ATOM     31  C   UNL     1      -1.389  13.449  19.849  0.00  0.00    +0.000 C 
ATOM     32  N   UNL     1      -1.258  12.780  21.143  0.00  0.00    +0.000 N 
ATOM     33  C   UNL     1      -1.198  13.638  22.321  0.00  0.00    +0.000 C 
ENDBRANCH  25  32
ENDBRANCH  21  28
ENDBRANCH  20  22
ENDBRANCH   1  20
TORSDOF 6
ENDMDL
MODEL 5
REMARK VINA RESULT:      -7.7      5.324      8.228
REMARK  Name = 
REMARK  8 active torsions:
REMARK  status: ('A' for Active; 'I' for Inactive)
REMARK    1  A    between atoms: C_1  and  N_2
REMARK    2  A    between atoms: N_2  and  C_3
REMARK    3  A    between atoms: N_2  and  C_4
REMARK    4  A    between atoms: C_7  and  N_8
REMARK    5  A    between atoms: C_9  and  C_11
REMARK    6  A    between atoms: C_11  and  N_12
REMARK    7  A    between atoms: C_19  and  N_20
REMARK    8  A    between atoms: C_21  and  C_23
REMARK                            x       y       z     vdW  Elec       q    Type
REMARK                         _______ _______ _______ _____ _____    ______ ____
ROOT
ATOM      1  N   UNL     1       5.839   6.799  17.781  0.00  0.00    +0.000 NA
ATOM      2  C   UNL     1       5.515   5.667  18.666  0.00  0.00    +0.000 C 
ATOM      3  C   UNL     1       5.664   4.279  18.033  0.00  0.00    +0.000 C 
ATOM      4  C   UNL     1       5.345   4.150  16.549  0.00  0.00    +0.000 C 
ATOM      5  C   UNL     1       5.120   5.442  15.774  0.00  0.00    +0.000 C 
ATOM      6  C   UNL     1       4.960   6.723  16.605  0.00  0.00    +0.000 C 
ATOM      7  C   UNL     1       3.510   7.001  17.014  0.00  0.00    +0.000 C 
ATOM      8  C   UNL     1       3.046   6.443  18.367  0.00  0.00    +0.000 C 
ATOM      9  C   UNL     1       4.143   5.920  19.301  0.00  0.00    +0.000 C 
ENDROOT
BRANCH   8  10
ATOM     10  N   UNL     1       2.285   7.496  19.054  0.00  0.00    +0.000 N 
ATOM     11  C   UNL     1       1.631   7.304  20.256  0.00  0.00    +0.000 C 
ATOM     12  O   UNL     1       1.557   6.227  20.826  0.00  0.00    +0.000 OA
ATOM     13  H   UNL     1       2.548   8.447  18.833  0.00  0.00    +0.000 HD
BRANCH  11  14
ATOM     14  C   UNL     1       1.051   8.538  20.858  0.00  0.00    +0.000 A 
ATOM     15  C   UNL     1       0.642   8.572  22.199  0.00  0.00    +0.000 A 
ATOM     16  C   UNL     1       0.049   9.722  22.725  0.00  0.00    +0.000 A 
ATOM     17  C   UNL     1      -0.127  10.844  21.919  0.00  0.00    +0.000 A 
ATOM     18  C   UNL     1       0.310  10.830  20.592  0.00  0.00    +0.000 A 
ATOM     19  C   UNL     1       0.904   9.683  20.064  0.00  0.00    +0.000 A 
ENDBRANCH  11  14
ENDBRANCH   8  10
BRANCH   1  20
ATOM     20  C   UNL     1       7.263   6.815  17.368  0.00  0.00    +0.000 C 
BRANCH  20  22
ATOM     21  N   UNL     1       8.091   9.102  17.696  0.00  0.00    +0.000 N 
ATOM     22  C   UNL     1       8.108   7.798  18.170  0.00  0.00    +0.000 C 
ATOM     23  O   UNL     1       8.752   7.378  19.133  0.00  0.00    +0.000 OA
ATOM     24  H   UNL     1       7.484   9.256  16.889  0.00  0.00    +0.000 HD
BRANCH  21  28
ATOM     25  C   UNL     1       9.799  12.548  19.565  0.00  0.00    +0.000 A 
ATOM     26  C   UNL     1       9.875  11.279  20.144  0.00  0.00    +0.000 A 
ATOM     27  C   UNL     1       9.325  10.145  19.538  0.00  0.00    +0.000 A 
ATOM     28  C   UNL     1       8.686  10.223  18.306  0.00  0.00    +0.000 A 
ATOM     29  C   UNL     1       8.627  11.469  17.676  0.00  0.00    +0.000 A 
ATOM     30  C   UNL     1       9.176  12.606  18.302  0.00  0.00    +0.000 A 
BRANCH  25  32
ATOM     31  C   UNL     1      11.640  14.172  19.786  0.00  0.00    +0.000 C 
ATOM     32  N   UNL     1      10.327  13.675  20.197  0.00  0.00    +0.000 N 
ATOM     33  C   UNL     1       9.924  13.951  21.572  0.00  0.00    +0.000 C 
ENDBRANCH  25  32
ENDBRANCH  21  28
ENDBRANCH  20  22
ENDBRANCH   1  20
TORSDOF 6
ENDMDL
MODEL 6
REMARK VINA RESULT:      -7.6      5.009      8.294
REMARK  Name = 
REMARK  8 active torsions:
REMARK  status: ('A' for Active; 'I' for Inactive)
REMARK    1  A    between atoms: C_1  and  N_2
REMARK    2  A    between atoms: N_2  and  C_3
REMARK    3  A    between atoms: N_2  and  C_4
REMARK    4  A    between atoms: C_7  and  N_8
REMARK    5  A    between atoms: C_9  and  C_11
REMARK    6  A    between atoms: C_11  and  N_12
REMARK    7  A    between atoms: C_19  and  N_20
REMARK    8  A    between atoms: C_21  and  C_23
REMARK                            x       y       z     vdW  Elec       q    Type
REMARK                         _______ _______ _______ _____ _____    ______ ____
ROOT
ATOM      1  N   UNL     1       5.759   6.341  18.513  0.00  0.00    +0.000 NA
ATOM      2  C   UNL     1       5.139   5.086  18.968  0.00  0.00    +0.000 C 
ATOM      3  C   UNL     1       5.085   3.966  17.922  0.00  0.00    +0.000 C 
ATOM      4  C   UNL     1       4.899   4.378  16.467  0.00  0.00    +0.000 C 
ATOM      5  C   UNL     1       5.003   5.864  16.149  0.00  0.00    +0.000 C 
ATOM      6  C   UNL     1       5.005   6.825  17.347  0.00  0.00    +0.000 C 
ATOM      7  C   UNL     1       3.600   7.262  17.774  0.00  0.00    +0.000 C 
ATOM      8  C   UNL     1       2.905   6.420  18.854  0.00  0.00    +0.000 C 
ATOM      9  C   UNL     1       3.783   5.412  19.603  0.00  0.00    +0.000 C 
ENDROOT
BRANCH   8  10
ATOM     10  N   UNL     1       2.291   7.342  19.821  0.00  0.00    +0.000 N 
ATOM     11  C   UNL     1       1.574   8.464  19.455  0.00  0.00    +0.000 C 
ATOM     12  O   UNL     1       1.444   8.843  18.302  0.00  0.00    +0.000 OA
ATOM     13  H   UNL     1       2.083   6.952  20.731  0.00  0.00    +0.000 HD
BRANCH  11  14
ATOM     14  C   UNL     1       0.904   9.175  20.581  0.00  0.00    +0.000 A 
ATOM     15  C   UNL     1       1.084   8.766  21.911  0.00  0.00    +0.000 A 
ATOM     16  C   UNL     1       0.402   9.411  22.944  0.00  0.00    +0.000 A 
ATOM     17  C   UNL     1      -0.453  10.473  22.657  0.00  0.00    +0.000 A 
ATOM     18  C   UNL     1      -0.610  10.909  21.338  0.00  0.00    +0.000 A 
ATOM     19  C   UNL     1       0.071  10.266  20.304  0.00  0.00    +0.000 A 
ENDBRANCH  11  14
ENDBRANCH   8  10
BRANCH   1  20
ATOM     20  C   UNL     1       7.195   6.184  18.177  0.00  0.00    +0.000 C 
BRANCH  20  22
ATOM     21  N   UNL     1       7.959   8.453  18.713  0.00  0.00    +0.000 N 
ATOM     22  C   UNL     1       7.851   7.484  17.727  0.00  0.00    +0.000 C 
ATOM     23  O   UNL     1       8.202   7.593  16.551  0.00  0.00    +0.000 OA
ATOM     24  H   UNL     1       7.621   8.167  19.633  0.00  0.00    +0.000 HD
BRANCH  21  28
ATOM     25  C   UNL     1       9.879  12.263  18.418  0.00  0.00    +0.000 A 
ATOM     26  C   UNL     1      10.351  11.261  19.269  0.00  0.00    +0.000 A 
ATOM     27  C   UNL     1       9.734  10.010  19.368  0.00  0.00    +0.000 A 
ATOM     28  C   UNL     1       8.620   9.692  18.601  0.00  0.00    +0.000 A 
ATOM     29  C   UNL     1       8.142  10.655  17.708  0.00  0.00    +0.000 A 
ATOM     30  C   UNL     1       8.766  11.916  17.625  0.00  0.00    +0.000 A 
BRANCH  25  32
ATOM     31  C   UNL     1       9.658  14.699  18.118  0.00  0.00    +0.000 C 
ATOM     32  N   UNL     1      10.488  13.518  18.354  0.00  0.00    +0.000 N 
ATOM     33  C   UNL     1      11.875  13.593  17.909  0.00  0.00    +0.000 C 
ENDBRANCH  25  32
ENDBRANCH  21  28
ENDBRANCH  20  22
ENDBRANCH   1  20
TORSDOF 6
ENDMDL
MODEL 7
REMARK VINA RESULT:      -7.6      0.664      1.201
REMARK  Name = 
REMARK  8 active torsions:
REMARK  status: ('A' for Active; 'I' for Inactive)
REMARK    1  A    between atoms: C_1  and  N_2
REMARK    2  A    between atoms: N_2  and  C_3
REMARK    3  A    between atoms: N_2  and  C_4
REMARK    4  A    between atoms: C_7  and  N_8
REMARK    5  A    between atoms: C_9  and  C_11
REMARK    6  A    between atoms: C_11  and  N_12
REMARK    7  A    between atoms: C_19  and  N_20
REMARK    8  A    between atoms: C_21  and  C_23
REMARK                            x       y       z     vdW  Elec       q    Type
REMARK                         _______ _______ _______ _____ _____    ______ ____
ROOT
ATOM      1  N   UNL     1       2.481   4.931  19.410  0.00  0.00    +0.000 NA
ATOM      2  C   UNL     1       1.462   4.032  18.843  0.00  0.00    +0.000 C 
ATOM      3  C   UNL     1       0.789   3.091  19.850  0.00  0.00    +0.000 C 
ATOM      4  C   UNL     1       1.640   2.581  21.006  0.00  0.00    +0.000 C 
ATOM      5  C   UNL     1       3.011   3.217  21.191  0.00  0.00    +0.000 C 
ATOM      6  C   UNL     1       3.518   4.103  20.043  0.00  0.00    +0.000 C 
ATOM      7  C   UNL     1       4.292   3.322  18.974  0.00  0.00    +0.000 C 
ATOM      8  C   UNL     1       3.487   2.784  17.782  0.00  0.00    +0.000 C 
ATOM      9  C   UNL     1       2.060   3.320  17.626  0.00  0.00    +0.000 C 
ENDROOT
BRANCH   8  10
ATOM     10  N   UNL     1       4.249   3.066  16.557  0.00  0.00    +0.000 N 
ATOM     11  C   UNL     1       4.666   4.331  16.192  0.00  0.00    +0.000 C 
ATOM     12  O   UNL     1       4.379   5.346  16.807  0.00  0.00    +0.000 OA
ATOM     13  H   UNL     1       4.779   2.292  16.180  0.00  0.00    +0.000 HD
BRANCH  11  14
ATOM     14  C   UNL     1       5.557   4.377  14.998  0.00  0.00    +0.000 A 
ATOM     15  C   UNL     1       5.258   3.649  13.837  0.00  0.00    +0.000 A 
ATOM     16  C   UNL     1       6.137   3.663  12.752  0.00  0.00    +0.000 A 
ATOM     17  C   UNL     1       7.310   4.411  12.817  0.00  0.00    +0.000 A 
ATOM     18  C   UNL     1       7.598   5.166  13.957  0.00  0.00    +0.000 A 
ATOM     19  C   UNL     1       6.721   5.156  15.042  0.00  0.00    +0.000 A 
ENDBRANCH  11  14
ENDBRANCH   8  10
BRANCH   1  20
ATOM     20  C   UNL     1       1.918   5.896  20.385  0.00  0.00    +0.000 C 
BRANCH  20  22
ATOM     21  N   UNL     1       1.069   8.195  20.512  0.00  0.00    +0.000 N 
ATOM     22  C   UNL     1       1.973   7.340  19.899  0.00  0.00    +0.000 C 
ATOM     23  O   UNL     1       2.767   7.634  19.004  0.00  0.00    +0.000 OA
ATOM     24  H   UNL     1       0.500   7.764  21.243  0.00  0.00    +0.000 HD
BRANCH  21  28
ATOM     25  C   UNL     1       0.716  12.416  19.924  0.00  0.00    +0.000 A 
ATOM     26  C   UNL     1       0.599  11.833  21.188  0.00  0.00    +0.000 A 
ATOM     27  C   UNL     1       0.718  10.455  21.392  0.00  0.00    +0.000 A 
ATOM     28  C   UNL     1       0.983   9.589  20.337  0.00  0.00    +0.000 A 
ATOM     29  C   UNL     1       1.147  10.140  19.063  0.00  0.00    +0.000 A 
ATOM     30  C   UNL     1       1.014  11.530  18.869  0.00  0.00    +0.000 A 
BRANCH  25  32
ATOM     31  C   UNL     1      -0.480  14.271  18.827  0.00  0.00    +0.000 C 
ATOM     32  N   UNL     1       0.563  13.790  19.733  0.00  0.00    +0.000 N 
ATOM     33  C   UNL     1       1.732  14.647  19.898  0.00  0.00    +0.000 C 
ENDBRANCH  25  32
ENDBRANCH  21  28
ENDBRANCH  20  22
ENDBRANCH   1  20
TORSDOF 6
ENDMDL
MODEL 8
REMARK VINA RESULT:      -7.5      5.197      8.271
REMARK  Name = 
REMARK  8 active torsions:
REMARK  status: ('A' for Active; 'I' for Inactive)
REMARK    1  A    between atoms: C_1  and  N_2
REMARK    2  A    between atoms: N_2  and  C_3
REMARK    3  A    between atoms: N_2  and  C_4
REMARK    4  A    between atoms: C_7  and  N_8
REMARK    5  A    between atoms: C_9  and  C_11
REMARK    6  A    between atoms: C_11  and  N_12
REMARK    7  A    between atoms: C_19  and  N_20
REMARK    8  A    between atoms: C_21  and  C_23
REMARK                            x       y       z     vdW  Elec       q    Type
REMARK                         _______ _______ _______ _____ _____    ______ ____
ROOT
ATOM      1  N   UNL     1       5.779   6.574  18.056  0.00  0.00    +0.000 NA
ATOM      2  C   UNL     1       5.312   5.286  18.594  0.00  0.00    +0.000 C 
ATOM      3  C   UNL     1       5.289   4.127  17.590  0.00  0.00    +0.000 C 
ATOM      4  C   UNL     1       4.964   4.465  16.141  0.00  0.00    +0.000 C 
ATOM      5  C   UNL     1       4.907   5.941  15.770  0.00  0.00    +0.000 C 
ATOM      6  C   UNL     1       4.904   6.943  16.933  0.00  0.00    +0.000 C 
ATOM      7  C   UNL     1       3.497   7.267  17.449  0.00  0.00    +0.000 C 
ATOM      8  C   UNL     1       2.961   6.407  18.603  0.00  0.00    +0.000 C 
ATOM      9  C   UNL     1       3.979   5.512  19.316  0.00  0.00    +0.000 C 
ENDROOT
BRANCH   8  10
ATOM     10  N   UNL     1       2.332   7.305  19.582  0.00  0.00    +0.000 N 
ATOM     11  C   UNL     1       1.640   8.448  19.234  0.00  0.00    +0.000 C 
ATOM     12  O   UNL     1       1.545   8.866  18.091  0.00  0.00    +0.000 OA
ATOM     13  H   UNL     1       2.096   6.890  20.473  0.00  0.00    +0.000 HD
BRANCH  11  14
ATOM     14  C   UNL     1       0.949   9.131  20.366  0.00  0.00    +0.000 A 
ATOM     15  C   UNL     1       1.142   8.720  21.693  0.00  0.00    +0.000 A 
ATOM     16  C   UNL     1       0.441   9.337  22.730  0.00  0.00    +0.000 A 
ATOM     17  C   UNL     1      -0.445  10.374  22.449  0.00  0.00    +0.000 A 
ATOM     18  C   UNL     1      -0.617  10.813  21.133  0.00  0.00    +0.000 A 
ATOM     19  C   UNL     1       0.083  10.199  20.095  0.00  0.00    +0.000 A 
ENDBRANCH  11  14
ENDBRANCH   8  10
BRANCH   1  20
ATOM     20  C   UNL     1       7.196   6.535  17.621  0.00  0.00    +0.000 C 
BRANCH  20  22
ATOM     21  N   UNL     1       7.951   8.867  17.725  0.00  0.00    +0.000 N 
ATOM     22  C   UNL     1       8.057   7.603  18.286  0.00  0.00    +0.000 C 
ATOM     23  O   UNL     1       8.785   7.277  19.225  0.00  0.00    +0.000 OA
ATOM     24  H   UNL     1       7.282   8.941  16.958  0.00  0.00    +0.000 HD
BRANCH  21  28
ATOM     25  C   UNL     1       9.845  12.419  19.168  0.00  0.00    +0.000 A 
ATOM     26  C   UNL     1       9.020  12.427  18.040  0.00  0.00    +0.000 A 
ATOM     27  C   UNL     1       8.392  11.272  17.564  0.00  0.00    +0.000 A 
ATOM     28  C   UNL     1       8.543  10.050  18.209  0.00  0.00    +0.000 A 
ATOM     29  C   UNL     1       9.328  10.011  19.364  0.00  0.00    +0.000 A 
ATOM     30  C   UNL     1       9.965  11.180  19.828  0.00  0.00    +0.000 A 
BRANCH  25  32
ATOM     31  C   UNL     1      10.398  13.942  21.025  0.00  0.00    +0.000 C 
ATOM     32  N   UNL     1      10.490  13.575  19.612  0.00  0.00    +0.000 N 
ATOM     33  C   UNL     1      10.690  14.666  18.665  0.00  0.00    +0.000 C 
ENDBRANCH  25  32
ENDBRANCH  21  28
ENDBRANCH  20  22
ENDBRANCH   1  20
TORSDOF 6
ENDMDL
MODEL 9
REMARK VINA RESULT:      -7.5      7.042     11.306
REMARK  Name = 
REMARK  8 active torsions:
REMARK  status: ('A' for Active; 'I' for Inactive)
REMARK    1  A    between atoms: C_1  and  N_2
REMARK    2  A    between atoms: N_2  and  C_3
REMARK    3  A    between atoms: N_2  and  C_4
REMARK    4  A    between atoms: C_7  and  N_8
REMARK    5  A    between atoms: C_9  and  C_11
REMARK    6  A    between atoms: C_11  and  N_12
REMARK    7  A    between atoms: C_19  and  N_20
REMARK    8  A    between atoms: C_21  and  C_23
REMARK                            x       y       z     vdW  Elec       q    Type
REMARK                         _______ _______ _______ _____ _____    ______ ____
ROOT
ATOM      1  N   UNL     1       9.296  11.318  18.838  0.00  0.00    +0.000 NA
ATOM      2  C   UNL     1       8.986  12.697  18.424  0.00  0.00    +0.000 C 
ATOM      3  C   UNL     1       9.903  13.276  17.341  0.00  0.00    +0.000 C 
ATOM      4  C   UNL     1      11.362  12.836  17.352  0.00  0.00    +0.000 C 
ATOM      5  C   UNL     1      11.735  11.698  18.292  0.00  0.00    +0.000 C 
ATOM      6  C   UNL     1      10.681  11.291  19.332  0.00  0.00    +0.000 C 
ATOM      7  C   UNL     1      10.786  12.083  20.640  0.00  0.00    +0.000 C 
ATOM      8  C   UNL     1       9.945  13.363  20.752  0.00  0.00    +0.000 C 
ATOM      9  C   UNL     1       8.872  13.569  19.679  0.00  0.00    +0.000 C 
ENDROOT
BRANCH   8  10
ATOM     10  N   UNL     1       9.313  13.375  22.079  0.00  0.00    +0.000 N 
ATOM     11  C   UNL     1       8.602  12.309  22.595  0.00  0.00    +0.000 C 
ATOM     12  O   UNL     1       8.363  11.286  21.974  0.00  0.00    +0.000 OA
ATOM     13  H   UNL     1       9.711  14.017  22.752  0.00  0.00    +0.000 HD
BRANCH  11  14
ATOM     14  C   UNL     1       8.178  12.467  24.015  0.00  0.00    +0.000 A 
ATOM     15  C   UNL     1       7.273  11.575  24.610  0.00  0.00    +0.000 A 
ATOM     16  C   UNL     1       6.847  11.777  25.924  0.00  0.00    +0.000 A 
ATOM     17  C   UNL     1       7.329  12.861  26.653  0.00  0.00    +0.000 A 
ATOM     18  C   UNL     1       8.258  13.735  26.079  0.00  0.00    +0.000 A 
ATOM     19  C   UNL     1       8.686  13.535  24.766  0.00  0.00    +0.000 A 
ENDBRANCH  11  14
ENDBRANCH   8  10
BRANCH   1  20
ATOM     20  C   UNL     1       9.116  10.335  17.742  0.00  0.00    +0.000 C 
BRANCH  20  22
ATOM     21  N   UNL     1       7.459   8.568  17.349  0.00  0.00    +0.000 N 
ATOM     22  C   UNL     1       8.447   9.044  18.199  0.00  0.00    +0.000 C 
ATOM     23  O   UNL     1       8.795   8.543  19.270  0.00  0.00    +0.000 OA
ATOM     24  H   UNL     1       7.324   9.118  16.500  0.00  0.00    +0.000 HD
BRANCH  21  28
ATOM     25  C   UNL     1       5.367   4.869  17.824  0.00  0.00    +0.000 A 
ATOM     26  C   UNL     1       4.733   6.022  17.355  0.00  0.00    +0.000 A 
ATOM     27  C   UNL     1       5.409   7.235  17.191  0.00  0.00    +0.000 A 
ATOM     28  C   UNL     1       6.766   7.348  17.470  0.00  0.00    +0.000 A 
ATOM     29  C   UNL     1       7.444   6.204  17.902  0.00  0.00    +0.000 A 
ATOM     30  C   UNL     1       6.749   4.991  18.074  0.00  0.00    +0.000 A 
BRANCH  25  32
ATOM     31  C   UNL     1       3.550   3.357  17.126  0.00  0.00    +0.000 C 
ATOM     32  N   UNL     1       4.670   3.674  18.012  0.00  0.00    +0.000 N 
ATOM     33  C   UNL     1       4.626   3.100  19.352  0.00  0.00    +0.000 C 
ENDBRANCH  25  32
ENDBRANCH  21  28
ENDBRANCH  20  22
ENDBRANCH   1  20
TORSDOF 6
ENDMDL
