MODEL 1
REMARK VINA RESULT:      -8.9      0.000      0.000
REMARK  Name = 
REMARK  5 active torsions:
REMARK  status: ('A' for Active; 'I' for Inactive)
REMARK    1  A    between atoms: C_1  and  C_2
REMARK    2  A    between atoms: C_6  and  C_8
REMARK    3  A    between atoms: C_11  and  C_12
REMARK    4  A    between atoms: C_16  and  C_17
REMARK    5  A    between atoms: C_19  and  O_20
REMARK                            x       y       z     vdW  Elec       q    Type
REMARK                         _______ _______ _______ _____ _____    ______ ____
ROOT
ATOM      1  C   UNL     1      -0.593  10.860  19.565  0.00  0.00    +0.000 A 
ATOM      2  C   UNL     1      -0.374   9.871  20.516  0.00  0.00    +0.000 A 
ATOM      3  C   UNL     1       0.682   8.976  20.361  0.00  0.00    +0.000 A 
ATOM      4  C   UNL     1       1.482   8.938  19.196  0.00  0.00    +0.000 A 
ATOM      5  C   UNL     1       1.266   9.955  18.255  0.00  0.00    +0.000 A 
ATOM      6  C   UNL     1       0.241  10.904  18.437  0.00  0.00    +0.000 A 
ENDROOT
BRANCH   4   7
ATOM      7  C   UNL     1       2.387   7.785  18.949  0.00  0.00    +0.000 A 
ATOM      8  C   UNL     1       2.261   6.638  19.722  0.00  0.00    +0.000 A 
ATOM      9  C   UNL     1       3.031   5.527  19.455  0.00  0.00    +0.000 A 
ATOM     10  C   UNL     1       3.833   5.490  18.312  0.00  0.00    +0.000 A 
ATOM     11  C   UNL     1       4.462   4.305  17.861  0.00  0.00    +0.000 A 
ATOM     12  C   UNL     1       5.212   4.319  16.681  0.00  0.00    +0.000 A 
ATOM     13  C   UNL     1       5.354   5.501  15.970  0.00  0.00    +0.000 A 
ATOM     14  C   UNL     1       4.730   6.670  16.425  0.00  0.00    +0.000 A 
ATOM     15  C   UNL     1       3.936   6.692  17.571  0.00  0.00    +0.000 A 
ATOM     16  N   UNL     1       3.253   7.820  17.903  0.00  0.00    +0.000 NA
BRANCH  11  17
ATOM     17  C   UNL     1       4.248   3.015  18.555  0.00  0.00    +0.000 C 
ATOM     18  O   UNL     1       3.698   2.076  17.989  0.00  0.00    +0.000 OA
ENDBRANCH  11  17
BRANCH  12  19
ATOM     19  O   UNL     1       5.794   3.204  16.148  0.00  0.00    +0.000 OA
ATOM     20  H   UNL     1       5.092   2.657  15.724  0.00  0.00    +0.000 HD
ENDBRANCH  12  19
ENDBRANCH   4   7
BRANCH   1  26
ATOM     21  C   UNL     1      -4.309  12.427  24.585  0.00  0.00    +0.000 C 
ATOM     22  C   UNL     1      -3.465  12.888  23.398  0.00  0.00    +0.000 C 
ATOM     23  C   UNL     1      -4.272  12.816  22.091  0.00  0.00    +0.000 C 
ATOM     24  C   UNL     1      -3.416  13.122  20.860  0.00  0.00    +0.000 C 
ATOM     25  N   UNL     1      -2.190  12.322  20.850  0.00  0.00    +0.000 N 
ATOM     26  C   UNL     1      -1.778  11.763  19.636  0.00  0.00    +0.000 C 
ATOM     27  O   UNL     1      -2.391  11.946  18.585  0.00  0.00    +0.000 OA
ATOM     28  C   UNL     1      -1.375  12.480  22.054  0.00  0.00    +0.000 C 
ATOM     29  C   UNL     1      -2.178  12.056  23.283  0.00  0.00    +0.000 C 
ENDBRANCH   1  26
TORSDOF 4
ENDMDL
MODEL 2
REMARK VINA RESULT:      -8.5      1.154      2.149
REMARK  Name = 
REMARK  5 active torsions:
REMARK  status: ('A' for Active; 'I' for Inactive)
REMARK    1  A    between atoms: C_1  and  C_2
REMARK    2  A    between atoms: C_6  and  C_8
REMARK    3  A    between atoms: C_11  and  C_12
REMARK    4  A    between atoms: C_16  and  C_17
REMARK    5  A    between atoms: C_19  and  O_20
REMARK                            x       y       z     vdW  Elec       q    Type
REMARK                         _______ _______ _______ _____ _____    ______ ____
ROOT
ATOM      1  C   UNL     1      -0.380  10.983  19.692  0.00  0.00    +0.000 A 
ATOM      2  C   UNL     1      -0.221  10.004  20.664  0.00  0.00    +0.000 A 
ATOM      3  C   UNL     1       0.705   8.979  20.478  0.00  0.00    +0.000 A 
ATOM      4  C   UNL     1       1.414   8.807  19.266  0.00  0.00    +0.000 A 
ATOM      5  C   UNL     1       1.262   9.814  18.303  0.00  0.00    +0.000 A 
ATOM      6  C   UNL     1       0.376  10.889  18.513  0.00  0.00    +0.000 A 
ENDROOT
BRANCH   4   7
ATOM      7  C   UNL     1       2.153   7.543  19.007  0.00  0.00    +0.000 A 
ATOM      8  C   UNL     1       3.207   7.539  18.103  0.00  0.00    +0.000 A 
ATOM      9  C   UNL     1       3.959   6.400  17.911  0.00  0.00    +0.000 A 
ATOM     10  C   UNL     1       3.767   5.289  18.736  0.00  0.00    +0.000 A 
ATOM     11  C   UNL     1       4.654   4.186  18.744  0.00  0.00    +0.000 A 
ATOM     12  C   UNL     1       4.438   3.124  19.628  0.00  0.00    +0.000 A 
ATOM     13  C   UNL     1       3.341   3.147  20.477  0.00  0.00    +0.000 A 
ATOM     14  C   UNL     1       2.468   4.242  20.460  0.00  0.00    +0.000 A 
ATOM     15  C   UNL     1       2.670   5.343  19.628  0.00  0.00    +0.000 A 
ATOM     16  N   UNL     1       1.864   6.433  19.736  0.00  0.00    +0.000 NA
BRANCH  11  17
ATOM     17  C   UNL     1       5.879   4.183  17.913  0.00  0.00    +0.000 C 
ATOM     18  O   UNL     1       6.979   4.405  18.406  0.00  0.00    +0.000 OA
ENDBRANCH  11  17
BRANCH  12  19
ATOM     19  O   UNL     1       5.283   2.057  19.741  0.00  0.00    +0.000 OA
ATOM     20  H   UNL     1       4.826   1.257  19.391  0.00  0.00    +0.000 HD
ENDBRANCH  12  19
ENDBRANCH   4   7
BRANCH   1  26
ATOM     21  C   UNL     1      -4.357  12.348  24.569  0.00  0.00    +0.000 C 
ATOM     22  C   UNL     1      -3.342  12.845  23.541  0.00  0.00    +0.000 C 
ATOM     23  C   UNL     1      -4.012  13.075  22.177  0.00  0.00    +0.000 C 
ATOM     24  C   UNL     1      -3.001  13.425  21.082  0.00  0.00    +0.000 C 
ATOM     25  N   UNL     1      -1.896  12.465  21.051  0.00  0.00    +0.000 N 
ATOM     26  C   UNL     1      -1.437  12.029  19.803  0.00  0.00    +0.000 C 
ATOM     27  O   UNL     1      -1.910  12.445  18.746  0.00  0.00    +0.000 OA
ATOM     28  C   UNL     1      -1.195  12.332  22.328  0.00  0.00    +0.000 C 
ATOM     29  C   UNL     1      -2.170  11.860  23.406  0.00  0.00    +0.000 C 
ENDBRANCH   1  26
TORSDOF 4
ENDMDL
MODEL 3
REMARK VINA RESULT:      -8.3      1.912      3.053
REMARK  Name = 
REMARK  5 active torsions:
REMARK  status: ('A' for Active; 'I' for Inactive)
REMARK    1  A    between atoms: C_1  and  C_2
REMARK    2  A    between atoms: C_6  and  C_8
REMARK    3  A    between atoms: C_11  and  C_12
REMARK    4  A    between atoms: C_16  and  C_17
REMARK    5  A    between atoms: C_19  and  O_20
REMARK                            x       y       z     vdW  Elec       q    Type
REMARK                         _______ _______ _______ _____ _____    ______ ____
ROOT
ATOM      1  C   UNL     1       0.241  11.194  21.401  0.00  0.00    +0.000 A 
ATOM      2  C   UNL     1       0.492  10.946  20.057  0.00  0.00    +0.000 A 
ATOM      3  C   UNL     1       0.843   9.665  19.637  0.00  0.00    +0.000 A 
ATOM      4  C   UNL     1       1.091   8.609  20.545  0.00  0.00    +0.000 A 
ATOM      5  C   UNL     1       0.812   8.866  21.895  0.00  0.00    +0.000 A 
ATOM      6  C   UNL     1       0.392  10.143  22.318  0.00  0.00    +0.000 A 
ENDROOT
BRANCH   4   7
ATOM      7  C   UNL     1       1.749   7.361  20.077  0.00  0.00    +0.000 A 
ATOM      8  C   UNL     1       2.663   7.420  19.033  0.00  0.00    +0.000 A 
ATOM      9  C   UNL     1       3.348   6.291  18.639  0.00  0.00    +0.000 A 
ATOM     10  C   UNL     1       3.245   5.115  19.386  0.00  0.00    +0.000 A 
ATOM     11  C   UNL     1       4.092   4.002  19.174  0.00  0.00    +0.000 A 
ATOM     12  C   UNL     1       3.975   2.869  19.986  0.00  0.00    +0.000 A 
ATOM     13  C   UNL     1       3.011   2.836  20.983  0.00  0.00    +0.000 A 
ATOM     14  C   UNL     1       2.176   3.942  21.186  0.00  0.00    +0.000 A 
ATOM     15  C   UNL     1       2.288   5.107  20.429  0.00  0.00    +0.000 A 
ATOM     16  N   UNL     1       1.536   6.197  20.744  0.00  0.00    +0.000 NA
BRANCH  11  17
ATOM     17  C   UNL     1       5.185   4.053  18.176  0.00  0.00    +0.000 C 
ATOM     18  O   UNL     1       6.345   4.256  18.519  0.00  0.00    +0.000 OA
ENDBRANCH  11  17
BRANCH  12  19
ATOM     19  O   UNL     1       4.797   1.784  19.885  0.00  0.00    +0.000 OA
ATOM     20  H   UNL     1       4.966   1.434  20.791  0.00  0.00    +0.000 HD
ENDBRANCH  12  19
ENDBRANCH   4   7
BRANCH   1  26
ATOM     21  C   UNL     1      -5.351  14.246  22.339  0.00  0.00    +0.000 C 
ATOM     22  C   UNL     1      -3.991  13.824  22.894  0.00  0.00    +0.000 C 
ATOM     23  C   UNL     1      -2.888  14.786  22.428  0.00  0.00    +0.000 C 
ATOM     24  C   UNL     1      -1.490  14.311  22.834  0.00  0.00    +0.000 C 
ATOM     25  N   UNL     1      -1.269  12.916  22.449  0.00  0.00    +0.000 N 
ATOM     26  C   UNL     1      -0.027  12.572  21.903  0.00  0.00    +0.000 C 
ATOM     27  O   UNL     1       0.882  13.391  21.768  0.00  0.00    +0.000 OA
ATOM     28  C   UNL     1      -2.267  11.991  22.985  0.00  0.00    +0.000 C 
ATOM     29  C   UNL     1      -3.656  12.381  22.484  0.00  0.00    +0.000 C 
ENDBRANCH   1  26
TORSDOF 4
ENDMDL
MODEL 4
REMARK VINA RESULT:      -8.3      7.105     10.823
REMARK  Name = 
REMARK  5 active torsions:
REMARK  status: ('A' for Active; 'I' for Inactive)
REMARK    1  A    between atoms: C_1  and  C_2
REMARK    2  A    between atoms: C_6  and  C_8
REMARK    3  A    between atoms: C_11  and  C_12
REMARK    4  A    between atoms: C_16  and  C_17
REMARK    5  A    between atoms: C_19  and  O_20
REMARK                            x       y       z     vdW  Elec       q    Type
REMARK                         _______ _______ _______ _____ _____    ______ ____
ROOT
ATOM      1  C   UNL     1       7.310   6.623  17.707  0.00  0.00    +0.000 A 
ATOM      2  C   UNL     1       8.180   6.662  18.789  0.00  0.00    +0.000 A 
ATOM      3  C   UNL     1       8.691   7.881  19.230  0.00  0.00    +0.000 A 
ATOM      4  C   UNL     1       8.469   9.094  18.537  0.00  0.00    +0.000 A 
ATOM      5  C   UNL     1       7.571   9.044  17.461  0.00  0.00    +0.000 A 
ATOM      6  C   UNL     1       6.999   7.824  17.051  0.00  0.00    +0.000 A 
ENDROOT
BRANCH   4   7
ATOM      7  C   UNL     1       9.273  10.300  18.867  0.00  0.00    +0.000 A 
ATOM      8  C   UNL     1      10.041  10.902  17.880  0.00  0.00    +0.000 A 
ATOM      9  C   UNL     1      10.726  12.069  18.142  0.00  0.00    +0.000 A 
ATOM     10  C   UNL     1      10.530  12.738  19.352  0.00  0.00    +0.000 A 
ATOM     11  C   UNL     1      11.017  14.046  19.586  0.00  0.00    +0.000 A 
ATOM     12  C   UNL     1      10.746  14.685  20.800  0.00  0.00    +0.000 A 
ATOM     13  C   UNL     1      10.019  14.023  21.778  0.00  0.00    +0.000 A 
ATOM     14  C   UNL     1       9.541  12.729  21.538  0.00  0.00    +0.000 A 
ATOM     15  C   UNL     1       9.749  12.071  20.326  0.00  0.00    +0.000 A 
ATOM     16  N   UNL     1       9.162  10.865  20.098  0.00  0.00    +0.000 NA
BRANCH  11  17
ATOM     17  C   UNL     1      11.716  14.803  18.523  0.00  0.00    +0.000 C 
ATOM     18  O   UNL     1      11.245  15.841  18.071  0.00  0.00    +0.000 OA
ENDBRANCH  11  17
BRANCH  12  19
ATOM     19  O   UNL     1      11.126  15.968  21.075  0.00  0.00    +0.000 OA
ATOM     20  H   UNL     1      10.317  16.525  21.148  0.00  0.00    +0.000 HD
ENDBRANCH  12  19
ENDBRANCH   4   7
BRANCH   1  26
ATOM     21  C   UNL     1       1.699   3.566  18.509  0.00  0.00    +0.000 C 
ATOM     22  C   UNL     1       2.756   4.115  17.551  0.00  0.00    +0.000 C 
ATOM     23  C   UNL     1       3.926   3.129  17.404  0.00  0.00    +0.000 C 
ATOM     24  C   UNL     1       5.075   3.709  16.575  0.00  0.00    +0.000 C 
ATOM     25  N   UNL     1       5.467   5.034  17.059  0.00  0.00    +0.000 N 
ATOM     26  C   UNL     1       6.832   5.331  17.136  0.00  0.00    +0.000 C 
ATOM     27  O   UNL     1       7.700   4.532  16.785  0.00  0.00    +0.000 OA
ATOM     28  C   UNL     1       4.366   5.997  17.095  0.00  0.00    +0.000 C 
ATOM     29  C   UNL     1       3.263   5.487  18.021  0.00  0.00    +0.000 C 
ENDBRANCH   1  26
TORSDOF 4
ENDMDL
MODEL 5
REMARK VINA RESULT:      -8.3      1.797     10.221
REMARK  Name = 
REMARK  5 active torsions:
REMARK  status: ('A' for Active; 'I' for Inactive)
REMARK    1  A    between atoms: C_1  and  C_2
REMARK    2  A    between atoms: C_6  and  C_8
REMARK    3  A    between atoms: C_11  and  C_12
REMARK    4  A    between atoms: C_16  and  C_17
REMARK    5  A    between atoms: C_19  and  O_20
REMARK                            x       y       z     vdW  Elec       q    Type
REMARK                         _______ _______ _______ _____ _____    ______ ____
ROOT
ATOM      1  C   UNL     1       2.631   6.385  18.736  0.00  0.00    +0.000 A 
ATOM      2  C   UNL     1       2.375   7.456  17.889  0.00  0.00    +0.000 A 
ATOM      3  C   UNL     1       1.794   8.619  18.391  0.00  0.00    +0.000 A 
ATOM      4  C   UNL     1       1.322   8.720  19.720  0.00  0.00    +0.000 A 
ATOM      5  C   UNL     1       1.608   7.642  20.570  0.00  0.00    +0.000 A 
ATOM      6  C   UNL     1       2.254   6.488  20.083  0.00  0.00    +0.000 A 
ENDROOT
BRANCH   4   7
ATOM      7  C   UNL     1       0.448   9.855  20.117  0.00  0.00    +0.000 A 
ATOM      8  C   UNL     1      -0.151  10.634  19.136  0.00  0.00    +0.000 A 
ATOM      9  C   UNL     1      -1.031  11.637  19.479  0.00  0.00    +0.000 A 
ATOM     10  C   UNL     1      -1.447  11.778  20.805  0.00  0.00    +0.000 A 
ATOM     11  C   UNL     1      -2.514  12.627  21.182  0.00  0.00    +0.000 A 
ATOM     12  C   UNL     1      -2.919  12.689  22.519  0.00  0.00    +0.000 A 
ATOM     13  C   UNL     1      -2.256  11.932  23.474  0.00  0.00    +0.000 A 
ATOM     14  C   UNL     1      -1.200  11.095  23.092  0.00  0.00    +0.000 A 
ATOM     15  C   UNL     1      -0.793  10.968  21.765  0.00  0.00    +0.000 A 
ATOM     16  N   UNL     1       0.155  10.052  21.429  0.00  0.00    +0.000 NA
BRANCH  11  17
ATOM     17  C   UNL     1      -3.292  13.373  20.167  0.00  0.00    +0.000 C 
ATOM     18  O   UNL     1      -4.514  13.276  20.109  0.00  0.00    +0.000 OA
ENDBRANCH  11  17
BRANCH  12  19
ATOM     19  O   UNL     1      -3.980  13.434  22.949  0.00  0.00    +0.000 OA
ATOM     20  H   UNL     1      -3.863  13.619  23.911  0.00  0.00    +0.000 HD
ENDBRANCH  12  19
ENDBRANCH   4   7
BRANCH   1  26
ATOM     21  C   UNL     1       7.197   5.193  14.354  0.00  0.00    +0.000 C 
ATOM     22  C   UNL     1       6.631   4.925  15.748  0.00  0.00    +0.000 C 
ATOM     23  C   UNL     1       5.499   3.887  15.689  0.00  0.00    +0.000 C 
ATOM     24  C   UNL     1       4.803   3.706  17.040  0.00  0.00    +0.000 C 
ATOM     25  N   UNL     1       4.404   4.994  17.611  0.00  0.00    +0.000 N 
ATOM     26  C   UNL     1       3.146   5.085  18.216  0.00  0.00    +0.000 C 
ATOM     27  O   UNL     1       2.388   4.120  18.308  0.00  0.00    +0.000 OA
ATOM     28  C   UNL     1       5.510   5.939  17.762  0.00  0.00    +0.000 C 
ATOM     29  C   UNL     1       6.135   6.226  16.398  0.00  0.00    +0.000 C 
ENDBRANCH   1  26
TORSDOF 4
ENDMDL
MODEL 6
REMARK VINA RESULT:      -8.3      1.483      2.437
REMARK  Name = 
REMARK  5 active torsions:
REMARK  status: ('A' for Active; 'I' for Inactive)
REMARK    1  A    between atoms: C_1  and  C_2
REMARK    2  A    between atoms: C_6  and  C_8
REMARK    3  A    between atoms: C_11  and  C_12
REMARK    4  A    between atoms: C_16  and  C_17
REMARK    5  A    between atoms: C_19  and  O_20
REMARK                            x       y       z     vdW  Elec       q    Type
REMARK                         _______ _______ _______ _____ _____    ______ ____
ROOT
ATOM      1  C   UNL     1       0.326  11.824  18.893  0.00  0.00    +0.000 A 
ATOM      2  C   UNL     1       1.693  11.779  18.652  0.00  0.00    +0.000 A 
ATOM      3  C   UNL     1       2.297  10.579  18.278  0.00  0.00    +0.000 A 
ATOM      4  C   UNL     1       1.596   9.350  18.259  0.00  0.00    +0.000 A 
ATOM      5  C   UNL     1       0.213   9.414  18.481  0.00  0.00    +0.000 A 
ATOM      6  C   UNL     1      -0.414  10.636  18.795  0.00  0.00    +0.000 A 
ENDROOT
BRANCH   4   7
ATOM      7  C   UNL     1       2.342   8.069  18.151  0.00  0.00    +0.000 A 
ATOM      8  C   UNL     1       3.486   8.006  17.366  0.00  0.00    +0.000 A 
ATOM      9  C   UNL     1       4.239   6.853  17.319  0.00  0.00    +0.000 A 
ATOM     10  C   UNL     1       3.948   5.792  18.180  0.00  0.00    +0.000 A 
ATOM     11  C   UNL     1       4.815   4.686  18.345  0.00  0.00    +0.000 A 
ATOM     12  C   UNL     1       4.493   3.678  19.259  0.00  0.00    +0.000 A 
ATOM     13  C   UNL     1       3.314   3.757  19.984  0.00  0.00    +0.000 A 
ATOM     14  C   UNL     1       2.461   4.855  19.813  0.00  0.00    +0.000 A 
ATOM     15  C   UNL     1       2.763   5.905  18.947  0.00  0.00    +0.000 A 
ATOM     16  N   UNL     1       1.964   7.005  18.907  0.00  0.00    +0.000 NA
BRANCH  11  17
ATOM     17  C   UNL     1       6.120   4.628  17.649  0.00  0.00    +0.000 C 
ATOM     18  O   UNL     1       7.164   4.472  18.273  0.00  0.00    +0.000 OA
ENDBRANCH  11  17
BRANCH  12  19
ATOM     19  O   UNL     1       5.309   2.613  19.520  0.00  0.00    +0.000 OA
ATOM     20  H   UNL     1       5.703   2.734  20.416  0.00  0.00    +0.000 HD
ENDBRANCH  12  19
ENDBRANCH   4   7
BRANCH   1  26
ATOM     21  C   UNL     1      -3.642  12.630  23.900  0.00  0.00    +0.000 C 
ATOM     22  C   UNL     1      -2.385  13.072  23.153  0.00  0.00    +0.000 C 
ATOM     23  C   UNL     1      -2.741  14.008  21.987  0.00  0.00    +0.000 C 
ATOM     24  C   UNL     1      -1.525  14.349  21.122  0.00  0.00    +0.000 C 
ATOM     25  N   UNL     1      -0.801  13.141  20.720  0.00  0.00    +0.000 N 
ATOM     26  C   UNL     1      -0.337  13.059  19.402  0.00  0.00    +0.000 C 
ATOM     27  O   UNL     1      -0.491  13.973  18.592  0.00  0.00    +0.000 OA
ATOM     28  C   UNL     1      -0.373  12.309  21.844  0.00  0.00    +0.000 C 
ATOM     29  C   UNL     1      -1.592  11.857  22.647  0.00  0.00    +0.000 C 
ENDBRANCH   1  26
TORSDOF 4
ENDMDL
MODEL 7
REMARK VINA RESULT:      -8.2      2.342     10.081
REMARK  Name = 
REMARK  5 active torsions:
REMARK  status: ('A' for Active; 'I' for Inactive)
REMARK    1  A    between atoms: C_1  and  C_2
REMARK    2  A    between atoms: C_6  and  C_8
REMARK    3  A    between atoms: C_11  and  C_12
REMARK    4  A    between atoms: C_16  and  C_17
REMARK    5  A    between atoms: C_19  and  O_20
REMARK                            x       y       z     vdW  Elec       q    Type
REMARK                         _______ _______ _______ _____ _____    ______ ____
ROOT
ATOM      1  C   UNL     1       2.448   6.526  18.683  0.00  0.00    +0.000 A 
ATOM      2  C   UNL     1       2.265   7.662  17.904  0.00  0.00    +0.000 A 
ATOM      3  C   UNL     1       1.812   8.844  18.489  0.00  0.00    +0.000 A 
ATOM      4  C   UNL     1       1.395   8.912  19.838  0.00  0.00    +0.000 A 
ATOM      5  C   UNL     1       1.606   7.766  20.618  0.00  0.00    +0.000 A 
ATOM      6  C   UNL     1       2.126   6.588  20.047  0.00  0.00    +0.000 A 
ENDROOT
BRANCH   4   7
ATOM      7  C   UNL     1       0.644  10.099  20.327  0.00  0.00    +0.000 A 
ATOM      8  C   UNL     1       0.166  10.116  21.631  0.00  0.00    +0.000 A 
ATOM      9  C   UNL     1      -0.458  11.239  22.132  0.00  0.00    +0.000 A 
ATOM     10  C   UNL     1      -0.476  12.420  21.386  0.00  0.00    +0.000 A 
ATOM     11  C   UNL     1      -0.889  13.658  21.932  0.00  0.00    +0.000 A 
ATOM     12  C   UNL     1      -0.838  14.817  21.150  0.00  0.00    +0.000 A 
ATOM     13  C   UNL     1      -0.403  14.741  19.836  0.00  0.00    +0.000 A 
ATOM     14  C   UNL     1       0.004  13.511  19.304  0.00  0.00    +0.000 A 
ATOM     15  C   UNL     1       0.012  12.339  20.059  0.00  0.00    +0.000 A 
ATOM     16  N   UNL     1       0.529  11.196  19.535  0.00  0.00    +0.000 NA
BRANCH  11  17
ATOM     17  C   UNL     1      -1.270  13.776  23.357  0.00  0.00    +0.000 C 
ATOM     18  O   UNL     1      -0.766  14.629  24.079  0.00  0.00    +0.000 OA
ENDBRANCH  11  17
BRANCH  12  19
ATOM     19  O   UNL     1      -1.159  16.057  21.625  0.00  0.00    +0.000 OA
ATOM     20  H   UNL     1      -1.813  15.953  22.354  0.00  0.00    +0.000 HD
ENDBRANCH  12  19
ENDBRANCH   4   7
BRANCH   1  26
ATOM     21  C   UNL     1       7.199   5.064  14.590  0.00  0.00    +0.000 C 
ATOM     22  C   UNL     1       6.470   4.760  15.898  0.00  0.00    +0.000 C 
ATOM     23  C   UNL     1       5.214   3.912  15.640  0.00  0.00    +0.000 C 
ATOM     24  C   UNL     1       4.373   3.717  16.904  0.00  0.00    +0.000 C 
ATOM     25  N   UNL     1       4.107   4.993  17.570  0.00  0.00    +0.000 N 
ATOM     26  C   UNL     1       2.822   5.216  18.077  0.00  0.00    +0.000 C 
ATOM     27  O   UNL     1       1.930   4.371  18.006  0.00  0.00    +0.000 OA
ATOM     28  C   UNL     1       5.315   5.745  17.907  0.00  0.00    +0.000 C 
ATOM     29  C   UNL     1       6.103   6.057  16.635  0.00  0.00    +0.000 C 
ENDBRANCH   1  26
TORSDOF 4
ENDMDL
MODEL 8
REMARK VINA RESULT:      -8.1      1.986      9.857
REMARK  Name = 
REMARK  5 active torsions:
REMARK  status: ('A' for Active; 'I' for Inactive)
REMARK    1  A    between atoms: C_1  and  C_2
REMARK    2  A    between atoms: C_6  and  C_8
REMARK    3  A    between atoms: C_11  and  C_12
REMARK    4  A    between atoms: C_16  and  C_17
REMARK    5  A    between atoms: C_19  and  O_20
REMARK                            x       y       z     vdW  Elec       q    Type
REMARK                         _______ _______ _______ _____ _____    ______ ____
ROOT
ATOM      1  C   UNL     1       2.703   7.743  18.412  0.00  0.00    +0.000 A 
ATOM      2  C   UNL     1       2.324   8.846  17.657  0.00  0.00    +0.000 A 
ATOM      3  C   UNL     1       1.504   9.825  18.213  0.00  0.00    +0.000 A 
ATOM      4  C   UNL     1       0.917   9.687  19.493  0.00  0.00    +0.000 A 
ATOM      5  C   UNL     1       1.326   8.582  20.254  0.00  0.00    +0.000 A 
ATOM      6  C   UNL     1       2.208   7.622  19.720  0.00  0.00    +0.000 A 
ENDROOT
BRANCH   4   7
ATOM      7  C   UNL     1      -0.178  10.601  19.914  0.00  0.00    +0.000 A 
ATOM      8  C   UNL     1      -1.076  11.075  18.967  0.00  0.00    +0.000 A 
ATOM      9  C   UNL     1      -2.147  11.854  19.348  0.00  0.00    +0.000 A 
ATOM     10  C   UNL     1      -2.426  12.043  20.704  0.00  0.00    +0.000 A 
ATOM     11  C   UNL     1      -3.631  12.631  21.157  0.00  0.00    +0.000 A 
ATOM     12  C   UNL     1      -3.876  12.749  22.529  0.00  0.00    +0.000 A 
ATOM     13  C   UNL     1      -2.926  12.309  23.438  0.00  0.00    +0.000 A 
ATOM     14  C   UNL     1      -1.736  11.730  22.980  0.00  0.00    +0.000 A 
ATOM     15  C   UNL     1      -1.469  11.551  21.623  0.00  0.00    +0.000 A 
ATOM     16  N   UNL     1      -0.356  10.874  21.233  0.00  0.00    +0.000 NA
BRANCH  11  17
ATOM     17  C   UNL     1      -4.695  13.023  20.207  0.00  0.00    +0.000 C 
ATOM     18  O   UNL     1      -5.819  12.536  20.278  0.00  0.00    +0.000 OA
ENDBRANCH  11  17
BRANCH  12  19
ATOM     19  O   UNL     1      -5.040  13.245  23.044  0.00  0.00    +0.000 OA
ATOM     20  H   UNL     1      -5.723  12.535  23.013  0.00  0.00    +0.000 HD
ENDBRANCH  12  19
ENDBRANCH   4   7
BRANCH   1  26
ATOM     21  C   UNL     1       2.099   1.385  19.232  0.00  0.00    +0.000 C 
ATOM     22  C   UNL     1       2.212   2.567  18.271  0.00  0.00    +0.000 C 
ATOM     23  C   UNL     1       3.680   2.980  18.080  0.00  0.00    +0.000 C 
ATOM     24  C   UNL     1       3.822   4.257  17.247  0.00  0.00    +0.000 C 
ATOM     25  N   UNL     1       2.961   5.325  17.757  0.00  0.00    +0.000 N 
ATOM     26  C   UNL     1       3.485   6.621  17.818  0.00  0.00    +0.000 C 
ATOM     27  O   UNL     1       4.623   6.890  17.434  0.00  0.00    +0.000 OA
ATOM     28  C   UNL     1       1.548   4.957  17.834  0.00  0.00    +0.000 C 
ATOM     29  C   UNL     1       1.376   3.758  18.766  0.00  0.00    +0.000 C 
ENDBRANCH   1  26
TORSDOF 4
ENDMDL
MODEL 9
REMARK VINA RESULT:      -8.1      1.053      1.334
REMARK  Name = 
REMARK  5 active torsions:
REMARK  status: ('A' for Active; 'I' for Inactive)
REMARK    1  A    between atoms: C_1  and  C_2
REMARK    2  A    between atoms: C_6  and  C_8
REMARK    3  A    between atoms: C_11  and  C_12
REMARK    4  A    between atoms: C_16  and  C_17
REMARK    5  A    between atoms: C_19  and  O_20
REMARK                            x       y       z     vdW  Elec       q    Type
REMARK                         _______ _______ _______ _____ _____    ______ ____
ROOT
ATOM      1  C   UNL     1       0.064  11.710  19.265  0.00  0.00    +0.000 A 
ATOM      2  C   UNL     1       1.315  11.770  18.664  0.00  0.00    +0.000 A 
ATOM      3  C   UNL     1       1.991  10.595  18.341  0.00  0.00    +0.000 A 
ATOM      4  C   UNL     1       1.518   9.317  18.722  0.00  0.00    +0.000 A 
ATOM      5  C   UNL     1       0.245   9.269  19.307  0.00  0.00    +0.000 A 
ATOM      6  C   UNL     1      -0.473  10.452  19.575  0.00  0.00    +0.000 A 
ENDROOT
BRANCH   4   7
ATOM      7  C   UNL     1       2.411   8.132  18.625  0.00  0.00    +0.000 A 
ATOM      8  C   UNL     1       2.265   7.089  19.530  0.00  0.00    +0.000 A 
ATOM      9  C   UNL     1       3.023   5.945  19.407  0.00  0.00    +0.000 A 
ATOM     10  C   UNL     1       3.832   5.760  18.283  0.00  0.00    +0.000 A 
ATOM     11  C   UNL     1       4.448   4.522  17.985  0.00  0.00    +0.000 A 
ATOM     12  C   UNL     1       5.207   4.383  16.818  0.00  0.00    +0.000 A 
ATOM     13  C   UNL     1       5.369   5.468  15.970  0.00  0.00    +0.000 A 
ATOM     14  C   UNL     1       4.756   6.691  16.274  0.00  0.00    +0.000 A 
ATOM     15  C   UNL     1       3.955   6.861  17.402  0.00  0.00    +0.000 A 
ATOM     16  N   UNL     1       3.284   8.030  17.589  0.00  0.00    +0.000 NA
BRANCH  11  17
ATOM     17  C   UNL     1       4.214   3.328  18.829  0.00  0.00    +0.000 C 
ATOM     18  O   UNL     1       5.077   2.916  19.596  0.00  0.00    +0.000 OA
ENDBRANCH  11  17
BRANCH  12  19
ATOM     19  O   UNL     1       5.778   3.205  16.430  0.00  0.00    +0.000 OA
ATOM     20  H   UNL     1       5.968   2.669  17.235  0.00  0.00    +0.000 HD
ENDBRANCH  12  19
ENDBRANCH   4   7
BRANCH   1  26
ATOM     21  C   UNL     1      -3.941  12.573  24.233  0.00  0.00    +0.000 C 
ATOM     22  C   UNL     1      -2.697  13.028  23.472  0.00  0.00    +0.000 C 
ATOM     23  C   UNL     1      -3.080  13.907  22.271  0.00  0.00    +0.000 C 
ATOM     24  C   UNL     1      -1.874  14.255  21.395  0.00  0.00    +0.000 C 
ATOM     25  N   UNL     1      -1.110  13.057  21.040  0.00  0.00    +0.000 N 
ATOM     26  C   UNL     1      -0.639  12.941  19.727  0.00  0.00    +0.000 C 
ATOM     27  O   UNL     1      -0.821  13.818  18.883  0.00  0.00    +0.000 OA
ATOM     28  C   UNL     1      -0.658  12.283  22.195  0.00  0.00    +0.000 C 
ATOM     29  C   UNL     1      -1.864  11.821  23.013  0.00  0.00    +0.000 C 
ENDBRANCH   1  26
TORSDOF 4
ENDMDL
