MODEL 1
REMARK VINA RESULT:      -7.8      0.000      0.000
REMARK  Name = 
REMARK  6 active torsions:
REMARK  status: ('A' for Active; 'I' for Inactive)
REMARK    1  A    between atoms: C_1  and  N_2
REMARK    2  A    between atoms: N_2  and  C_3
REMARK    3  A    between atoms: C_3  and  C_4
REMARK    4  A    between atoms: C_4  and  O_5
REMARK    5  A    between atoms: O_5  and  C_6
REMARK    6  A    between atoms: C_8  and  C_9
REMARK                            x       y       z     vdW  Elec       q    Type
REMARK                         _______ _______ _______ _____ _____    ______ ____
ROOT
ATOM      1  C   UNL     1       2.900   6.053  19.758  0.00  0.00    +0.000 A 
ATOM      2  N   UNL     1       3.819   5.530  18.921  0.00  0.00    +0.000 NA
ATOM      3  C   UNL     1       4.177   6.224  17.828  0.00  0.00    +0.000 A 
ATOM      4  N   UNL     1       3.668   7.403  17.455  0.00  0.00    +0.000 NA
ATOM      5  C   UNL     1       2.745   7.882  18.304  0.00  0.00    +0.000 A 
ATOM      6  S   UNL     1       1.998   9.380  17.997  0.00  0.00    +0.000 S 
ATOM      7  C   UNL     1       1.099   9.291  19.433  0.00  0.00    +0.000 A 
ATOM      8  C   UNL     1       1.342   8.132  20.149  0.00  0.00    +0.000 A 
ATOM      9  C   UNL     1       2.304   7.289  19.478  0.00  0.00    +0.000 A 
ATOM     10  C   UNL     1       0.685   7.885  21.481  0.00  0.00    +0.000 C 
ATOM     11  C   UNL     1      -0.530   8.803  21.701  0.00  0.00    +0.000 C 
ATOM     12  C   UNL     1      -0.226  10.255  21.309  0.00  0.00    +0.000 C 
ATOM     13  C   UNL     1       0.139  10.372  19.823  0.00  0.00    +0.000 C 
ENDROOT
BRANCH   3  14
ATOM     14  C   UNL     1       5.263   5.660  17.004  0.00  0.00    +0.000 A 
ATOM     15  C   UNL     1       5.222   5.702  15.601  0.00  0.00    +0.000 A 
ATOM     16  C   UNL     1       6.252   5.131  14.869  0.00  0.00    +0.000 A 
ATOM     17  N   UNL     1       7.319   4.525  15.427  0.00  0.00    +0.000 NA
ATOM     18  C   UNL     1       7.355   4.489  16.773  0.00  0.00    +0.000 A 
ATOM     19  C   UNL     1       6.375   5.032  17.586  0.00  0.00    +0.000 A 
ENDBRANCH   3  14
BRANCH   1  20
ATOM     20  O   UNL     1       2.552   5.331  20.885  0.00  0.00    +0.000 OA
BRANCH  20  21
ATOM     21  C   UNL     1       2.725   3.921  20.672  0.00  0.00    +0.000 C 
BRANCH  21  22
ATOM     22  C   UNL     1       1.475   3.190  21.166  0.00  0.00    +0.000 C 
BRANCH  22  24
ATOM     23  C   UNL     1       0.945   2.589  18.896  0.00  0.00    +0.000 C 
ATOM     24  N   UNL     1       0.431   3.155  20.136  0.00  0.00    +0.000 NA
ATOM     25  H   UNL     1      -0.355   2.593  20.461  0.00  0.00    +0.000 HD
ENDBRANCH  22  24
ENDBRANCH  21  22
ENDBRANCH  20  21
ENDBRANCH   1  20
TORSDOF 5
ENDMDL
MODEL 2
REMARK VINA RESULT:      -7.7      0.639      1.151
REMARK  Name = 
REMARK  6 active torsions:
REMARK  status: ('A' for Active; 'I' for Inactive)
REMARK    1  A    between atoms: C_1  and  N_2
REMARK    2  A    between atoms: N_2  and  C_3
REMARK    3  A    between atoms: C_3  and  C_4
REMARK    4  A    between atoms: C_4  and  O_5
REMARK    5  A    between atoms: O_5  and  C_6
REMARK    6  A    between atoms: C_8  and  C_9
REMARK                            x       y       z     vdW  Elec       q    Type
REMARK                         _______ _______ _______ _____ _____    ______ ____
ROOT
ATOM      1  C   UNL     1       2.848   6.086  19.780  0.00  0.00    +0.000 A 
ATOM      2  N   UNL     1       3.760   5.542  18.947  0.00  0.00    +0.000 NA
ATOM      3  C   UNL     1       4.131   6.222  17.851  0.00  0.00    +0.000 A 
ATOM      4  N   UNL     1       3.642   7.408  17.470  0.00  0.00    +0.000 NA
ATOM      5  C   UNL     1       2.727   7.908  18.314  0.00  0.00    +0.000 A 
ATOM      6  S   UNL     1       2.005   9.416  17.995  0.00  0.00    +0.000 S 
ATOM      7  C   UNL     1       1.102   9.351  19.431  0.00  0.00    +0.000 A 
ATOM      8  C   UNL     1       1.325   8.194  20.154  0.00  0.00    +0.000 A 
ATOM      9  C   UNL     1       2.274   7.329  19.491  0.00  0.00    +0.000 A 
ATOM     10  C   UNL     1       0.662   7.966  21.487  0.00  0.00    +0.000 C 
ATOM     11  C   UNL     1      -0.538   8.906  21.699  0.00  0.00    +0.000 C 
ATOM     12  C   UNL     1      -0.209  10.350  21.298  0.00  0.00    +0.000 C 
ATOM     13  C   UNL     1       0.161  10.451  19.812  0.00  0.00    +0.000 C 
ENDROOT
BRANCH   3  14
ATOM     14  C   UNL     1       5.209   5.635  17.033  0.00  0.00    +0.000 A 
ATOM     15  C   UNL     1       6.321   5.009  17.619  0.00  0.00    +0.000 A 
ATOM     16  C   UNL     1       7.325   4.499  16.810  0.00  0.00    +0.000 A 
ATOM     17  N   UNL     1       7.304   4.563  15.463  0.00  0.00    +0.000 NA
ATOM     18  C   UNL     1       6.234   5.161  14.905  0.00  0.00    +0.000 A 
ATOM     19  C   UNL     1       5.184   5.698  15.631  0.00  0.00    +0.000 A 
ENDBRANCH   3  14
BRANCH   1  20
ATOM     20  O   UNL     1       2.486   5.377  20.910  0.00  0.00    +0.000 OA
BRANCH  20  21
ATOM     21  C   UNL     1       1.450   4.425  20.618  0.00  0.00    +0.000 C 
BRANCH  21  22
ATOM     22  C   UNL     1       1.960   3.022  20.953  0.00  0.00    +0.000 C 
BRANCH  22  24
ATOM     23  C   UNL     1       2.053   2.258  18.672  0.00  0.00    +0.000 C 
ATOM     24  N   UNL     1       2.820   2.494  19.888  0.00  0.00    +0.000 NA
ATOM     25  H   UNL     1       3.568   3.158  19.689  0.00  0.00    +0.000 HD
ENDBRANCH  22  24
ENDBRANCH  21  22
ENDBRANCH  20  21
ENDBRANCH   1  20
TORSDOF 5
ENDMDL
MODEL 3
REMARK VINA RESULT:      -7.3      2.875      5.097
REMARK  Name = 
REMARK  6 active torsions:
REMARK  status: ('A' for Active; 'I' for Inactive)
REMARK    1  A    between atoms: C_1  and  N_2
REMARK    2  A    between atoms: N_2  and  C_3
REMARK    3  A    between atoms: C_3  and  C_4
REMARK    4  A    between atoms: C_4  and  O_5
REMARK    5  A    between atoms: O_5  and  C_6
REMARK    6  A    between atoms: C_8  and  C_9
REMARK                            x       y       z     vdW  Elec       q    Type
REMARK                         _______ _______ _______ _____ _____    ______ ____
ROOT
ATOM      1  C   UNL     1       4.447   5.761  17.292  0.00  0.00    +0.000 A 
ATOM      2  N   UNL     1       5.195   5.666  16.174  0.00  0.00    +0.000 NA
ATOM      3  C   UNL     1       5.398   4.458  15.623  0.00  0.00    +0.000 A 
ATOM      4  N   UNL     1       4.947   3.297  16.111  0.00  0.00    +0.000 NA
ATOM      5  C   UNL     1       4.221   3.431  17.232  0.00  0.00    +0.000 A 
ATOM      6  S   UNL     1       3.555   2.058  17.987  0.00  0.00    +0.000 S 
ATOM      7  C   UNL     1       2.811   3.007  19.181  0.00  0.00    +0.000 A 
ATOM      8  C   UNL     1       3.065   4.358  19.031  0.00  0.00    +0.000 A 
ATOM      9  C   UNL     1       3.911   4.614  17.888  0.00  0.00    +0.000 A 
ATOM     10  C   UNL     1       2.451   5.376  19.956  0.00  0.00    +0.000 C 
ATOM     11  C   UNL     1       1.918   4.730  21.247  0.00  0.00    +0.000 C 
ATOM     12  C   UNL     1       1.122   3.450  20.958  0.00  0.00    +0.000 C 
ATOM     13  C   UNL     1       1.994   2.388  20.273  0.00  0.00    +0.000 C 
ENDROOT
BRANCH   3  14
ATOM     14  C   UNL     1       6.131   4.421  14.343  0.00  0.00    +0.000 A 
ATOM     15  C   UNL     1       7.249   5.237  14.111  0.00  0.00    +0.000 A 
ATOM     16  C   UNL     1       7.887   5.190  12.880  0.00  0.00    +0.000 A 
ATOM     17  N   UNL     1       7.497   4.391  11.867  0.00  0.00    +0.000 NA
ATOM     18  C   UNL     1       6.425   3.608  12.095  0.00  0.00    +0.000 A 
ATOM     19  C   UNL     1       5.726   3.586  13.290  0.00  0.00    +0.000 A 
ENDBRANCH   3  14
BRANCH   1  20
ATOM     20  O   UNL     1       4.238   7.014  17.838  0.00  0.00    +0.000 OA
BRANCH  20  21
ATOM     21  C   UNL     1       3.199   7.719  17.140  0.00  0.00    +0.000 C 
BRANCH  21  22
ATOM     22  C   UNL     1       2.366   8.503  18.155  0.00  0.00    +0.000 C 
BRANCH  22  24
ATOM     23  C   UNL     1       0.911  10.392  18.488  0.00  0.00    +0.000 C 
ATOM     24  N   UNL     1       1.852   9.751  17.579  0.00  0.00    +0.000 NA
ATOM     25  H   UNL     1       2.626  10.389  17.394  0.00  0.00    +0.000 HD
ENDBRANCH  22  24
ENDBRANCH  21  22
ENDBRANCH  20  21
ENDBRANCH   1  20
TORSDOF 5
ENDMDL
MODEL 4
REMARK VINA RESULT:      -6.8      0.961      1.153
REMARK  Name = 
REMARK  6 active torsions:
REMARK  status: ('A' for Active; 'I' for Inactive)
REMARK    1  A    between atoms: C_1  and  N_2
REMARK    2  A    between atoms: N_2  and  C_3
REMARK    3  A    between atoms: C_3  and  C_4
REMARK    4  A    between atoms: C_4  and  O_5
REMARK    5  A    between atoms: O_5  and  C_6
REMARK    6  A    between atoms: C_8  and  C_9
REMARK                            x       y       z     vdW  Elec       q    Type
REMARK                         _______ _______ _______ _____ _____    ______ ____
ROOT
ATOM      1  C   UNL     1       2.563   6.113  19.659  0.00  0.00    +0.000 A 
ATOM      2  N   UNL     1       3.340   5.486  18.752  0.00  0.00    +0.000 NA
ATOM      3  C   UNL     1       3.724   6.150  17.650  0.00  0.00    +0.000 A 
ATOM      4  N   UNL     1       3.370   7.401  17.334  0.00  0.00    +0.000 NA
ATOM      5  C   UNL     1       2.584   7.985  18.252  0.00  0.00    +0.000 A 
ATOM      6  S   UNL     1       2.046   9.584  18.023  0.00  0.00    +0.000 S 
ATOM      7  C   UNL     1       1.238   9.586  19.516  0.00  0.00    +0.000 A 
ATOM      8  C   UNL     1       1.356   8.385  20.192  0.00  0.00    +0.000 A 
ATOM      9  C   UNL     1       2.138   7.429  19.443  0.00  0.00    +0.000 A 
ATOM     10  C   UNL     1       0.757   8.198  21.561  0.00  0.00    +0.000 C 
ATOM     11  C   UNL     1      -0.293   9.277  21.880  0.00  0.00    +0.000 C 
ATOM     12  C   UNL     1       0.194  10.680  21.495  0.00  0.00    +0.000 C 
ATOM     13  C   UNL     1       0.475  10.783  19.989  0.00  0.00    +0.000 C 
ENDROOT
BRANCH   3  14
ATOM     14  C   UNL     1       4.660   5.458  16.744  0.00  0.00    +0.000 A 
ATOM     15  C   UNL     1       5.328   6.140  15.714  0.00  0.00    +0.000 A 
ATOM     16  C   UNL     1       6.175   5.440  14.868  0.00  0.00    +0.000 A 
ATOM     17  N   UNL     1       6.409   4.117  14.971  0.00  0.00    +0.000 NA
ATOM     18  C   UNL     1       5.768   3.468  15.962  0.00  0.00    +0.000 A 
ATOM     19  C   UNL     1       4.906   4.081  16.855  0.00  0.00    +0.000 A 
ENDBRANCH   3  14
BRANCH   1  20
ATOM     20  O   UNL     1       2.188   5.419  20.794  0.00  0.00    +0.000 OA
BRANCH  20  21
ATOM     21  C   UNL     1       0.939   4.736  20.596  0.00  0.00    +0.000 C 
BRANCH  21  22
ATOM     22  C   UNL     1       1.222   3.262  20.303  0.00  0.00    +0.000 C 
BRANCH  22  24
ATOM     23  C   UNL     1       3.068   2.289  21.503  0.00  0.00    +0.000 C 
ATOM     24  N   UNL     1       1.633   2.543  21.513  0.00  0.00    +0.000 NA
ATOM     25  H   UNL     1       1.397   3.093  22.338  0.00  0.00    +0.000 HD
ENDBRANCH  22  24
ENDBRANCH  21  22
ENDBRANCH  20  21
ENDBRANCH   1  20
TORSDOF 5
ENDMDL
MODEL 5
REMARK VINA RESULT:      -6.8      3.715      5.367
REMARK  Name = 
REMARK  6 active torsions:
REMARK  status: ('A' for Active; 'I' for Inactive)
REMARK    1  A    between atoms: C_1  and  N_2
REMARK    2  A    between atoms: N_2  and  C_3
REMARK    3  A    between atoms: C_3  and  C_4
REMARK    4  A    between atoms: C_4  and  O_5
REMARK    5  A    between atoms: O_5  and  C_6
REMARK    6  A    between atoms: C_8  and  C_9
REMARK                            x       y       z     vdW  Elec       q    Type
REMARK                         _______ _______ _______ _____ _____    ______ ____
ROOT
ATOM      1  C   UNL     1       5.267   5.136  17.762  0.00  0.00    +0.000 A 
ATOM      2  N   UNL     1       5.915   5.089  16.579  0.00  0.00    +0.000 NA
ATOM      3  C   UNL     1       5.497   4.226  15.639  0.00  0.00    +0.000 A 
ATOM      4  N   UNL     1       4.493   3.353  15.777  0.00  0.00    +0.000 NA
ATOM      5  C   UNL     1       3.885   3.418  16.972  0.00  0.00    +0.000 A 
ATOM      6  S   UNL     1       2.575   2.388  17.321  0.00  0.00    +0.000 S 
ATOM      7  C   UNL     1       2.364   3.084  18.855  0.00  0.00    +0.000 A 
ATOM      8  C   UNL     1       3.281   4.084  19.122  0.00  0.00    +0.000 A 
ATOM      9  C   UNL     1       4.192   4.277  18.018  0.00  0.00    +0.000 A 
ATOM     10  C   UNL     1       3.231   4.866  20.409  0.00  0.00    +0.000 C 
ATOM     11  C   UNL     1       2.381   4.156  21.478  0.00  0.00    +0.000 C 
ATOM     12  C   UNL     1       1.057   3.635  20.902  0.00  0.00    +0.000 C 
ATOM     13  C   UNL     1       1.295   2.607  19.788  0.00  0.00    +0.000 C 
ENDROOT
BRANCH   3  14
ATOM     14  C   UNL     1       6.168   4.290  14.327  0.00  0.00    +0.000 A 
ATOM     15  C   UNL     1       5.763   3.483  13.252  0.00  0.00    +0.000 A 
ATOM     16  C   UNL     1       6.444   3.556  12.046  0.00  0.00    +0.000 A 
ATOM     17  N   UNL     1       7.494   4.373  11.830  0.00  0.00    +0.000 NA
ATOM     18  C   UNL     1       7.878   5.147  12.863  0.00  0.00    +0.000 A 
ATOM     19  C   UNL     1       7.259   5.143  14.102  0.00  0.00    +0.000 A 
ENDBRANCH   3  14
BRANCH   1  20
ATOM     20  O   UNL     1       5.703   6.038  18.714  0.00  0.00    +0.000 OA
BRANCH  20  21
ATOM     21  C   UNL     1       6.954   5.626  19.288  0.00  0.00    +0.000 C 
BRANCH  21  22
ATOM     22  C   UNL     1       8.052   6.584  18.822  0.00  0.00    +0.000 C 
BRANCH  22  24
ATOM     23  C   UNL     1       8.095   8.788  17.856  0.00  0.00    +0.000 C 
ATOM     24  N   UNL     1       7.593   7.428  17.713  0.00  0.00    +0.000 NA
ATOM     25  H   UNL     1       7.920   7.042  16.828  0.00  0.00    +0.000 HD
ENDBRANCH  22  24
ENDBRANCH  21  22
ENDBRANCH  20  21
ENDBRANCH   1  20
TORSDOF 5
ENDMDL
MODEL 6
REMARK VINA RESULT:      -6.8      3.303      5.296
REMARK  Name = 
REMARK  6 active torsions:
REMARK  status: ('A' for Active; 'I' for Inactive)
REMARK    1  A    between atoms: C_1  and  N_2
REMARK    2  A    between atoms: N_2  and  C_3
REMARK    3  A    between atoms: C_3  and  C_4
REMARK    4  A    between atoms: C_4  and  O_5
REMARK    5  A    between atoms: O_5  and  C_6
REMARK    6  A    between atoms: C_8  and  C_9
REMARK                            x       y       z     vdW  Elec       q    Type
REMARK                         _______ _______ _______ _____ _____    ______ ____
ROOT
ATOM      1  C   UNL     1       0.312   9.878  18.494  0.00  0.00    +0.000 A 
ATOM      2  N   UNL     1       1.163   8.972  17.970  0.00  0.00    +0.000 NA
ATOM      3  C   UNL     1       1.846   8.162  18.795  0.00  0.00    +0.000 A 
ATOM      4  N   UNL     1       1.792   8.191  20.131  0.00  0.00    +0.000 NA
ATOM      5  C   UNL     1       0.948   9.115  20.615  0.00  0.00    +0.000 A 
ATOM      6  S   UNL     1       0.741   9.286  22.296  0.00  0.00    +0.000 S 
ATOM      7  C   UNL     1      -0.421  10.505  22.086  0.00  0.00    +0.000 A 
ATOM      8  C   UNL     1      -0.655  10.801  20.756  0.00  0.00    +0.000 A 
ATOM      9  C   UNL     1       0.163   9.993  19.881  0.00  0.00    +0.000 A 
ATOM     10  C   UNL     1      -1.692  11.816  20.353  0.00  0.00    +0.000 C 
ATOM     11  C   UNL     1      -2.096  12.723  21.529  0.00  0.00    +0.000 C 
ATOM     12  C   UNL     1      -2.341  11.917  22.812  0.00  0.00    +0.000 C 
ATOM     13  C   UNL     1      -1.076  11.170  23.257  0.00  0.00    +0.000 C 
ENDROOT
BRANCH   3  14
ATOM     14  C   UNL     1       2.679   7.118  18.169  0.00  0.00    +0.000 A 
ATOM     15  C   UNL     1       2.349   5.757  18.264  0.00  0.00    +0.000 A 
ATOM     16  C   UNL     1       3.179   4.808  17.686  0.00  0.00    +0.000 A 
ATOM     17  N   UNL     1       4.310   5.114  17.019  0.00  0.00    +0.000 NA
ATOM     18  C   UNL     1       4.622   6.421  16.928  0.00  0.00    +0.000 A 
ATOM     19  C   UNL     1       3.854   7.437  17.472  0.00  0.00    +0.000 A 
ENDBRANCH   3  14
BRANCH   1  20
ATOM     20  O   UNL     1      -0.392  10.695  17.630  0.00  0.00    +0.000 OA
BRANCH  20  21
ATOM     21  C   UNL     1      -1.596  10.056  17.175  0.00  0.00    +0.000 C 
BRANCH  21  22
ATOM     22  C   UNL     1      -2.683  11.118  17.000  0.00  0.00    +0.000 C 
BRANCH  22  24
ATOM     23  C   UNL     1      -2.976  10.124  14.828  0.00  0.00    +0.000 C 
ATOM     24  N   UNL     1      -2.966  11.370  15.583  0.00  0.00    +0.000 NA
ATOM     25  H   UNL     1      -3.872  11.826  15.488  0.00  0.00    +0.000 HD
ENDBRANCH  22  24
ENDBRANCH  21  22
ENDBRANCH  20  21
ENDBRANCH   1  20
TORSDOF 5
ENDMDL
MODEL 7
REMARK VINA RESULT:      -6.6      0.950      1.361
REMARK  Name = 
REMARK  6 active torsions:
REMARK  status: ('A' for Active; 'I' for Inactive)
REMARK    1  A    between atoms: C_1  and  N_2
REMARK    2  A    between atoms: N_2  and  C_3
REMARK    3  A    between atoms: C_3  and  C_4
REMARK    4  A    between atoms: C_4  and  O_5
REMARK    5  A    between atoms: O_5  and  C_6
REMARK    6  A    between atoms: C_8  and  C_9
REMARK                            x       y       z     vdW  Elec       q    Type
REMARK                         _______ _______ _______ _____ _____    ______ ____
ROOT
ATOM      1  C   UNL     1       2.940   6.059  19.391  0.00  0.00    +0.000 A 
ATOM      2  N   UNL     1       3.826   5.569  18.499  0.00  0.00    +0.000 NA
ATOM      3  C   UNL     1       4.194   6.331  17.457  0.00  0.00    +0.000 A 
ATOM      4  N   UNL     1       3.725   7.555  17.186  0.00  0.00    +0.000 NA
ATOM      5  C   UNL     1       2.835   8.000  18.086  0.00  0.00    +0.000 A 
ATOM      6  S   UNL     1       2.142   9.545  17.908  0.00  0.00    +0.000 S 
ATOM      7  C   UNL     1       1.261   9.378  19.349  0.00  0.00    +0.000 A 
ATOM      8  C   UNL     1       1.470   8.159  19.968  0.00  0.00    +0.000 A 
ATOM      9  C   UNL     1       2.389   7.334  19.218  0.00  0.00    +0.000 A 
ATOM     10  C   UNL     1       0.824   7.833  21.289  0.00  0.00    +0.000 C 
ATOM     11  C   UNL     1      -0.351   8.777  21.601  0.00  0.00    +0.000 C 
ATOM     12  C   UNL     1       0.003  10.243  21.317  0.00  0.00    +0.000 C 
ATOM     13  C   UNL     1       0.350  10.461  19.838  0.00  0.00    +0.000 C 
ENDROOT
BRANCH   3  14
ATOM     14  C   UNL     1       5.245   5.793  16.573  0.00  0.00    +0.000 A 
ATOM     15  C   UNL     1       6.608   6.010  16.833  0.00  0.00    +0.000 A 
ATOM     16  C   UNL     1       7.559   5.511  15.956  0.00  0.00    +0.000 A 
ATOM     17  N   UNL     1       7.257   4.811  14.844  0.00  0.00    +0.000 NA
ATOM     18  C   UNL     1       5.949   4.604  14.600  0.00  0.00    +0.000 A 
ATOM     19  C   UNL     1       4.929   5.062  15.418  0.00  0.00    +0.000 A 
ENDBRANCH   3  14
BRANCH   1  20
ATOM     20  O   UNL     1       2.581   5.265  20.465  0.00  0.00    +0.000 OA
BRANCH  20  21
ATOM     21  C   UNL     1       2.184   3.954  20.032  0.00  0.00    +0.000 C 
BRANCH  21  22
ATOM     22  C   UNL     1       3.118   2.921  20.666  0.00  0.00    +0.000 C 
BRANCH  22  24
ATOM     23  C   UNL     1       1.191   2.508  22.049  0.00  0.00    +0.000 C 
ATOM     24  N   UNL     1       2.647   2.516  21.995  0.00  0.00    +0.000 NA
ATOM     25  H   UNL     1       2.996   1.584  22.215  0.00  0.00    +0.000 HD
ENDBRANCH  22  24
ENDBRANCH  21  22
ENDBRANCH  20  21
ENDBRANCH   1  20
TORSDOF 5
ENDMDL
MODEL 8
REMARK VINA RESULT:      -6.6      3.652      5.900
REMARK  Name = 
REMARK  6 active torsions:
REMARK  status: ('A' for Active; 'I' for Inactive)
REMARK    1  A    between atoms: C_1  and  N_2
REMARK    2  A    between atoms: N_2  and  C_3
REMARK    3  A    between atoms: C_3  and  C_4
REMARK    4  A    between atoms: C_4  and  O_5
REMARK    5  A    between atoms: O_5  and  C_6
REMARK    6  A    between atoms: C_8  and  C_9
REMARK                            x       y       z     vdW  Elec       q    Type
REMARK                         _______ _______ _______ _____ _____    ______ ____
ROOT
ATOM      1  C   UNL     1      -0.207  10.454  18.900  0.00  0.00    +0.000 A 
ATOM      2  N   UNL     1       0.734   9.555  18.544  0.00  0.00    +0.000 NA
ATOM      3  C   UNL     1       1.331   8.821  19.498  0.00  0.00    +0.000 A 
ATOM      4  N   UNL     1       1.103   8.923  20.812  0.00  0.00    +0.000 NA
ATOM      5  C   UNL     1       0.174   9.838  21.127  0.00  0.00    +0.000 A 
ATOM      6  S   UNL     1      -0.254  10.095  22.755  0.00  0.00    +0.000 S 
ATOM      7  C   UNL     1      -1.419  11.252  22.324  0.00  0.00    +0.000 A 
ATOM      8  C   UNL     1      -1.488  11.464  20.960  0.00  0.00    +0.000 A 
ATOM      9  C   UNL     1      -0.538  10.641  20.247  0.00  0.00    +0.000 A 
ATOM     10  C   UNL     1      -2.496  12.412  20.366  0.00  0.00    +0.000 C 
ATOM     11  C   UNL     1      -3.079  13.366  21.425  0.00  0.00    +0.000 C 
ATOM     12  C   UNL     1      -3.461  12.624  22.712  0.00  0.00    +0.000 C 
ATOM     13  C   UNL     1      -2.241  11.955  23.360  0.00  0.00    +0.000 C 
ENDROOT
BRANCH   3  14
ATOM     14  C   UNL     1       2.271   7.778  19.047  0.00  0.00    +0.000 A 
ATOM     15  C   UNL     1       2.972   7.890  17.836  0.00  0.00    +0.000 A 
ATOM     16  C   UNL     1       3.822   6.870  17.439  0.00  0.00    +0.000 A 
ATOM     17  N   UNL     1       4.029   5.748  18.158  0.00  0.00    +0.000 NA
ATOM     18  C   UNL     1       3.356   5.645  19.320  0.00  0.00    +0.000 A 
ATOM     19  C   UNL     1       2.488   6.612  19.798  0.00  0.00    +0.000 A 
ENDBRANCH   3  14
BRANCH   1  20
ATOM     20  O   UNL     1      -0.819  11.192  17.905  0.00  0.00    +0.000 OA
BRANCH  20  21
ATOM     21  C   UNL     1      -1.783  10.402  17.190  0.00  0.00    +0.000 C 
BRANCH  21  22
ATOM     22  C   UNL     1      -3.005  11.271  16.884  0.00  0.00    +0.000 C 
BRANCH  22  24
ATOM     23  C   UNL     1      -2.992  10.116  14.773  0.00  0.00    +0.000 C 
ATOM     24  N   UNL     1      -3.233  11.389  15.440  0.00  0.00    +0.000 NA
ATOM     25  H   UNL     1      -4.193  11.682  15.265  0.00  0.00    +0.000 HD
ENDBRANCH  22  24
ENDBRANCH  21  22
ENDBRANCH  20  21
ENDBRANCH   1  20
TORSDOF 5
ENDMDL
MODEL 9
REMARK VINA RESULT:      -6.6      4.940      9.396
REMARK  Name = 
REMARK  6 active torsions:
REMARK  status: ('A' for Active; 'I' for Inactive)
REMARK    1  A    between atoms: C_1  and  N_2
REMARK    2  A    between atoms: N_2  and  C_3
REMARK    3  A    between atoms: C_3  and  C_4
REMARK    4  A    between atoms: C_4  and  O_5
REMARK    5  A    between atoms: O_5  and  C_6
REMARK    6  A    between atoms: C_8  and  C_9
REMARK                            x       y       z     vdW  Elec       q    Type
REMARK                         _______ _______ _______ _____ _____    ______ ____
ROOT
ATOM      1  C   UNL     1      -0.589  11.595  19.859  0.00  0.00    +0.000 A 
ATOM      2  N   UNL     1      -1.259  12.306  20.790  0.00  0.00    +0.000 NA
ATOM      3  C   UNL     1      -1.246  11.888  22.066  0.00  0.00    +0.000 A 
ATOM      4  N   UNL     1      -0.647  10.779  22.514  0.00  0.00    +0.000 NA
ATOM      5  C   UNL     1      -0.005  10.091  21.557  0.00  0.00    +0.000 A 
ATOM      6  S   UNL     1       0.826   8.658  21.947  0.00  0.00    +0.000 S 
ATOM      7  C   UNL     1       1.356   8.463  20.347  0.00  0.00    +0.000 A 
ATOM      8  C   UNL     1       0.905   9.463  19.505  0.00  0.00    +0.000 A 
ATOM      9  C   UNL     1       0.087  10.421  20.212  0.00  0.00    +0.000 A 
ATOM     10  C   UNL     1       1.309   9.505  18.055  0.00  0.00    +0.000 C 
ATOM     11  C   UNL     1       1.872   8.155  17.577  0.00  0.00    +0.000 C 
ATOM     12  C   UNL     1       2.868   7.563  18.583  0.00  0.00    +0.000 C 
ATOM     13  C   UNL     1       2.204   7.297  19.941  0.00  0.00    +0.000 C 
ENDROOT
BRANCH   3  14
ATOM     14  C   UNL     1      -1.901  12.758  23.061  0.00  0.00    +0.000 A 
ATOM     15  C   UNL     1      -3.185  12.477  23.554  0.00  0.00    +0.000 A 
ATOM     16  C   UNL     1      -3.773  13.341  24.466  0.00  0.00    +0.000 A 
ATOM     17  N   UNL     1      -3.178  14.461  24.924  0.00  0.00    +0.000 NA
ATOM     18  C   UNL     1      -1.945  14.726  24.450  0.00  0.00    +0.000 A 
ATOM     19  C   UNL     1      -1.279  13.922  23.540  0.00  0.00    +0.000 A 
ENDBRANCH   3  14
BRANCH   1  20
ATOM     20  O   UNL     1      -0.602  12.047  18.553  0.00  0.00    +0.000 OA
BRANCH  20  21
ATOM     21  C   UNL     1      -1.942  12.108  18.038  0.00  0.00    +0.000 C 
BRANCH  21  22
ATOM     22  C   UNL     1      -2.172  10.912  17.113  0.00  0.00    +0.000 C 
BRANCH  22  24
ATOM     23  C   UNL     1      -2.924  10.190  14.943  0.00  0.00    +0.000 C 
ATOM     24  N   UNL     1      -2.599  11.340  15.776  0.00  0.00    +0.000 NA
ATOM     25  H   UNL     1      -3.419  11.941  15.853  0.00  0.00    +0.000 HD
ENDBRANCH  22  24
ENDBRANCH  21  22
ENDBRANCH  20  21
ENDBRANCH   1  20
TORSDOF 5
ENDMDL
