MODEL 1
REMARK VINA RESULT:      -8.9      0.000      0.000
REMARK  Name = 
REMARK  10 active torsions:
REMARK  status: ('A' for Active; 'I' for Inactive)
REMARK    1  A    between atoms: C_1  and  O_2
REMARK    2  A    between atoms: O_2  and  C_3
REMARK    3  A    between atoms: C_5  and  C_6
REMARK    4  A    between atoms: C_7  and  C_8
REMARK    5  A    between atoms: N_11  and  C_12
REMARK    6  A    between atoms: C_12  and  C_13
REMARK    7  A    between atoms: C_27  and  O_28
REMARK    8  A    between atoms: O_28  and  C_29
REMARK    9  A    between atoms: C_30  and  O_31
REMARK   10  A    between atoms: O_31  and  C_32
REMARK                            x       y       z     vdW  Elec       q    Type
REMARK                         _______ _______ _______ _____ _____    ______ ____
ROOT
ATOM      1  C   UNL     1       7.437   6.643  17.613  0.00  0.00    +0.000 A 
ATOM      2  N   UNL     1       6.663   5.866  18.383  0.00  0.00    +0.000 NA
ATOM      3  C   UNL     1       6.013   4.822  17.821  0.00  0.00    +0.000 A 
ATOM      4  N   UNL     1       5.230   3.978  18.609  0.00  0.00    +0.000 N 
ATOM      5  C   UNL     1       6.187   4.617  16.447  0.00  0.00    +0.000 A 
ATOM      6  S   UNL     1       5.518   3.404  15.422  0.00  0.00    +0.000 S 
ATOM      7  C   UNL     1       6.323   4.017  14.047  0.00  0.00    +0.000 A 
ATOM      8  C   UNL     1       7.086   5.120  14.347  0.00  0.00    +0.000 A 
ATOM      9  C   UNL     1       7.016   5.476  15.732  0.00  0.00    +0.000 A 
ATOM     10  N   UNL     1       7.668   6.515  16.304  0.00  0.00    +0.000 NA
ATOM     11  H   UNL     1       4.554   3.460  18.051  0.00  0.00    +0.000 HD
ENDROOT
BRANCH   1  13
ATOM     12  C   UNL     1       8.173   8.976  17.869  0.00  0.00    +0.000 C 
ATOM     13  C   UNL     1       8.163   7.706  18.305  0.00  0.00    +0.000 C 
BRANCH  12  16
ATOM     14  C   UNL     1      10.125  12.209  18.330  0.00  0.00    +0.000 A 
ATOM     15  C   UNL     1       9.576  11.061  17.731  0.00  0.00    +0.000 A 
ATOM     16  C   UNL     1       8.928  10.081  18.484  0.00  0.00    +0.000 A 
ATOM     17  C   UNL     1       8.917  10.232  19.872  0.00  0.00    +0.000 A 
ATOM     18  C   UNL     1       9.527  11.331  20.507  0.00  0.00    +0.000 A 
ATOM     19  C   UNL     1      10.131  12.347  19.735  0.00  0.00    +0.000 A 
BRANCH  14  21
ATOM     20  C   UNL     1      12.075  13.004  17.238  0.00  0.00    +0.000 C 
ATOM     21  O   UNL     1      10.692  13.185  17.548  0.00  0.00    +0.000 OA
ENDBRANCH  14  21
BRANCH  18  22
ATOM     22  O   UNL     1       9.402  11.246  21.873  0.00  0.00    +0.000 OA
ATOM     23  C   UNL     1       8.253  11.785  22.508  0.00  0.00    +0.000 C 
ENDBRANCH  18  22
BRANCH  19  24
ATOM     24  O   UNL     1      10.697  13.384  20.429  0.00  0.00    +0.000 OA
ATOM     25  C   UNL     1       9.976  14.587  20.639  0.00  0.00    +0.000 C 
ENDBRANCH  19  24
ENDBRANCH  12  16
ENDBRANCH   1  13
BRANCH   4  26
ATOM     26  C   UNL     1       4.680   4.587  19.809  0.00  0.00    +0.000 C 
BRANCH  26  27
ATOM     27  C   UNL     1       3.292   4.039  20.057  0.00  0.00    +0.000 A 
ATOM     28  C   UNL     1       3.115   3.079  21.070  0.00  0.00    +0.000 A 
ATOM     29  C   UNL     1       1.855   2.535  21.332  0.00  0.00    +0.000 A 
ATOM     30  C   UNL     1       0.755   2.932  20.578  0.00  0.00    +0.000 A 
ATOM     31  C   UNL     1       0.915   3.871  19.559  0.00  0.00    +0.000 A 
ATOM     32  C   UNL     1       2.175   4.420  19.296  0.00  0.00    +0.000 A 
ATOM     33 CL   UNL     1       2.295   5.559  18.003  0.00  0.00    +0.000 Cl
ENDBRANCH  26  27
ENDBRANCH   4  26
TORSDOF 7
ENDMDL
MODEL 2
REMARK VINA RESULT:      -8.9      0.766      2.294
REMARK  Name = 
REMARK  10 active torsions:
REMARK  status: ('A' for Active; 'I' for Inactive)
REMARK    1  A    between atoms: C_1  and  O_2
REMARK    2  A    between atoms: O_2  and  C_3
REMARK    3  A    between atoms: C_5  and  C_6
REMARK    4  A    between atoms: C_7  and  C_8
REMARK    5  A    between atoms: N_11  and  C_12
REMARK    6  A    between atoms: C_12  and  C_13
REMARK    7  A    between atoms: C_27  and  O_28
REMARK    8  A    between atoms: O_28  and  C_29
REMARK    9  A    between atoms: C_30  and  O_31
REMARK   10  A    between atoms: O_31  and  C_32
REMARK                            x       y       z     vdW  Elec       q    Type
REMARK                         _______ _______ _______ _____ _____    ______ ____
ROOT
ATOM      1  C   UNL     1       7.523   6.773  17.627  0.00  0.00    +0.000 A 
ATOM      2  N   UNL     1       6.693   6.046  18.387  0.00  0.00    +0.000 NA
ATOM      3  C   UNL     1       6.026   5.011  17.830  0.00  0.00    +0.000 A 
ATOM      4  N   UNL     1       5.183   4.219  18.610  0.00  0.00    +0.000 N 
ATOM      5  C   UNL     1       6.244   4.761  16.469  0.00  0.00    +0.000 A 
ATOM      6  S   UNL     1       5.568   3.543  15.453  0.00  0.00    +0.000 S 
ATOM      7  C   UNL     1       6.446   4.087  14.094  0.00  0.00    +0.000 A 
ATOM      8  C   UNL     1       7.238   5.170  14.392  0.00  0.00    +0.000 A 
ATOM      9  C   UNL     1       7.129   5.568  15.763  0.00  0.00    +0.000 A 
ATOM     10  N   UNL     1       7.798   6.598  16.332  0.00  0.00    +0.000 NA
ATOM     11  H   UNL     1       4.509   3.710  18.041  0.00  0.00    +0.000 HD
ENDROOT
BRANCH   1  13
ATOM     12  C   UNL     1       8.245   9.107  17.907  0.00  0.00    +0.000 C 
ATOM     13  C   UNL     1       8.262   7.828  18.317  0.00  0.00    +0.000 C 
BRANCH  12  16
ATOM     14  C   UNL     1       9.745  11.479  20.476  0.00  0.00    +0.000 A 
ATOM     15  C   UNL     1       8.873  10.561  19.863  0.00  0.00    +0.000 A 
ATOM     16  C   UNL     1       9.010  10.207  18.521  0.00  0.00    +0.000 A 
ATOM     17  C   UNL     1       9.992  10.861  17.774  0.00  0.00    +0.000 A 
ATOM     18  C   UNL     1      10.830  11.841  18.341  0.00  0.00    +0.000 A 
ATOM     19  C   UNL     1      10.723  12.154  19.713  0.00  0.00    +0.000 A 
BRANCH  14  21
ATOM     20  C   UNL     1       8.553  12.625  22.177  0.00  0.00    +0.000 C 
ATOM     21  O   UNL     1       9.623  11.748  21.817  0.00  0.00    +0.000 OA
ENDBRANCH  14  21
BRANCH  18  22
ATOM     22  O   UNL     1      11.697  12.352  17.406  0.00  0.00    +0.000 OA
ATOM     23  C   UNL     1      11.316  13.482  16.636  0.00  0.00    +0.000 C 
ENDBRANCH  18  22
BRANCH  19  24
ATOM     24  O   UNL     1      11.576  13.114  20.187  0.00  0.00    +0.000 OA
ATOM     25  C   UNL     1      11.184  14.477  20.209  0.00  0.00    +0.000 C 
ENDBRANCH  19  24
ENDBRANCH  12  16
ENDBRANCH   1  13
BRANCH   4  26
ATOM     26  C   UNL     1       4.612   4.881  19.771  0.00  0.00    +0.000 C 
BRANCH  26  27
ATOM     27  C   UNL     1       3.248   4.295  20.061  0.00  0.00    +0.000 A 
ATOM     28  C   UNL     1       3.119   2.897  20.150  0.00  0.00    +0.000 A 
ATOM     29  C   UNL     1       1.880   2.304  20.406  0.00  0.00    +0.000 A 
ATOM     30  C   UNL     1       0.749   3.098  20.566  0.00  0.00    +0.000 A 
ATOM     31  C   UNL     1       0.856   4.486  20.467  0.00  0.00    +0.000 A 
ATOM     32  C   UNL     1       2.096   5.081  20.212  0.00  0.00    +0.000 A 
ATOM     33 CL   UNL     1       2.141   6.803  20.080  0.00  0.00    +0.000 Cl
ENDBRANCH  26  27
ENDBRANCH   4  26
TORSDOF 7
ENDMDL
MODEL 3
REMARK VINA RESULT:      -8.4      1.004      1.128
REMARK  Name = 
REMARK  10 active torsions:
REMARK  status: ('A' for Active; 'I' for Inactive)
REMARK    1  A    between atoms: C_1  and  O_2
REMARK    2  A    between atoms: O_2  and  C_3
REMARK    3  A    between atoms: C_5  and  C_6
REMARK    4  A    between atoms: C_7  and  C_8
REMARK    5  A    between atoms: N_11  and  C_12
REMARK    6  A    between atoms: C_12  and  C_13
REMARK    7  A    between atoms: C_27  and  O_28
REMARK    8  A    between atoms: O_28  and  C_29
REMARK    9  A    between atoms: C_30  and  O_31
REMARK   10  A    between atoms: O_31  and  C_32
REMARK                            x       y       z     vdW  Elec       q    Type
REMARK                         _______ _______ _______ _____ _____    ______ ____
ROOT
ATOM      1  C   UNL     1       7.490   6.712  17.752  0.00  0.00    +0.000 A 
ATOM      2  N   UNL     1       6.793   5.825  18.475  0.00  0.00    +0.000 NA
ATOM      3  C   UNL     1       6.204   4.782  17.848  0.00  0.00    +0.000 A 
ATOM      4  N   UNL     1       5.503   3.827  18.585  0.00  0.00    +0.000 N 
ATOM      5  C   UNL     1       6.357   4.694  16.459  0.00  0.00    +0.000 A 
ATOM      6  S   UNL     1       5.749   3.516  15.358  0.00  0.00    +0.000 S 
ATOM      7  C   UNL     1       6.474   4.287  14.017  0.00  0.00    +0.000 A 
ATOM      8  C   UNL     1       7.164   5.417  14.386  0.00  0.00    +0.000 A 
ATOM      9  C   UNL     1       7.105   5.662  15.795  0.00  0.00    +0.000 A 
ATOM     10  N   UNL     1       7.696   6.699  16.433  0.00  0.00    +0.000 NA
ATOM     11  H   UNL     1       4.851   3.305  18.002  0.00  0.00    +0.000 HD
ENDROOT
BRANCH   1  13
ATOM     12  C   UNL     1       8.328   9.009  18.020  0.00  0.00    +0.000 C 
ATOM     13  C   UNL     1       8.156   7.770  18.509  0.00  0.00    +0.000 C 
BRANCH  12  16
ATOM     14  C   UNL     1      10.285  12.206  18.665  0.00  0.00    +0.000 A 
ATOM     15  C   UNL     1       9.777  11.066  18.017  0.00  0.00    +0.000 A 
ATOM     16  C   UNL     1       9.039  10.103  18.705  0.00  0.00    +0.000 A 
ATOM     17  C   UNL     1       8.893  10.260  20.084  0.00  0.00    +0.000 A 
ATOM     18  C   UNL     1       9.457  11.350  20.774  0.00  0.00    +0.000 A 
ATOM     19  C   UNL     1      10.154  12.351  20.064  0.00  0.00    +0.000 A 
BRANCH  14  21
ATOM     20  C   UNL     1      11.167  12.862  16.563  0.00  0.00    +0.000 C 
ATOM     21  O   UNL     1      10.946  13.168  17.941  0.00  0.00    +0.000 OA
ENDBRANCH  14  21
BRANCH  18  22
ATOM     22  O   UNL     1       9.195  11.274  22.121  0.00  0.00    +0.000 OA
ATOM     23  C   UNL     1       7.964  11.767  22.626  0.00  0.00    +0.000 C 
ENDBRANCH  18  22
BRANCH  19  24
ATOM     24  O   UNL     1      10.668  13.380  20.807  0.00  0.00    +0.000 OA
ATOM     25  C   UNL     1       9.910  14.559  21.025  0.00  0.00    +0.000 C 
ENDBRANCH  19  24
ENDBRANCH  12  16
ENDBRANCH   1  13
BRANCH   4  26
ATOM     26  C   UNL     1       4.942   4.303  19.838  0.00  0.00    +0.000 C 
BRANCH  26  27
ATOM     27  C   UNL     1       3.473   3.945  19.896  0.00  0.00    +0.000 A 
ATOM     28  C   UNL     1       2.563   4.901  20.385  0.00  0.00    +0.000 A 
ATOM     29  C   UNL     1       1.198   4.617  20.469  0.00  0.00    +0.000 A 
ATOM     30  C   UNL     1       0.722   3.370  20.077  0.00  0.00    +0.000 A 
ATOM     31  C   UNL     1       1.612   2.404  19.604  0.00  0.00    +0.000 A 
ATOM     32  C   UNL     1       2.979   2.688  19.517  0.00  0.00    +0.000 A 
ATOM     33 CL   UNL     1       4.018   1.432  18.943  0.00  0.00    +0.000 Cl
ENDBRANCH  26  27
ENDBRANCH   4  26
TORSDOF 7
ENDMDL
MODEL 4
REMARK VINA RESULT:      -8.3      7.114      9.645
REMARK  Name = 
REMARK  10 active torsions:
REMARK  status: ('A' for Active; 'I' for Inactive)
REMARK    1  A    between atoms: C_1  and  O_2
REMARK    2  A    between atoms: O_2  and  C_3
REMARK    3  A    between atoms: C_5  and  C_6
REMARK    4  A    between atoms: C_7  and  C_8
REMARK    5  A    between atoms: N_11  and  C_12
REMARK    6  A    between atoms: C_12  and  C_13
REMARK    7  A    between atoms: C_27  and  O_28
REMARK    8  A    between atoms: O_28  and  C_29
REMARK    9  A    between atoms: C_30  and  O_31
REMARK   10  A    between atoms: O_31  and  C_32
REMARK                            x       y       z     vdW  Elec       q    Type
REMARK                         _______ _______ _______ _____ _____    ______ ____
ROOT
ATOM      1  C   UNL     1       1.141   9.027  19.455  0.00  0.00    +0.000 A 
ATOM      2  N   UNL     1       0.434  10.037  18.930  0.00  0.00    +0.000 NA
ATOM      3  C   UNL     1      -0.314  10.811  19.747  0.00  0.00    +0.000 A 
ATOM      4  N   UNL     1      -1.031  11.890  19.228  0.00  0.00    +0.000 N 
ATOM      5  C   UNL     1      -0.308  10.503  21.114  0.00  0.00    +0.000 A 
ATOM      6  S   UNL     1      -1.135  11.268  22.418  0.00  0.00    +0.000 S 
ATOM      7  C   UNL     1      -0.472  10.192  23.566  0.00  0.00    +0.000 A 
ATOM      8  C   UNL     1       0.360   9.266  22.983  0.00  0.00    +0.000 A 
ATOM      9  C   UNL     1       0.463   9.437  21.566  0.00  0.00    +0.000 A 
ATOM     10  N   UNL     1       1.214   8.671  20.740  0.00  0.00    +0.000 NA
ATOM     11  H   UNL     1      -1.786  12.176  19.849  0.00  0.00    +0.000 HD
ENDROOT
BRANCH   1  13
ATOM     12  C   UNL     1       2.647   7.171  18.876  0.00  0.00    +0.000 C 
ATOM     13  C   UNL     1       1.980   8.281  18.520  0.00  0.00    +0.000 C 
BRANCH  12  16
ATOM     14  C   UNL     1       5.692   6.124  16.849  0.00  0.00    +0.000 A 
ATOM     15  C   UNL     1       4.753   6.929  17.519  0.00  0.00    +0.000 A 
ATOM     16  C   UNL     1       3.553   6.406  18.001  0.00  0.00    +0.000 A 
ATOM     17  C   UNL     1       3.269   5.068  17.720  0.00  0.00    +0.000 A 
ATOM     18  C   UNL     1       4.154   4.257  16.983  0.00  0.00    +0.000 A 
ATOM     19  C   UNL     1       5.392   4.777  16.548  0.00  0.00    +0.000 A 
BRANCH  14  21
ATOM     20  C   UNL     1       7.506   7.557  17.379  0.00  0.00    +0.000 C 
ATOM     21  O   UNL     1       6.893   6.659  16.452  0.00  0.00    +0.000 OA
ENDBRANCH  14  21
BRANCH  18  22
ATOM     22  O   UNL     1       3.646   2.991  16.820  0.00  0.00    +0.000 OA
ATOM     23  C   UNL     1       2.854   2.414  17.846  0.00  0.00    +0.000 C 
ENDBRANCH  18  22
BRANCH  19  24
ATOM     24  O   UNL     1       6.197   3.923  15.842  0.00  0.00    +0.000 OA
ATOM     25  C   UNL     1       6.172   3.918  14.424  0.00  0.00    +0.000 C 
ENDBRANCH  19  24
ENDBRANCH  12  16
ENDBRANCH   1  13
BRANCH   4  26
ATOM     26  C   UNL     1      -1.417  11.762  17.833  0.00  0.00    +0.000 C 
BRANCH  26  27
ATOM     27  C   UNL     1      -2.922  11.658  17.737  0.00  0.00    +0.000 A 
ATOM     28  C   UNL     1      -3.696  11.990  18.864  0.00  0.00    +0.000 A 
ATOM     29  C   UNL     1      -5.090  11.902  18.831  0.00  0.00    +0.000 A 
ATOM     30  C   UNL     1      -5.732  11.467  17.676  0.00  0.00    +0.000 A 
ATOM     31  C   UNL     1      -4.979  11.118  16.553  0.00  0.00    +0.000 A 
ATOM     32  C   UNL     1      -3.584  11.209  16.584  0.00  0.00    +0.000 A 
ATOM     33 CL   UNL     1      -2.724  10.736  15.162  0.00  0.00    +0.000 Cl
ENDBRANCH  26  27
ENDBRANCH   4  26
TORSDOF 7
ENDMDL
MODEL 5
REMARK VINA RESULT:      -8.1      7.037     10.310
REMARK  Name = 
REMARK  10 active torsions:
REMARK  status: ('A' for Active; 'I' for Inactive)
REMARK    1  A    between atoms: C_1  and  O_2
REMARK    2  A    between atoms: O_2  and  C_3
REMARK    3  A    between atoms: C_5  and  C_6
REMARK    4  A    between atoms: C_7  and  C_8
REMARK    5  A    between atoms: N_11  and  C_12
REMARK    6  A    between atoms: C_12  and  C_13
REMARK    7  A    between atoms: C_27  and  O_28
REMARK    8  A    between atoms: O_28  and  C_29
REMARK    9  A    between atoms: C_30  and  O_31
REMARK   10  A    between atoms: O_31  and  C_32
REMARK                            x       y       z     vdW  Elec       q    Type
REMARK                         _______ _______ _______ _____ _____    ______ ____
ROOT
ATOM      1  C   UNL     1       1.145  10.035  18.241  0.00  0.00    +0.000 A 
ATOM      2  N   UNL     1       1.507  11.130  18.921  0.00  0.00    +0.000 NA
ATOM      3  C   UNL     1       0.555  11.999  19.327  0.00  0.00    +0.000 A 
ATOM      4  N   UNL     1       0.906  13.129  20.068  0.00  0.00    +0.000 N 
ATOM      5  C   UNL     1      -0.774  11.698  19.002  0.00  0.00    +0.000 A 
ATOM      6  S   UNL     1      -2.217  12.572  19.354  0.00  0.00    +0.000 S 
ATOM      7  C   UNL     1      -3.198  11.410  18.576  0.00  0.00    +0.000 A 
ATOM      8  C   UNL     1      -2.456  10.377  18.054  0.00  0.00    +0.000 A 
ATOM      9  C   UNL     1      -1.053  10.533  18.296  0.00  0.00    +0.000 A 
ATOM     10  N   UNL     1      -0.092   9.665  17.899  0.00  0.00    +0.000 NA
ATOM     11  H   UNL     1       0.185  13.847  20.025  0.00  0.00    +0.000 HD
ENDROOT
BRANCH   1  13
ATOM     12  C   UNL     1       2.106   7.779  18.049  0.00  0.00    +0.000 C 
ATOM     13  C   UNL     1       2.222   9.109  17.899  0.00  0.00    +0.000 C 
BRANCH  12  16
ATOM     14  C   UNL     1       3.927   4.499  17.419  0.00  0.00    +0.000 A 
ATOM     15  C   UNL     1       2.962   5.420  17.865  0.00  0.00    +0.000 A 
ATOM     16  C   UNL     1       3.170   6.796  17.779  0.00  0.00    +0.000 A 
ATOM     17  C   UNL     1       4.410   7.237  17.313  0.00  0.00    +0.000 A 
ATOM     18  C   UNL     1       5.426   6.338  16.933  0.00  0.00    +0.000 A 
ATOM     19  C   UNL     1       5.188   4.947  16.969  0.00  0.00    +0.000 A 
BRANCH  14  21
ATOM     20  C   UNL     1       3.104   2.665  18.679  0.00  0.00    +0.000 C 
ATOM     21  O   UNL     1       3.656   3.153  17.455  0.00  0.00    +0.000 OA
ENDBRANCH  14  21
BRANCH  18  22
ATOM     22  O   UNL     1       6.556   7.008  16.531  0.00  0.00    +0.000 OA
ATOM     23  C   UNL     1       7.547   7.352  17.487  0.00  0.00    +0.000 C 
ENDBRANCH  18  22
BRANCH  19  24
ATOM     24  O   UNL     1       6.224   4.141  16.579  0.00  0.00    +0.000 OA
ATOM     25  C   UNL     1       6.400   3.807  15.212  0.00  0.00    +0.000 C 
ENDBRANCH  19  24
ENDBRANCH  12  16
ENDBRANCH   1  13
BRANCH   4  26
ATOM     26  C   UNL     1       2.256  13.618  19.845  0.00  0.00    +0.000 C 
BRANCH  26  27
ATOM     27  C   UNL     1       2.197  14.917  19.074  0.00  0.00    +0.000 A 
ATOM     28  C   UNL     1       1.044  15.716  19.182  0.00  0.00    +0.000 A 
ATOM     29  C   UNL     1       0.935  16.920  18.482  0.00  0.00    +0.000 A 
ATOM     30  C   UNL     1       1.971  17.339  17.654  0.00  0.00    +0.000 A 
ATOM     31  C   UNL     1       3.116  16.552  17.523  0.00  0.00    +0.000 A 
ATOM     32  C   UNL     1       3.228  15.347  18.225  0.00  0.00    +0.000 A 
ATOM     33 CL   UNL     1       4.666  14.419  17.990  0.00  0.00    +0.000 Cl
ENDBRANCH  26  27
ENDBRANCH   4  26
TORSDOF 7
ENDMDL
MODEL 6
REMARK VINA RESULT:      -8.0      6.977     10.290
REMARK  Name = 
REMARK  10 active torsions:
REMARK  status: ('A' for Active; 'I' for Inactive)
REMARK    1  A    between atoms: C_1  and  O_2
REMARK    2  A    between atoms: O_2  and  C_3
REMARK    3  A    between atoms: C_5  and  C_6
REMARK    4  A    between atoms: C_7  and  C_8
REMARK    5  A    between atoms: N_11  and  C_12
REMARK    6  A    between atoms: C_12  and  C_13
REMARK    7  A    between atoms: C_27  and  O_28
REMARK    8  A    between atoms: O_28  and  C_29
REMARK    9  A    between atoms: C_30  and  O_31
REMARK   10  A    between atoms: O_31  and  C_32
REMARK                            x       y       z     vdW  Elec       q    Type
REMARK                         _______ _______ _______ _____ _____    ______ ____
ROOT
ATOM      1  C   UNL     1       1.063  10.010  18.290  0.00  0.00    +0.000 A 
ATOM      2  N   UNL     1       1.499  10.961  19.127  0.00  0.00    +0.000 NA
ATOM      3  C   UNL     1       0.614  11.849  19.632  0.00  0.00    +0.000 A 
ATOM      4  N   UNL     1       1.038  12.827  20.533  0.00  0.00    +0.000 N 
ATOM      5  C   UNL     1      -0.724  11.722  19.239  0.00  0.00    +0.000 A 
ATOM      6  S   UNL     1      -2.095  12.668  19.681  0.00  0.00    +0.000 S 
ATOM      7  C   UNL     1      -3.148  11.723  18.725  0.00  0.00    +0.000 A 
ATOM      8  C   UNL     1      -2.483  10.709  18.077  0.00  0.00    +0.000 A 
ATOM      9  C   UNL     1      -1.082  10.697  18.369  0.00  0.00    +0.000 A 
ATOM     10  N   UNL     1      -0.189   9.809  17.873  0.00  0.00    +0.000 NA
ATOM     11  H   UNL     1       0.386  13.607  20.579  0.00  0.00    +0.000 HD
ENDROOT
BRANCH   1  13
ATOM     12  C   UNL     1       2.076   7.769  18.263  0.00  0.00    +0.000 C 
ATOM     13  C   UNL     1       2.065   9.044  17.844  0.00  0.00    +0.000 C 
BRANCH  12  16
ATOM     14  C   UNL     1       3.737   4.458  17.398  0.00  0.00    +0.000 A 
ATOM     15  C   UNL     1       2.830   5.391  17.931  0.00  0.00    +0.000 A 
ATOM     16  C   UNL     1       3.088   6.762  17.898  0.00  0.00    +0.000 A 
ATOM     17  C   UNL     1       4.321   7.178  17.395  0.00  0.00    +0.000 A 
ATOM     18  C   UNL     1       5.283   6.261  16.927  0.00  0.00    +0.000 A 
ATOM     19  C   UNL     1       4.993   4.880  16.910  0.00  0.00    +0.000 A 
BRANCH  14  21
ATOM     20  C   UNL     1       2.795   2.623  18.570  0.00  0.00    +0.000 C 
ATOM     21  O   UNL     1       3.416   3.122  17.384  0.00  0.00    +0.000 OA
ENDBRANCH  14  21
BRANCH  18  22
ATOM     22  O   UNL     1       6.419   6.909  16.503  0.00  0.00    +0.000 OA
ATOM     23  C   UNL     1       7.399   7.300  17.451  0.00  0.00    +0.000 C 
ENDBRANCH  18  22
BRANCH  19  24
ATOM     24  O   UNL     1       5.979   4.056  16.435  0.00  0.00    +0.000 OA
ATOM     25  C   UNL     1       6.144   3.864  15.039  0.00  0.00    +0.000 C 
ENDBRANCH  19  24
ENDBRANCH  12  16
ENDBRANCH   1  13
BRANCH   4  26
ATOM     26  C   UNL     1       2.434  13.214  20.412  0.00  0.00    +0.000 C 
BRANCH  26  27
ATOM     27  C   UNL     1       2.538  14.441  19.533  0.00  0.00    +0.000 A 
ATOM     28  C   UNL     1       3.128  14.315  18.263  0.00  0.00    +0.000 A 
ATOM     29  C   UNL     1       3.257  15.418  17.416  0.00  0.00    +0.000 A 
ATOM     30  C   UNL     1       2.809  16.669  17.832  0.00  0.00    +0.000 A 
ATOM     31  C   UNL     1       2.235  16.816  19.095  0.00  0.00    +0.000 A 
ATOM     32  C   UNL     1       2.103  15.711  19.943  0.00  0.00    +0.000 A 
ATOM     33 CL   UNL     1       1.403  15.980  21.499  0.00  0.00    +0.000 Cl
ENDBRANCH  26  27
ENDBRANCH   4  26
TORSDOF 7
ENDMDL
MODEL 7
REMARK VINA RESULT:      -8.0      5.707      7.098
REMARK  Name = 
REMARK  10 active torsions:
REMARK  status: ('A' for Active; 'I' for Inactive)
REMARK    1  A    between atoms: C_1  and  O_2
REMARK    2  A    between atoms: O_2  and  C_3
REMARK    3  A    between atoms: C_5  and  C_6
REMARK    4  A    between atoms: C_7  and  C_8
REMARK    5  A    between atoms: N_11  and  C_12
REMARK    6  A    between atoms: C_12  and  C_13
REMARK    7  A    between atoms: C_27  and  O_28
REMARK    8  A    between atoms: O_28  and  C_29
REMARK    9  A    between atoms: C_30  and  O_31
REMARK   10  A    between atoms: O_31  and  C_32
REMARK                            x       y       z     vdW  Elec       q    Type
REMARK                         _______ _______ _______ _____ _____    ______ ____
ROOT
ATOM      1  C   UNL     1       3.570   6.524  18.359  0.00  0.00    +0.000 A 
ATOM      2  N   UNL     1       4.058   5.494  19.062  0.00  0.00    +0.000 NA
ATOM      3  C   UNL     1       4.991   4.695  18.498  0.00  0.00    +0.000 A 
ATOM      4  N   UNL     1       5.540   3.637  19.224  0.00  0.00    +0.000 N 
ATOM      5  C   UNL     1       5.393   4.995  17.191  0.00  0.00    +0.000 A 
ATOM      6  S   UNL     1       6.542   4.198  16.182  0.00  0.00    +0.000 S 
ATOM      7  C   UNL     1       6.293   5.300  14.902  0.00  0.00    +0.000 A 
ATOM      8  C   UNL     1       5.358   6.256  15.221  0.00  0.00    +0.000 A 
ATOM      9  C   UNL     1       4.832   6.091  16.542  0.00  0.00    +0.000 A 
ATOM     10  N   UNL     1       3.903   6.889  17.118  0.00  0.00    +0.000 NA
ATOM     11  H   UNL     1       5.958   2.937  18.614  0.00  0.00    +0.000 HD
ENDROOT
BRANCH   1  13
ATOM     12  C   UNL     1       1.957   8.379  18.449  0.00  0.00    +0.000 C 
ATOM     13  C   UNL     1       2.619   7.384  19.061  0.00  0.00    +0.000 C 
BRANCH  12  16
ATOM     14  C   UNL     1       0.259  10.536  21.083  0.00  0.00    +0.000 A 
ATOM     15  C   UNL     1       1.009   9.504  20.491  0.00  0.00    +0.000 A 
ATOM     16  C   UNL     1       1.031   9.316  19.109  0.00  0.00    +0.000 A 
ATOM     17  C   UNL     1       0.213  10.136  18.330  0.00  0.00    +0.000 A 
ATOM     18  C   UNL     1      -0.610  11.127  18.900  0.00  0.00    +0.000 A 
ATOM     19  C   UNL     1      -0.585  11.348  20.294  0.00  0.00    +0.000 A 
BRANCH  14  21
ATOM     20  C   UNL     1      -0.558   9.918  23.222  0.00  0.00    +0.000 C 
ATOM     21  O   UNL     1       0.318  10.733  22.441  0.00  0.00    +0.000 OA
ENDBRANCH  14  21
BRANCH  18  22
ATOM     22  O   UNL     1      -1.334  11.785  17.936  0.00  0.00    +0.000 OA
ATOM     23  C   UNL     1      -2.324  11.084  17.200  0.00  0.00    +0.000 C 
ENDBRANCH  18  22
BRANCH  19  24
ATOM     24  O   UNL     1      -1.410  12.333  20.769  0.00  0.00    +0.000 OA
ATOM     25  C   UNL     1      -0.933  13.661  20.918  0.00  0.00    +0.000 C 
ENDBRANCH  19  24
ENDBRANCH  12  16
ENDBRANCH   1  13
BRANCH   4  26
ATOM     26  C   UNL     1       4.684   3.094  20.266  0.00  0.00    +0.000 C 
BRANCH  26  27
ATOM     27  C   UNL     1       3.319   2.797  19.688  0.00  0.00    +0.000 A 
ATOM     28  C   UNL     1       3.237   2.099  18.469  0.00  0.00    +0.000 A 
ATOM     29  C   UNL     1       2.001   1.808  17.888  0.00  0.00    +0.000 A 
ATOM     30  C   UNL     1       0.826   2.222  18.509  0.00  0.00    +0.000 A 
ATOM     31  C   UNL     1       0.888   2.929  19.710  0.00  0.00    +0.000 A 
ATOM     32  C   UNL     1       2.126   3.219  20.295  0.00  0.00    +0.000 A 
ATOM     33 CL   UNL     1       2.119   4.118  21.770  0.00  0.00    +0.000 Cl
ENDBRANCH  26  27
ENDBRANCH   4  26
TORSDOF 7
ENDMDL
MODEL 8
REMARK VINA RESULT:      -7.9      5.668      6.919
REMARK  Name = 
REMARK  10 active torsions:
REMARK  status: ('A' for Active; 'I' for Inactive)
REMARK    1  A    between atoms: C_1  and  O_2
REMARK    2  A    between atoms: O_2  and  C_3
REMARK    3  A    between atoms: C_5  and  C_6
REMARK    4  A    between atoms: C_7  and  C_8
REMARK    5  A    between atoms: N_11  and  C_12
REMARK    6  A    between atoms: C_12  and  C_13
REMARK    7  A    between atoms: C_27  and  O_28
REMARK    8  A    between atoms: O_28  and  C_29
REMARK    9  A    between atoms: C_30  and  O_31
REMARK   10  A    between atoms: O_31  and  C_32
REMARK                            x       y       z     vdW  Elec       q    Type
REMARK                         _______ _______ _______ _____ _____    ______ ____
ROOT
ATOM      1  C   UNL     1       3.671   6.532  18.240  0.00  0.00    +0.000 A 
ATOM      2  N   UNL     1       4.136   5.507  18.969  0.00  0.00    +0.000 NA
ATOM      3  C   UNL     1       5.031   4.659  18.417  0.00  0.00    +0.000 A 
ATOM      4  N   UNL     1       5.555   3.606  19.168  0.00  0.00    +0.000 N 
ATOM      5  C   UNL     1       5.422   4.904  17.094  0.00  0.00    +0.000 A 
ATOM      6  S   UNL     1       6.525   4.035  16.095  0.00  0.00    +0.000 S 
ATOM      7  C   UNL     1       6.293   5.104  14.784  0.00  0.00    +0.000 A 
ATOM      8  C   UNL     1       5.397   6.102  15.086  0.00  0.00    +0.000 A 
ATOM      9  C   UNL     1       4.888   5.997  16.419  0.00  0.00    +0.000 A 
ATOM     10  N   UNL     1       3.996   6.845  16.983  0.00  0.00    +0.000 NA
ATOM     11  H   UNL     1       5.938   2.873  18.575  0.00  0.00    +0.000 HD
ENDROOT
BRANCH   1  13
ATOM     12  C   UNL     1       2.010   8.345  18.275  0.00  0.00    +0.000 C 
ATOM     13  C   UNL     1       2.763   7.445  18.929  0.00  0.00    +0.000 C 
BRANCH  12  16
ATOM     14  C   UNL     1      -0.837  10.798  18.862  0.00  0.00    +0.000 A 
ATOM     15  C   UNL     1       0.124  10.009  18.205  0.00  0.00    +0.000 A 
ATOM     16  C   UNL     1       1.119   9.332  18.909  0.00  0.00    +0.000 A 
ATOM     17  C   UNL     1       1.186   9.530  20.290  0.00  0.00    +0.000 A 
ATOM     18  C   UNL     1       0.286  10.376  20.966  0.00  0.00    +0.000 A 
ATOM     19  C   UNL     1      -0.753  11.014  20.255  0.00  0.00    +0.000 A 
BRANCH  14  21
ATOM     20  C   UNL     1      -2.696  10.502  17.418  0.00  0.00    +0.000 C 
ATOM     21  O   UNL     1      -1.844  11.392  18.141  0.00  0.00    +0.000 OA
ENDBRANCH  14  21
BRANCH  18  22
ATOM     22  O   UNL     1       0.566  10.425  22.310  0.00  0.00    +0.000 OA
ATOM     23  C   UNL     1      -0.104   9.546  23.200  0.00  0.00    +0.000 C 
ENDBRANCH  18  22
BRANCH  19  24
ATOM     24  O   UNL     1      -1.589  11.816  20.986  0.00  0.00    +0.000 OA
ATOM     25  C   UNL     1      -1.341  13.208  21.090  0.00  0.00    +0.000 C 
ENDBRANCH  19  24
ENDBRANCH  12  16
ENDBRANCH   1  13
BRANCH   4  26
ATOM     26  C   UNL     1       4.698   3.126  20.240  0.00  0.00    +0.000 C 
BRANCH  26  27
ATOM     27  C   UNL     1       3.326   2.818  19.684  0.00  0.00    +0.000 A 
ATOM     28  C   UNL     1       3.229   2.042  18.515  0.00  0.00    +0.000 A 
ATOM     29  C   UNL     1       1.986   1.737  17.955  0.00  0.00    +0.000 A 
ATOM     30  C   UNL     1       0.821   2.215  18.548  0.00  0.00    +0.000 A 
ATOM     31  C   UNL     1       0.899   3.000  19.699  0.00  0.00    +0.000 A 
ATOM     32  C   UNL     1       2.143   3.303  20.262  0.00  0.00    +0.000 A 
ATOM     33 CL   UNL     1       2.157   4.300  21.674  0.00  0.00    +0.000 Cl
ENDBRANCH  26  27
ENDBRANCH   4  26
TORSDOF 7
ENDMDL
MODEL 9
REMARK VINA RESULT:      -7.9      8.114     10.510
REMARK  Name = 
REMARK  10 active torsions:
REMARK  status: ('A' for Active; 'I' for Inactive)
REMARK    1  A    between atoms: C_1  and  O_2
REMARK    2  A    between atoms: O_2  and  C_3
REMARK    3  A    between atoms: C_5  and  C_6
REMARK    4  A    between atoms: C_7  and  C_8
REMARK    5  A    between atoms: N_11  and  C_12
REMARK    6  A    between atoms: C_12  and  C_13
REMARK    7  A    between atoms: C_27  and  O_28
REMARK    8  A    between atoms: O_28  and  C_29
REMARK    9  A    between atoms: C_30  and  O_31
REMARK   10  A    between atoms: O_31  and  C_32
REMARK                            x       y       z     vdW  Elec       q    Type
REMARK                         _______ _______ _______ _____ _____    ______ ____
ROOT
ATOM      1  C   UNL     1       0.724  10.558  18.398  0.00  0.00    +0.000 A 
ATOM      2  N   UNL     1      -0.581  10.846  18.308  0.00  0.00    +0.000 NA
ATOM      3  C   UNL     1      -0.979  12.135  18.390  0.00  0.00    +0.000 A 
ATOM      4  N   UNL     1      -2.330  12.461  18.263  0.00  0.00    +0.000 N 
ATOM      5  C   UNL     1       0.013  13.106  18.571  0.00  0.00    +0.000 A 
ATOM      6  S   UNL     1      -0.136  14.817  18.716  0.00  0.00    +0.000 S 
ATOM      7  C   UNL     1       1.551  15.024  18.879  0.00  0.00    +0.000 A 
ATOM      8  C   UNL     1       2.224  13.827  18.827  0.00  0.00    +0.000 A 
ATOM      9  C   UNL     1       1.345  12.711  18.648  0.00  0.00    +0.000 A 
ATOM     10  N   UNL     1       1.734  11.417  18.559  0.00  0.00    +0.000 NA
ATOM     11  H   UNL     1      -2.537  13.375  18.661  0.00  0.00    +0.000 HD
ENDROOT
BRANCH   1  13
ATOM     12  C   UNL     1       2.078   8.572  18.918  0.00  0.00    +0.000 C 
ATOM     13  C   UNL     1       1.082   9.152  18.229  0.00  0.00    +0.000 C 
BRANCH  12  16
ATOM     14  C   UNL     1       3.855   5.472  17.612  0.00  0.00    +0.000 A 
ATOM     15  C   UNL     1       3.274   6.753  17.657  0.00  0.00    +0.000 A 
ATOM     16  C   UNL     1       2.527   7.178  18.755  0.00  0.00    +0.000 A 
ATOM     17  C   UNL     1       2.298   6.258  19.780  0.00  0.00    +0.000 A 
ATOM     18  C   UNL     1       2.802   4.944  19.728  0.00  0.00    +0.000 A 
ATOM     19  C   UNL     1       3.604   4.538  18.640  0.00  0.00    +0.000 A 
BRANCH  14  21
ATOM     20  C   UNL     1       5.403   6.172  15.956  0.00  0.00    +0.000 C 
ATOM     21  O   UNL     1       4.643   5.115  16.545  0.00  0.00    +0.000 OA
ENDBRANCH  14  21
BRANCH  18  22
ATOM     22  O   UNL     1       2.428   4.226  20.838  0.00  0.00    +0.000 OA
ATOM     23  C   UNL     1       1.207   3.503  20.829  0.00  0.00    +0.000 C 
ENDBRANCH  18  22
BRANCH  19  24
ATOM     24  O   UNL     1       4.058   3.246  18.667  0.00  0.00    +0.000 OA
ATOM     25  C   UNL     1       3.339   2.217  18.006  0.00  0.00    +0.000 C 
ENDBRANCH  19  24
ENDBRANCH  12  16
ENDBRANCH   1  13
BRANCH   4  26
ATOM     26  C   UNL     1      -3.258  11.412  18.652  0.00  0.00    +0.000 C 
BRANCH  26  27
ATOM     27  C   UNL     1      -4.671  11.948  18.596  0.00  0.00    +0.000 A 
ATOM     28  C   UNL     1      -5.333  11.984  17.356  0.00  0.00    +0.000 A 
ATOM     29  C   UNL     1      -6.635  12.478  17.248  0.00  0.00    +0.000 A 
ATOM     30  C   UNL     1      -7.292  12.957  18.378  0.00  0.00    +0.000 A 
ATOM     31  C   UNL     1      -6.645  12.944  19.615  0.00  0.00    +0.000 A 
ATOM     32  C   UNL     1      -5.342  12.447  19.724  0.00  0.00    +0.000 A 
ATOM     33 CL   UNL     1      -4.602  12.487  21.285  0.00  0.00    +0.000 Cl
ENDBRANCH  26  27
ENDBRANCH   4  26
TORSDOF 7
ENDMDL
