MODEL 1
REMARK VINA RESULT:      -7.5      0.000      0.000
REMARK  Name = 
REMARK  3 active torsions:
REMARK  status: ('A' for Active; 'I' for Inactive)
REMARK    1  A    between atoms: C_1  and  C_2
REMARK    2  A    between atoms: C_2  and  C_4
REMARK    3  A    between atoms: C_8  and  C_9
REMARK                            x       y       z     vdW  Elec       q    Type
REMARK                         _______ _______ _______ _____ _____    ______ ____
ROOT
ATOM      1  C   UNL     1       5.969   5.000  15.160  0.00  0.00    +0.000 A 
ATOM      2  N   UNL     1       5.702   6.281  15.202  0.00  0.00    +0.000 NA
ATOM      3  N   UNL     1       4.800   6.430  16.205  0.00  0.00    +0.000 N 
ATOM      4  C   UNL     1       4.154   7.518  16.703  0.00  0.00    +0.000 A 
ATOM      5  C   UNL     1       3.384   7.005  17.734  0.00  0.00    +0.000 A 
ATOM      6  N   UNL     1       3.545   5.635  17.867  0.00  0.00    +0.000 NA
ATOM      7  C   UNL     1       4.394   5.354  16.922  0.00  0.00    +0.000 A 
ATOM      8  S   UNL     1       5.164   3.940  16.350  0.00  0.00    +0.000 S 
ENDROOT
BRANCH   5   9
ATOM      9  C   UNL     1       2.496   7.797  18.623  0.00  0.00    +0.000 A 
ATOM     10  C   UNL     1       1.754   8.889  18.215  0.00  0.00    +0.000 A 
ATOM     11  C   UNL     1       1.025   9.347  19.342  0.00  0.00    +0.000 A 
ATOM     12  C   UNL     1       0.095  10.359  19.628  0.00  0.00    +0.000 A 
ATOM     13 CL   UNL     1      -0.375  11.357  18.325  0.00  0.00    +0.000 Cl
ATOM     14  C   UNL     1      -0.417  10.523  20.914  0.00  0.00    +0.000 A 
ATOM     15  C   UNL     1       0.005   9.668  21.930  0.00  0.00    +0.000 A 
ATOM     16 CL   UNL     1      -0.618   9.888  23.522  0.00  0.00    +0.000 Cl
ATOM     17  C   UNL     1       0.920   8.633  21.694  0.00  0.00    +0.000 A 
ATOM     18  C   UNL     1       1.395   8.510  20.388  0.00  0.00    +0.000 A 
ATOM     19  O   UNL     1       2.277   7.565  19.954  0.00  0.00    +0.000 OA
ENDBRANCH   5   9
BRANCH   1  21
ATOM     20  C   UNL     1       6.197   3.652  13.069  0.00  0.00    +0.000 C 
ATOM     21  C   UNL     1       6.932   4.372  14.185  0.00  0.00    +0.000 C 
ATOM     22  F   UNL     1       7.769   5.288  13.618  0.00  0.00    +0.000 F 
ENDBRANCH   1  21
TORSDOF 2
ENDMDL
MODEL 2
REMARK VINA RESULT:      -7.5      5.391      8.665
REMARK  Name = 
REMARK  3 active torsions:
REMARK  status: ('A' for Active; 'I' for Inactive)
REMARK    1  A    between atoms: C_1  and  C_2
REMARK    2  A    between atoms: C_2  and  C_4
REMARK    3  A    between atoms: C_8  and  C_9
REMARK                            x       y       z     vdW  Elec       q    Type
REMARK                         _______ _______ _______ _____ _____    ______ ____
ROOT
ATOM      1  C   UNL     1      -0.383  10.847  21.469  0.00  0.00    +0.000 A 
ATOM      2  N   UNL     1       0.052  10.928  20.237  0.00  0.00    +0.000 NA
ATOM      3  N   UNL     1       0.769   9.795  20.031  0.00  0.00    +0.000 N 
ATOM      4  C   UNL     1       1.462   9.331  18.957  0.00  0.00    +0.000 A 
ATOM      5  C   UNL     1       1.951   8.105  19.380  0.00  0.00    +0.000 A 
ATOM      6  N   UNL     1       1.575   7.821  20.683  0.00  0.00    +0.000 NA
ATOM      7  C   UNL     1       0.881   8.870  21.015  0.00  0.00    +0.000 A 
ATOM      8  S   UNL     1       0.033   9.386  22.407  0.00  0.00    +0.000 S 
ENDROOT
BRANCH   5   9
ATOM      9  C   UNL     1       2.767   7.173  18.560  0.00  0.00    +0.000 A 
ATOM     10  C   UNL     1       2.659   5.795  18.604  0.00  0.00    +0.000 A 
ATOM     11  C   UNL     1       3.583   5.272  17.663  0.00  0.00    +0.000 A 
ATOM     12  C   UNL     1       3.970   4.008  17.190  0.00  0.00    +0.000 A 
ATOM     13 CL   UNL     1       3.148   2.662  17.844  0.00  0.00    +0.000 Cl
ATOM     14  C   UNL     1       4.969   3.875  16.228  0.00  0.00    +0.000 A 
ATOM     15  C   UNL     1       5.594   5.017  15.732  0.00  0.00    +0.000 A 
ATOM     16 CL   UNL     1       6.842   4.845  14.556  0.00  0.00    +0.000 Cl
ATOM     17  C   UNL     1       5.235   6.303  16.160  0.00  0.00    +0.000 A 
ATOM     18  C   UNL     1       4.225   6.378  17.119  0.00  0.00    +0.000 A 
ATOM     19  O   UNL     1       3.726   7.530  17.653  0.00  0.00    +0.000 OA
ENDBRANCH   5   9
BRANCH   1  21
ATOM     20  C   UNL     1      -2.190  12.540  21.146  0.00  0.00    +0.000 C 
ATOM     21  C   UNL     1      -1.232  11.900  22.134  0.00  0.00    +0.000 C 
ATOM     22  F   UNL     1      -1.965  11.400  23.171  0.00  0.00    +0.000 F 
ENDBRANCH   1  21
TORSDOF 2
ENDMDL
MODEL 3
REMARK VINA RESULT:      -7.4      1.533      2.594
REMARK  Name = 
REMARK  3 active torsions:
REMARK  status: ('A' for Active; 'I' for Inactive)
REMARK    1  A    between atoms: C_1  and  C_2
REMARK    2  A    between atoms: C_2  and  C_4
REMARK    3  A    between atoms: C_8  and  C_9
REMARK                            x       y       z     vdW  Elec       q    Type
REMARK                         _______ _______ _______ _____ _____    ______ ____
ROOT
ATOM      1  C   UNL     1       5.235   4.966  16.877  0.00  0.00    +0.000 A 
ATOM      2  N   UNL     1       4.841   6.159  16.507  0.00  0.00    +0.000 NA
ATOM      3  N   UNL     1       3.969   6.564  17.464  0.00  0.00    +0.000 N 
ATOM      4  C   UNL     1       3.236   7.700  17.615  0.00  0.00    +0.000 A 
ATOM      5  C   UNL     1       2.563   7.506  18.811  0.00  0.00    +0.000 A 
ATOM      6  N   UNL     1       2.867   6.280  19.382  0.00  0.00    +0.000 NA
ATOM      7  C   UNL     1       3.702   5.766  18.527  0.00  0.00    +0.000 A 
ATOM      8  S   UNL     1       4.589   4.310  18.406  0.00  0.00    +0.000 S 
ENDROOT
BRANCH   5   9
ATOM      9  C   UNL     1       1.634   8.476  19.446  0.00  0.00    +0.000 A 
ATOM     10  C   UNL     1       1.315   8.487  20.790  0.00  0.00    +0.000 A 
ATOM     11  C   UNL     1       0.426   9.572  21.002  0.00  0.00    +0.000 A 
ATOM     12  C   UNL     1      -0.250  10.157  22.085  0.00  0.00    +0.000 A 
ATOM     13 CL   UNL     1       0.022   9.463  23.621  0.00  0.00    +0.000 Cl
ATOM     14  C   UNL     1      -1.090  11.253  21.901  0.00  0.00    +0.000 A 
ATOM     15  C   UNL     1      -1.261  11.774  20.620  0.00  0.00    +0.000 A 
ATOM     16 CL   UNL     1      -2.316  13.119  20.397  0.00  0.00    +0.000 Cl
ATOM     17  C   UNL     1      -0.599  11.237  19.508  0.00  0.00    +0.000 A 
ATOM     18  C   UNL     1       0.234  10.144  19.749  0.00  0.00    +0.000 A 
ATOM     19  O   UNL     1       0.972   9.489  18.808  0.00  0.00    +0.000 OA
ENDBRANCH   5   9
BRANCH   1  21
ATOM     20  C   UNL     1       6.193   4.471  14.624  0.00  0.00    +0.000 C 
ATOM     21  C   UNL     1       6.218   4.126  16.101  0.00  0.00    +0.000 C 
ATOM     22  F   UNL     1       7.498   4.276  16.550  0.00  0.00    +0.000 F 
ENDBRANCH   1  21
TORSDOF 2
ENDMDL
MODEL 4
REMARK VINA RESULT:      -7.4      5.477      8.809
REMARK  Name = 
REMARK  3 active torsions:
REMARK  status: ('A' for Active; 'I' for Inactive)
REMARK    1  A    between atoms: C_1  and  C_2
REMARK    2  A    between atoms: C_2  and  C_4
REMARK    3  A    between atoms: C_8  and  C_9
REMARK                            x       y       z     vdW  Elec       q    Type
REMARK                         _______ _______ _______ _____ _____    ______ ____
ROOT
ATOM      1  C   UNL     1      -0.578  10.906  21.882  0.00  0.00    +0.000 A 
ATOM      2  N   UNL     1      -0.004   9.776  22.210  0.00  0.00    +0.000 NA
ATOM      3  N   UNL     1       0.603   9.337  21.080  0.00  0.00    +0.000 N 
ATOM      4  C   UNL     1       1.337   8.225  20.805  0.00  0.00    +0.000 A 
ATOM      5  C   UNL     1       1.686   8.376  19.473  0.00  0.00    +0.000 A 
ATOM      6  N   UNL     1       1.178   9.548  18.935  0.00  0.00    +0.000 NA
ATOM      7  C   UNL     1       0.537  10.069  19.941  0.00  0.00    +0.000 A 
ATOM      8  S   UNL     1      -0.377  11.489  20.206  0.00  0.00    +0.000 S 
ENDROOT
BRANCH   5   9
ATOM      9  C   UNL     1       2.518   7.430  18.686  0.00  0.00    +0.000 A 
ATOM     10  C   UNL     1       2.392   6.054  18.734  0.00  0.00    +0.000 A 
ATOM     11  C   UNL     1       3.341   5.514  17.828  0.00  0.00    +0.000 A 
ATOM     12  C   UNL     1       3.728   4.243  17.375  0.00  0.00    +0.000 A 
ATOM     13 CL   UNL     1       2.870   2.910  18.009  0.00  0.00    +0.000 Cl
ATOM     14  C   UNL     1       4.757   4.092  16.448  0.00  0.00    +0.000 A 
ATOM     15  C   UNL     1       5.412   5.225  15.966  0.00  0.00    +0.000 A 
ATOM     16 CL   UNL     1       6.696   5.030  14.833  0.00  0.00    +0.000 Cl
ATOM     17  C   UNL     1       5.054   6.517  16.374  0.00  0.00    +0.000 A 
ATOM     18  C   UNL     1       4.013   6.610  17.299  0.00  0.00    +0.000 A 
ATOM     19  O   UNL     1       3.511   7.770  17.809  0.00  0.00    +0.000 OA
ENDBRANCH   5   9
BRANCH   1  21
ATOM     20  C   UNL     1      -0.853  13.178  22.884  0.00  0.00    +0.000 C 
ATOM     21  C   UNL     1      -1.377  11.754  22.838  0.00  0.00    +0.000 C 
ATOM     22  F   UNL     1      -2.701  11.801  22.512  0.00  0.00    +0.000 F 
ENDBRANCH   1  21
TORSDOF 2
ENDMDL
MODEL 5
REMARK VINA RESULT:      -7.4      1.115      1.240
REMARK  Name = 
REMARK  3 active torsions:
REMARK  status: ('A' for Active; 'I' for Inactive)
REMARK    1  A    between atoms: C_1  and  C_2
REMARK    2  A    between atoms: C_2  and  C_4
REMARK    3  A    between atoms: C_8  and  C_9
REMARK                            x       y       z     vdW  Elec       q    Type
REMARK                         _______ _______ _______ _____ _____    ______ ____
ROOT
ATOM      1  C   UNL     1       5.290   4.781  16.343  0.00  0.00    +0.000 A 
ATOM      2  N   UNL     1       5.233   6.088  16.308  0.00  0.00    +0.000 NA
ATOM      3  N   UNL     1       4.222   6.428  17.145  0.00  0.00    +0.000 N 
ATOM      4  C   UNL     1       3.692   7.629  17.504  0.00  0.00    +0.000 A 
ATOM      5  C   UNL     1       2.695   7.297  18.407  0.00  0.00    +0.000 A 
ATOM      6  N   UNL     1       2.606   5.928  18.599  0.00  0.00    +0.000 NA
ATOM      7  C   UNL     1       3.536   5.468  17.813  0.00  0.00    +0.000 A 
ATOM      8  S   UNL     1       4.145   3.923  17.410  0.00  0.00    +0.000 S 
ENDROOT
BRANCH   5   9
ATOM      9  C   UNL     1       1.820   8.263  19.119  0.00  0.00    +0.000 A 
ATOM     10  C   UNL     1       1.228   9.363  18.527  0.00  0.00    +0.000 A 
ATOM     11  C   UNL     1       0.456  10.013  19.525  0.00  0.00    +0.000 A 
ATOM     12  C   UNL     1      -0.388  11.131  19.613  0.00  0.00    +0.000 A 
ATOM     13 CL   UNL     1      -0.646  12.009  18.171  0.00  0.00    +0.000 Cl
ATOM     14  C   UNL     1      -0.986  11.488  20.819  0.00  0.00    +0.000 A 
ATOM     15  C   UNL     1      -0.738  10.722  21.956  0.00  0.00    +0.000 A 
ATOM     16 CL   UNL     1      -1.466  11.180  23.450  0.00  0.00    +0.000 Cl
ATOM     17  C   UNL     1       0.085   9.589  21.921  0.00  0.00    +0.000 A 
ATOM     18  C   UNL     1       0.653   9.273  20.686  0.00  0.00    +0.000 A 
ATOM     19  O   UNL     1       1.470   8.208  20.440  0.00  0.00    +0.000 OA
ENDBRANCH   5   9
BRANCH   1  21
ATOM     20  C   UNL     1       5.968   3.998  14.069  0.00  0.00    +0.000 C 
ATOM     21  C   UNL     1       6.279   3.960  15.554  0.00  0.00    +0.000 C 
ATOM     22  F   UNL     1       7.564   4.384  15.729  0.00  0.00    +0.000 F 
ENDBRANCH   1  21
TORSDOF 2
ENDMDL
MODEL 6
REMARK VINA RESULT:      -7.2      5.684      8.926
REMARK  Name = 
REMARK  3 active torsions:
REMARK  status: ('A' for Active; 'I' for Inactive)
REMARK    1  A    between atoms: C_1  and  C_2
REMARK    2  A    between atoms: C_2  and  C_4
REMARK    3  A    between atoms: C_8  and  C_9
REMARK                            x       y       z     vdW  Elec       q    Type
REMARK                         _______ _______ _______ _____ _____    ______ ____
ROOT
ATOM      1  C   UNL     1      -0.576  11.632  22.168  0.00  0.00    +0.000 A 
ATOM      2  N   UNL     1       0.037  10.608  22.706  0.00  0.00    +0.000 NA
ATOM      3  N   UNL     1       0.505   9.877  21.664  0.00  0.00    +0.000 N 
ATOM      4  C   UNL     1       1.203   8.712  21.601  0.00  0.00    +0.000 A 
ATOM      5  C   UNL     1       1.389   8.507  20.243  0.00  0.00    +0.000 A 
ATOM      6  N   UNL     1       0.816   9.516  19.486  0.00  0.00    +0.000 NA
ATOM      7  C   UNL     1       0.299  10.295  20.391  0.00  0.00    +0.000 A 
ATOM      8  S   UNL     1      -0.580  11.761  20.387  0.00  0.00    +0.000 S 
ENDROOT
BRANCH   5   9
ATOM      9  C   UNL     1       2.122   7.368  19.635  0.00  0.00    +0.000 A 
ATOM     10  C   UNL     1       2.121   6.080  20.138  0.00  0.00    +0.000 A 
ATOM     11  C   UNL     1       2.911   5.288  19.266  0.00  0.00    +0.000 A 
ATOM     12  C   UNL     1       3.304   3.944  19.164  0.00  0.00    +0.000 A 
ATOM     13 CL   UNL     1       2.700   2.878  20.353  0.00  0.00    +0.000 Cl
ATOM     14  C   UNL     1       4.137   3.515  18.133  0.00  0.00    +0.000 A 
ATOM     15  C   UNL     1       4.588   4.438  17.191  0.00  0.00    +0.000 A 
ATOM     16 CL   UNL     1       5.634   3.903  15.929  0.00  0.00    +0.000 Cl
ATOM     17  C   UNL     1       4.215   5.787  17.240  0.00  0.00    +0.000 A 
ATOM     18  C   UNL     1       3.374   6.162  18.289  0.00  0.00    +0.000 A 
ATOM     19  O   UNL     1       2.890   7.418  18.504  0.00  0.00    +0.000 OA
ENDBRANCH   5   9
BRANCH   1  21
ATOM     20  C   UNL     1      -0.642  14.078  22.675  0.00  0.00    +0.000 C 
ATOM     21  C   UNL     1      -1.256  12.719  22.961  0.00  0.00    +0.000 C 
ATOM     22  F   UNL     1      -2.593  12.796  22.699  0.00  0.00    +0.000 F 
ENDBRANCH   1  21
TORSDOF 2
ENDMDL
MODEL 7
REMARK VINA RESULT:      -7.1      5.840      8.853
REMARK  Name = 
REMARK  3 active torsions:
REMARK  status: ('A' for Active; 'I' for Inactive)
REMARK    1  A    between atoms: C_1  and  C_2
REMARK    2  A    between atoms: C_2  and  C_4
REMARK    3  A    between atoms: C_8  and  C_9
REMARK                            x       y       z     vdW  Elec       q    Type
REMARK                         _______ _______ _______ _____ _____    ______ ____
ROOT
ATOM      1  C   UNL     1      -0.667  11.876  22.440  0.00  0.00    +0.000 A 
ATOM      2  N   UNL     1      -0.243  10.763  22.982  0.00  0.00    +0.000 NA
ATOM      3  N   UNL     1       0.266  10.033  21.958  0.00  0.00    +0.000 N 
ATOM      4  C   UNL     1       0.833   8.798  21.906  0.00  0.00    +0.000 A 
ATOM      5  C   UNL     1       1.162   8.639  20.569  0.00  0.00    +0.000 A 
ATOM      6  N   UNL     1       0.802   9.744  19.813  0.00  0.00    +0.000 NA
ATOM      7  C   UNL     1       0.267  10.533  20.698  0.00  0.00    +0.000 A 
ATOM      8  S   UNL     1      -0.437  12.090  20.683  0.00  0.00    +0.000 S 
ENDROOT
BRANCH   5   9
ATOM      9  C   UNL     1       1.834   7.452  19.981  0.00  0.00    +0.000 A 
ATOM     10  C   UNL     1       2.644   7.487  18.862  0.00  0.00    +0.000 A 
ATOM     11  C   UNL     1       3.110   6.166  18.639  0.00  0.00    +0.000 A 
ATOM     12  C   UNL     1       3.953   5.508  17.729  0.00  0.00    +0.000 A 
ATOM     13 CL   UNL     1       4.692   6.477  16.533  0.00  0.00    +0.000 Cl
ATOM     14  C   UNL     1       4.173   4.135  17.815  0.00  0.00    +0.000 A 
ATOM     15  C   UNL     1       3.543   3.405  18.822  0.00  0.00    +0.000 A 
ATOM     16 CL   UNL     1       3.805   1.704  18.911  0.00  0.00    +0.000 Cl
ATOM     17  C   UNL     1       2.703   4.015  19.763  0.00  0.00    +0.000 A 
ATOM     18  C   UNL     1       2.523   5.393  19.634  0.00  0.00    +0.000 A 
ATOM     19  O   UNL     1       1.759   6.170  20.453  0.00  0.00    +0.000 OA
ENDBRANCH   5   9
BRANCH   1  21
ATOM     20  C   UNL     1      -1.021  14.345  22.584  0.00  0.00    +0.000 C 
ATOM     21  C   UNL     1      -1.316  12.996  23.214  0.00  0.00    +0.000 C 
ATOM     22  F   UNL     1      -2.670  12.854  23.298  0.00  0.00    +0.000 F 
ENDBRANCH   1  21
TORSDOF 2
ENDMDL
MODEL 8
REMARK VINA RESULT:      -7.1      5.943      9.208
REMARK  Name = 
REMARK  3 active torsions:
REMARK  status: ('A' for Active; 'I' for Inactive)
REMARK    1  A    between atoms: C_1  and  C_2
REMARK    2  A    between atoms: C_2  and  C_4
REMARK    3  A    between atoms: C_8  and  C_9
REMARK                            x       y       z     vdW  Elec       q    Type
REMARK                         _______ _______ _______ _____ _____    ______ ____
ROOT
ATOM      1  C   UNL     1      -1.158  12.181  22.501  0.00  0.00    +0.000 A 
ATOM      2  N   UNL     1      -1.089  10.949  22.938  0.00  0.00    +0.000 NA
ATOM      3  N   UNL     1      -0.315  10.290  22.039  0.00  0.00    +0.000 N 
ATOM      4  C   UNL     1       0.095   8.996  21.957  0.00  0.00    +0.000 A 
ATOM      5  C   UNL     1       0.880   8.967  20.816  0.00  0.00    +0.000 A 
ATOM      6  N   UNL     1       0.950  10.209  20.205  0.00  0.00    +0.000 NA
ATOM      7  C   UNL     1       0.210  10.949  20.978  0.00  0.00    +0.000 A 
ATOM      8  S   UNL     1      -0.266  12.590  21.010  0.00  0.00    +0.000 S 
ENDROOT
BRANCH   5   9
ATOM      9  C   UNL     1       1.592   7.774  20.289  0.00  0.00    +0.000 A 
ATOM     10  C   UNL     1       1.589   6.532  20.894  0.00  0.00    +0.000 A 
ATOM     11  C   UNL     1       2.356   5.664  20.075  0.00  0.00    +0.000 A 
ATOM     12  C   UNL     1       2.735   4.312  20.075  0.00  0.00    +0.000 A 
ATOM     13 CL   UNL     1       2.144   3.352  21.357  0.00  0.00    +0.000 Cl
ATOM     14  C   UNL     1       3.546   3.792  19.068  0.00  0.00    +0.000 A 
ATOM     15  C   UNL     1       3.987   4.632  18.046  0.00  0.00    +0.000 A 
ATOM     16 CL   UNL     1       5.004   3.987  16.813  0.00  0.00    +0.000 Cl
ATOM     17  C   UNL     1       3.626   5.985  17.992  0.00  0.00    +0.000 A 
ATOM     18  C   UNL     1       2.808   6.451  19.023  0.00  0.00    +0.000 A 
ATOM     19  O   UNL     1       2.339   7.726  19.144  0.00  0.00    +0.000 OA
ENDBRANCH   5   9
BRANCH   1  21
ATOM     20  C   UNL     1      -3.217  12.755  23.795  0.00  0.00    +0.000 C 
ATOM     21  C   UNL     1      -1.925  13.279  23.195  0.00  0.00    +0.000 C 
ATOM     22  F   UNL     1      -1.203  13.868  24.192  0.00  0.00    +0.000 F 
ENDBRANCH   1  21
TORSDOF 2
ENDMDL
MODEL 9
REMARK VINA RESULT:      -7.0      5.599      8.890
REMARK  Name = 
REMARK  3 active torsions:
REMARK  status: ('A' for Active; 'I' for Inactive)
REMARK    1  A    between atoms: C_1  and  C_2
REMARK    2  A    between atoms: C_2  and  C_4
REMARK    3  A    between atoms: C_8  and  C_9
REMARK                            x       y       z     vdW  Elec       q    Type
REMARK                         _______ _______ _______ _____ _____    ______ ____
ROOT
ATOM      1  C   UNL     1      -1.100  11.510  21.810  0.00  0.00    +0.000 A 
ATOM      2  N   UNL     1      -0.705  11.451  20.563  0.00  0.00    +0.000 NA
ATOM      3  N   UNL     1       0.078  10.346  20.483  0.00  0.00    +0.000 N 
ATOM      4  C   UNL     1       0.771   9.785  19.456  0.00  0.00    +0.000 A 
ATOM      5  C   UNL     1       1.350   8.660  20.020  0.00  0.00    +0.000 A 
ATOM      6  N   UNL     1       1.030   8.532  21.362  0.00  0.00    +0.000 NA
ATOM      7  C   UNL     1       0.277   9.571  21.577  0.00  0.00    +0.000 A 
ATOM      8  S   UNL     1      -0.563  10.217  22.917  0.00  0.00    +0.000 S 
ENDROOT
BRANCH   5   9
ATOM      9  C   UNL     1       2.203   7.677  19.303  0.00  0.00    +0.000 A 
ATOM     10  C   UNL     1       2.343   6.352  19.669  0.00  0.00    +0.000 A 
ATOM     11  C   UNL     1       3.215   5.747  18.726  0.00  0.00    +0.000 A 
ATOM     12  C   UNL     1       3.751   4.472  18.487  0.00  0.00    +0.000 A 
ATOM     13 CL   UNL     1       3.269   3.227  19.552  0.00  0.00    +0.000 Cl
ATOM     14  C   UNL     1       4.625   4.247  17.426  0.00  0.00    +0.000 A 
ATOM     15  C   UNL     1       4.971   5.308  16.591  0.00  0.00    +0.000 A 
ATOM     16 CL   UNL     1       6.067   5.026  15.290  0.00  0.00    +0.000 Cl
ATOM     17  C   UNL     1       4.453   6.596  16.777  0.00  0.00    +0.000 A 
ATOM     18  C   UNL     1       3.577   6.764  17.851  0.00  0.00    +0.000 A 
ATOM     19  O   UNL     1       2.959   7.930  18.192  0.00  0.00    +0.000 OA
ENDBRANCH   5   9
BRANCH   1  21
ATOM     20  C   UNL     1      -2.926  12.044  23.429  0.00  0.00    +0.000 C 
ATOM     21  C   UNL     1      -1.998  12.589  22.358  0.00  0.00    +0.000 C 
ATOM     22  F   UNL     1      -1.295  13.628  22.896  0.00  0.00    +0.000 F 
ENDBRANCH   1  21
TORSDOF 2
ENDMDL
