MODEL 1
REMARK VINA RESULT:      -9.0      0.000      0.000
REMARK  Name = 
REMARK  7 active torsions:
REMARK  status: ('A' for Active; 'I' for Inactive)
REMARK    1  A    between atoms: C_1  and  N_2
REMARK    2  A    between atoms: N_2  and  C_3
REMARK    3  A    between atoms: N_2  and  C_4
REMARK    4  A    between atoms: C_7  and  N_8
REMARK    5  A    between atoms: C_10  and  C_11
REMARK    6  A    between atoms: C_13  and  C_14
REMARK    7  A    between atoms: C_21  and  C_22
REMARK                            x       y       z     vdW  Elec       q    Type
REMARK                         _______ _______ _______ _____ _____    ______ ____
ROOT
ATOM      1  C   UNL     1       2.190   7.875  18.979  0.00  0.00    +0.000 A 
ATOM      2  N   UNL     1       3.039   7.720  17.973  0.00  0.00    +0.000 NA
ATOM      3  C   UNL     1       3.613   6.479  18.192  0.00  0.00    +0.000 A 
ATOM      4  C   UNL     1       3.014   5.878  19.287  0.00  0.00    +0.000 A 
ATOM      5  O   UNL     1       2.139   6.786  19.816  0.00  0.00    +0.000 OA
ENDROOT
BRANCH   3   6
ATOM      6  C   UNL     1       4.672   5.907  17.369  0.00  0.00    +0.000 A 
ATOM      7  C   UNL     1       4.397   4.882  16.442  0.00  0.00    +0.000 A 
ATOM      8  C   UNL     1       5.376   4.436  15.551  0.00  0.00    +0.000 A 
ATOM      9  C   UNL     1       6.655   4.964  15.626  0.00  0.00    +0.000 A 
ATOM     10  F   UNL     1       7.592   4.548  14.765  0.00  0.00    +0.000 F 
ATOM     11  C   UNL     1       6.972   5.926  16.580  0.00  0.00    +0.000 A 
ATOM     12  C   UNL     1       5.982   6.397  17.451  0.00  0.00    +0.000 A 
ENDBRANCH   3   6
BRANCH   4  13
ATOM     13  C   UNL     1       3.082   4.590  19.969  0.00  0.00    +0.000 A 
ATOM     14  C   UNL     1       2.179   4.270  20.984  0.00  0.00    +0.000 A 
ATOM     15  C   UNL     1       2.327   3.063  21.649  0.00  0.00    +0.000 A 
ATOM     16  N   UNL     1       3.304   2.172  21.382  0.00  0.00    +0.000 NA
ATOM     17  C   UNL     1       4.153   2.485  20.384  0.00  0.00    +0.000 A 
ATOM     18  C   UNL     1       4.071   3.654  19.648  0.00  0.00    +0.000 A 
ENDBRANCH   4  13
BRANCH   1  21
ATOM     19  N   UNL     1      -0.010  10.580  20.064  0.00  0.00    +0.000 N 
ATOM     20  C   UNL     1       0.541   9.337  20.308  0.00  0.00    +0.000 A 
ATOM     21  C   UNL     1       1.365   9.099  19.232  0.00  0.00    +0.000 A 
ATOM     22  N   UNL     1       1.318  10.167  18.383  0.00  0.00    +0.000 NA
ATOM     23  N   UNL     1       0.462  11.052  18.881  0.00  0.00    +0.000 NA
BRANCH  19  27
ATOM     24  C   UNL     1      -2.793  12.826  22.432  0.00  0.00    +0.000 A 
ATOM     25  C   UNL     1      -1.844  11.967  23.009  0.00  0.00    +0.000 A 
ATOM     26  C   UNL     1      -0.931  11.216  22.245  0.00  0.00    +0.000 A 
ATOM     27  C   UNL     1      -0.926  11.324  20.855  0.00  0.00    +0.000 A 
ATOM     28  C   UNL     1      -1.844  12.188  20.248  0.00  0.00    +0.000 A 
ATOM     29  C   UNL     1      -2.759  12.914  21.031  0.00  0.00    +0.000 A 
BRANCH  24  31
ATOM     30  C   UNL     1      -4.272  12.986  24.420  0.00  0.00    +0.000 C 
ATOM     31  N   UNL     1      -3.698  13.552  23.204  0.00  0.00    +0.000 N 
ATOM     32  C   UNL     1      -4.296  14.777  22.687  0.00  0.00    +0.000 C 
ENDBRANCH  24  31
ENDBRANCH  19  27
ENDBRANCH   1  21
TORSDOF 5
ENDMDL
MODEL 2
REMARK VINA RESULT:      -9.0      1.897      3.622
REMARK  Name = 
REMARK  7 active torsions:
REMARK  status: ('A' for Active; 'I' for Inactive)
REMARK    1  A    between atoms: C_1  and  N_2
REMARK    2  A    between atoms: N_2  and  C_3
REMARK    3  A    between atoms: N_2  and  C_4
REMARK    4  A    between atoms: C_7  and  N_8
REMARK    5  A    between atoms: C_10  and  C_11
REMARK    6  A    between atoms: C_13  and  C_14
REMARK    7  A    between atoms: C_21  and  C_22
REMARK                            x       y       z     vdW  Elec       q    Type
REMARK                         _______ _______ _______ _____ _____    ______ ____
ROOT
ATOM      1  C   UNL     1       2.324   7.824  18.730  0.00  0.00    +0.000 A 
ATOM      2  N   UNL     1       2.077   6.592  19.150  0.00  0.00    +0.000 NA
ATOM      3  C   UNL     1       3.051   5.816  18.541  0.00  0.00    +0.000 A 
ATOM      4  C   UNL     1       3.922   6.633  17.839  0.00  0.00    +0.000 A 
ATOM      5  O   UNL     1       3.433   7.908  17.923  0.00  0.00    +0.000 OA
ENDROOT
BRANCH   3   6
ATOM      6  C   UNL     1       3.135   4.365  18.654  0.00  0.00    +0.000 A 
ATOM      7  C   UNL     1       2.430   3.527  17.768  0.00  0.00    +0.000 A 
ATOM      8  C   UNL     1       2.622   2.143  17.779  0.00  0.00    +0.000 A 
ATOM      9  C   UNL     1       3.471   1.583  18.721  0.00  0.00    +0.000 A 
ATOM     10  F   UNL     1       3.668   0.258  18.727  0.00  0.00    +0.000 F 
ATOM     11  C   UNL     1       4.124   2.382  19.655  0.00  0.00    +0.000 A 
ATOM     12  C   UNL     1       3.957   3.771  19.622  0.00  0.00    +0.000 A 
ENDBRANCH   3   6
BRANCH   4  13
ATOM     13  C   UNL     1       5.160   6.476  17.084  0.00  0.00    +0.000 A 
ATOM     14  C   UNL     1       5.192   5.711  15.916  0.00  0.00    +0.000 A 
ATOM     15  C   UNL     1       6.406   5.533  15.272  0.00  0.00    +0.000 A 
ATOM     16  N   UNL     1       7.573   6.051  15.709  0.00  0.00    +0.000 NA
ATOM     17  C   UNL     1       7.520   6.807  16.823  0.00  0.00    +0.000 A 
ATOM     18  C   UNL     1       6.353   7.060  17.522  0.00  0.00    +0.000 A 
ENDBRANCH   4  13
BRANCH   1  21
ATOM     19  N   UNL     1       0.134  10.460  19.989  0.00  0.00    +0.000 N 
ATOM     20  C   UNL     1       0.698   9.211  20.162  0.00  0.00    +0.000 A 
ATOM     21  C   UNL     1       1.499   9.030  19.058  0.00  0.00    +0.000 A 
ATOM     22  N   UNL     1       1.426  10.135  18.261  0.00  0.00    +0.000 NA
ATOM     23  N   UNL     1       0.576  10.990  18.818  0.00  0.00    +0.000 NA
BRANCH  19  27
ATOM     24  C   UNL     1      -2.607  12.575  22.521  0.00  0.00    +0.000 A 
ATOM     25  C   UNL     1      -1.664  11.669  23.033  0.00  0.00    +0.000 A 
ATOM     26  C   UNL     1      -0.765  10.961  22.214  0.00  0.00    +0.000 A 
ATOM     27  C   UNL     1      -0.769  11.160  20.834  0.00  0.00    +0.000 A 
ATOM     28  C   UNL     1      -1.681  12.072  20.293  0.00  0.00    +0.000 A 
ATOM     29  C   UNL     1      -2.583  12.755  21.128  0.00  0.00    +0.000 A 
BRANCH  24  31
ATOM     30  C   UNL     1      -4.135  12.593  24.479  0.00  0.00    +0.000 C 
ATOM     31  N   UNL     1      -3.499  13.258  23.346  0.00  0.00    +0.000 N 
ATOM     32  C   UNL     1      -4.022  14.560  22.952  0.00  0.00    +0.000 C 
ENDBRANCH  24  31
ENDBRANCH  19  27
ENDBRANCH   1  21
TORSDOF 5
ENDMDL
MODEL 3
REMARK VINA RESULT:      -8.9      1.904      3.773
REMARK  Name = 
REMARK  7 active torsions:
REMARK  status: ('A' for Active; 'I' for Inactive)
REMARK    1  A    between atoms: C_1  and  N_2
REMARK    2  A    between atoms: N_2  and  C_3
REMARK    3  A    between atoms: N_2  and  C_4
REMARK    4  A    between atoms: C_7  and  N_8
REMARK    5  A    between atoms: C_10  and  C_11
REMARK    6  A    between atoms: C_13  and  C_14
REMARK    7  A    between atoms: C_21  and  C_22
REMARK                            x       y       z     vdW  Elec       q    Type
REMARK                         _______ _______ _______ _____ _____    ______ ____
ROOT
ATOM      1  C   UNL     1       2.323   7.833  18.717  0.00  0.00    +0.000 A 
ATOM      2  N   UNL     1       2.073   6.603  19.144  0.00  0.00    +0.000 NA
ATOM      3  C   UNL     1       3.043   5.822  18.538  0.00  0.00    +0.000 A 
ATOM      4  C   UNL     1       3.916   6.634  17.830  0.00  0.00    +0.000 A 
ATOM      5  O   UNL     1       3.431   7.910  17.908  0.00  0.00    +0.000 OA
ENDROOT
BRANCH   3   6
ATOM      6  C   UNL     1       3.123   4.371  18.657  0.00  0.00    +0.000 A 
ATOM      7  C   UNL     1       2.428   3.531  17.766  0.00  0.00    +0.000 A 
ATOM      8  C   UNL     1       2.617   2.147  17.785  0.00  0.00    +0.000 A 
ATOM      9  C   UNL     1       3.454   1.589  18.739  0.00  0.00    +0.000 A 
ATOM     10  F   UNL     1       3.648   0.264  18.752  0.00  0.00    +0.000 F 
ATOM     11  C   UNL     1       4.097   2.390  19.677  0.00  0.00    +0.000 A 
ATOM     12  C   UNL     1       3.933   3.780  19.637  0.00  0.00    +0.000 A 
ENDBRANCH   3   6
BRANCH   4  13
ATOM     13  C   UNL     1       5.152   6.469  17.073  0.00  0.00    +0.000 A 
ATOM     14  C   UNL     1       5.180   5.698  15.910  0.00  0.00    +0.000 A 
ATOM     15  C   UNL     1       6.393   5.514  15.265  0.00  0.00    +0.000 A 
ATOM     16  N   UNL     1       7.562   6.031  15.697  0.00  0.00    +0.000 NA
ATOM     17  C   UNL     1       7.513   6.793  16.808  0.00  0.00    +0.000 A 
ATOM     18  C   UNL     1       6.347   7.053  17.507  0.00  0.00    +0.000 A 
ENDBRANCH   4  13
BRANCH   1  21
ATOM     19  N   UNL     1       0.140  10.480  19.967  0.00  0.00    +0.000 N 
ATOM     20  C   UNL     1       0.698   9.230  20.143  0.00  0.00    +0.000 A 
ATOM     21  C   UNL     1       1.501   9.042  19.041  0.00  0.00    +0.000 A 
ATOM     22  N   UNL     1       1.433  10.146  18.241  0.00  0.00    +0.000 NA
ATOM     23  N   UNL     1       0.585  11.005  18.795  0.00  0.00    +0.000 NA
BRANCH  19  27
ATOM     24  C   UNL     1      -2.567  12.607  22.525  0.00  0.00    +0.000 A 
ATOM     25  C   UNL     1      -2.534  12.812  21.137  0.00  0.00    +0.000 A 
ATOM     26  C   UNL     1      -1.645  12.129  20.286  0.00  0.00    +0.000 A 
ATOM     27  C   UNL     1      -0.762  11.185  20.808  0.00  0.00    +0.000 A 
ATOM     28  C   UNL     1      -0.783  10.940  22.185  0.00  0.00    +0.000 A 
ATOM     29  C   UNL     1      -1.667  11.648  23.019  0.00  0.00    +0.000 A 
BRANCH  24  31
ATOM     30  C   UNL     1      -3.558  14.755  23.279  0.00  0.00    +0.000 C 
ATOM     31  N   UNL     1      -3.445  13.302  23.354  0.00  0.00    +0.000 N 
ATOM     32  C   UNL     1      -4.074  12.638  24.489  0.00  0.00    +0.000 C 
ENDBRANCH  24  31
ENDBRANCH  19  27
ENDBRANCH   1  21
TORSDOF 5
ENDMDL
MODEL 4
REMARK VINA RESULT:      -8.8      3.007      3.709
REMARK  Name = 
REMARK  7 active torsions:
REMARK  status: ('A' for Active; 'I' for Inactive)
REMARK    1  A    between atoms: C_1  and  N_2
REMARK    2  A    between atoms: N_2  and  C_3
REMARK    3  A    between atoms: N_2  and  C_4
REMARK    4  A    between atoms: C_7  and  N_8
REMARK    5  A    between atoms: C_10  and  C_11
REMARK    6  A    between atoms: C_13  and  C_14
REMARK    7  A    between atoms: C_21  and  C_22
REMARK                            x       y       z     vdW  Elec       q    Type
REMARK                         _______ _______ _______ _____ _____    ______ ____
ROOT
ATOM      1  C   UNL     1       2.012   8.464  18.638  0.00  0.00    +0.000 A 
ATOM      2  N   UNL     1       3.023   8.198  17.822  0.00  0.00    +0.000 NA
ATOM      3  C   UNL     1       3.333   6.872  18.075  0.00  0.00    +0.000 A 
ATOM      4  C   UNL     1       2.424   6.348  18.980  0.00  0.00    +0.000 A 
ATOM      5  O   UNL     1       1.609   7.375  19.372  0.00  0.00    +0.000 OA
ENDROOT
BRANCH   3   6
ATOM      6  C   UNL     1       4.441   6.154  17.456  0.00  0.00    +0.000 A 
ATOM      7  C   UNL     1       4.235   4.921  16.808  0.00  0.00    +0.000 A 
ATOM      8  C   UNL     1       5.262   4.304  16.089  0.00  0.00    +0.000 A 
ATOM      9  C   UNL     1       6.520   4.885  16.069  0.00  0.00    +0.000 A 
ATOM     10  F   UNL     1       7.504   4.304  15.371  0.00  0.00    +0.000 F 
ATOM     11  C   UNL     1       6.770   6.066  16.761  0.00  0.00    +0.000 A 
ATOM     12  C   UNL     1       5.732   6.701  17.454  0.00  0.00    +0.000 A 
ENDBRANCH   3   6
BRANCH   4  13
ATOM     13  C   UNL     1       2.138   5.048  19.576  0.00  0.00    +0.000 A 
ATOM     14  C   UNL     1       1.507   4.046  18.837  0.00  0.00    +0.000 A 
ATOM     15  C   UNL     1       1.193   2.852  19.468  0.00  0.00    +0.000 A 
ATOM     16  N   UNL     1       1.456   2.596  20.766  0.00  0.00    +0.000 NA
ATOM     17  C   UNL     1       2.087   3.564  21.459  0.00  0.00    +0.000 A 
ATOM     18  C   UNL     1       2.460   4.778  20.910  0.00  0.00    +0.000 A 
ENDBRANCH   4  13
BRANCH   1  21
ATOM     19  N   UNL     1       0.922  11.942  18.843  0.00  0.00    +0.000 N 
ATOM     20  C   UNL     1       1.905  11.032  18.511  0.00  0.00    +0.000 A 
ATOM     21  C   UNL     1       1.357   9.802  18.792  0.00  0.00    +0.000 A 
ATOM     22  N   UNL     1       0.087   9.971  19.263  0.00  0.00    +0.000 NA
ATOM     23  N   UNL     1      -0.163  11.274  19.316  0.00  0.00    +0.000 NA
BRANCH  19  27
ATOM     24  C   UNL     1       1.008  16.220  18.537  0.00  0.00    +0.000 A 
ATOM     25  C   UNL     1      -0.189  15.507  18.714  0.00  0.00    +0.000 A 
ATOM     26  C   UNL     1      -0.234  14.104  18.807  0.00  0.00    +0.000 A 
ATOM     27  C   UNL     1       0.944  13.360  18.746  0.00  0.00    +0.000 A 
ATOM     28  C   UNL     1       2.157  14.040  18.592  0.00  0.00    +0.000 A 
ATOM     29  C   UNL     1       2.176  15.442  18.484  0.00  0.00    +0.000 A 
BRANCH  24  31
ATOM     30  C   UNL     1       1.203  18.265  17.143  0.00  0.00    +0.000 C 
ATOM     31  N   UNL     1       1.032  17.610  18.435  0.00  0.00    +0.000 N 
ATOM     32  C   UNL     1       1.155  18.437  19.629  0.00  0.00    +0.000 C 
ENDBRANCH  24  31
ENDBRANCH  19  27
ENDBRANCH   1  21
TORSDOF 5
ENDMDL
MODEL 5
REMARK VINA RESULT:      -8.8      0.430      1.583
REMARK  Name = 
REMARK  7 active torsions:
REMARK  status: ('A' for Active; 'I' for Inactive)
REMARK    1  A    between atoms: C_1  and  N_2
REMARK    2  A    between atoms: N_2  and  C_3
REMARK    3  A    between atoms: N_2  and  C_4
REMARK    4  A    between atoms: C_7  and  N_8
REMARK    5  A    between atoms: C_10  and  C_11
REMARK    6  A    between atoms: C_13  and  C_14
REMARK    7  A    between atoms: C_21  and  C_22
REMARK                            x       y       z     vdW  Elec       q    Type
REMARK                         _______ _______ _______ _____ _____    ______ ____
ROOT
ATOM      1  C   UNL     1       2.084   8.140  18.979  0.00  0.00    +0.000 A 
ATOM      2  N   UNL     1       2.923   7.991  17.963  0.00  0.00    +0.000 NA
ATOM      3  C   UNL     1       3.511   6.754  18.178  0.00  0.00    +0.000 A 
ATOM      4  C   UNL     1       2.929   6.150  19.280  0.00  0.00    +0.000 A 
ATOM      5  O   UNL     1       2.051   7.051  19.817  0.00  0.00    +0.000 OA
ENDROOT
BRANCH   3   6
ATOM      6  C   UNL     1       4.566   6.191  17.344  0.00  0.00    +0.000 A 
ATOM      7  C   UNL     1       5.874   6.710  17.380  0.00  0.00    +0.000 A 
ATOM      8  C   UNL     1       6.918   6.082  16.696  0.00  0.00    +0.000 A 
ATOM      9  C   UNL     1       6.646   4.967  15.918  0.00  0.00    +0.000 A 
ATOM     10  F   UNL     1       7.645   4.355  15.270  0.00  0.00    +0.000 F 
ATOM     11  C   UNL     1       5.348   4.476  15.807  0.00  0.00    +0.000 A 
ATOM     12  C   UNL     1       4.309   5.087  16.520  0.00  0.00    +0.000 A 
ENDBRANCH   3   6
BRANCH   4  13
ATOM     13  C   UNL     1       3.016   4.864  19.963  0.00  0.00    +0.000 A 
ATOM     14  C   UNL     1       3.946   3.904  19.563  0.00  0.00    +0.000 A 
ATOM     15  C   UNL     1       3.943   2.671  20.197  0.00  0.00    +0.000 A 
ATOM     16  N   UNL     1       3.085   2.333  21.182  0.00  0.00    +0.000 NA
ATOM     17  C   UNL     1       2.209   3.280  21.573  0.00  0.00    +0.000 A 
ATOM     18  C   UNL     1       2.152   4.546  21.016  0.00  0.00    +0.000 A 
ENDBRANCH   4  13
BRANCH   1  21
ATOM     19  N   UNL     1      -0.156  10.811  20.063  0.00  0.00    +0.000 N 
ATOM     20  C   UNL     1       0.382   9.559  20.286  0.00  0.00    +0.000 A 
ATOM     21  C   UNL     1       1.252   9.357  19.239  0.00  0.00    +0.000 A 
ATOM     22  N   UNL     1       1.243  10.454  18.427  0.00  0.00    +0.000 NA
ATOM     23  N   UNL     1       0.367  11.323  18.918  0.00  0.00    +0.000 NA
BRANCH  19  27
ATOM     24  C   UNL     1      -3.003  12.983  22.424  0.00  0.00    +0.000 A 
ATOM     25  C   UNL     1      -3.036  12.991  21.020  0.00  0.00    +0.000 A 
ATOM     26  C   UNL     1      -2.102  12.291  20.233  0.00  0.00    +0.000 A 
ATOM     27  C   UNL     1      -1.104  11.530  20.839  0.00  0.00    +0.000 A 
ATOM     28  C   UNL     1      -1.056  11.483  22.236  0.00  0.00    +0.000 A 
ATOM     29  C   UNL     1      -1.988  12.205  23.004  0.00  0.00    +0.000 A 
BRANCH  24  31
ATOM     30  C   UNL     1      -5.189  14.146  22.611  0.00  0.00    +0.000 C 
ATOM     31  N   UNL     1      -3.928  13.692  23.188  0.00  0.00    +0.000 N 
ATOM     32  C   UNL     1      -3.555  14.228  24.491  0.00  0.00    +0.000 C 
ENDBRANCH  24  31
ENDBRANCH  19  27
ENDBRANCH   1  21
TORSDOF 5
ENDMDL
MODEL 6
REMARK VINA RESULT:      -8.8      0.946      1.412
REMARK  Name = 
REMARK  7 active torsions:
REMARK  status: ('A' for Active; 'I' for Inactive)
REMARK    1  A    between atoms: C_1  and  N_2
REMARK    2  A    between atoms: N_2  and  C_3
REMARK    3  A    between atoms: N_2  and  C_4
REMARK    4  A    between atoms: C_7  and  N_8
REMARK    5  A    between atoms: C_10  and  C_11
REMARK    6  A    between atoms: C_13  and  C_14
REMARK    7  A    between atoms: C_21  and  C_22
REMARK                            x       y       z     vdW  Elec       q    Type
REMARK                         _______ _______ _______ _____ _____    ______ ____
ROOT
ATOM      1  C   UNL     1       2.150   8.061  18.734  0.00  0.00    +0.000 A 
ATOM      2  N   UNL     1       3.166   8.062  17.882  0.00  0.00    +0.000 NA
ATOM      3  C   UNL     1       3.576   6.739  17.830  0.00  0.00    +0.000 A 
ATOM      4  C   UNL     1       2.720   5.959  18.592  0.00  0.00    +0.000 A 
ATOM      5  O   UNL     1       1.839   6.808  19.203  0.00  0.00    +0.000 OA
ENDROOT
BRANCH   3   6
ATOM      6  C   UNL     1       4.724   6.263  17.068  0.00  0.00    +0.000 A 
ATOM      7  C   UNL     1       6.024   6.730  17.348  0.00  0.00    +0.000 A 
ATOM      8  C   UNL     1       7.140   6.170  16.722  0.00  0.00    +0.000 A 
ATOM      9  C   UNL     1       6.958   5.185  15.763  0.00  0.00    +0.000 A 
ATOM     10  F   UNL     1       8.026   4.637  15.170  0.00  0.00    +0.000 F 
ATOM     11  C   UNL     1       5.680   4.757  15.416  0.00  0.00    +0.000 A 
ATOM     12  C   UNL     1       4.564   5.295  16.068  0.00  0.00    +0.000 A 
ENDBRANCH   3   6
BRANCH   4  13
ATOM     13  C   UNL     1       2.539   4.540  18.879  0.00  0.00    +0.000 A 
ATOM     14  C   UNL     1       3.506   3.825  19.586  0.00  0.00    +0.000 A 
ATOM     15  C   UNL     1       3.321   2.464  19.773  0.00  0.00    +0.000 A 
ATOM     16  N   UNL     1       2.258   1.777  19.304  0.00  0.00    +0.000 NA
ATOM     17  C   UNL     1       1.322   2.487  18.644  0.00  0.00    +0.000 A 
ATOM     18  C   UNL     1       1.407   3.852  18.429  0.00  0.00    +0.000 A 
ENDBRANCH   4  13
BRANCH   1  21
ATOM     19  N   UNL     1       0.067  10.672  20.208  0.00  0.00    +0.000 N 
ATOM     20  C   UNL     1       0.493   9.358  20.214  0.00  0.00    +0.000 A 
ATOM     21  C   UNL     1       1.401   9.277  19.184  0.00  0.00    +0.000 A 
ATOM     22  N   UNL     1       1.523  10.501  18.592  0.00  0.00    +0.000 NA
ATOM     23  N   UNL     1       0.691  11.338  19.202  0.00  0.00    +0.000 NA
BRANCH  19  27
ATOM     24  C   UNL     1      -2.762  12.616  22.780  0.00  0.00    +0.000 A 
ATOM     25  C   UNL     1      -1.828  11.686  23.264  0.00  0.00    +0.000 A 
ATOM     26  C   UNL     1      -0.901  11.033  22.431  0.00  0.00    +0.000 A 
ATOM     27  C   UNL     1      -0.865  11.315  21.066  0.00  0.00    +0.000 A 
ATOM     28  C   UNL     1      -1.767  12.253  20.554  0.00  0.00    +0.000 A 
ATOM     29  C   UNL     1      -2.698  12.880  21.402  0.00  0.00    +0.000 A 
BRANCH  24  31
ATOM     30  C   UNL     1      -4.367  12.503  24.671  0.00  0.00    +0.000 C 
ATOM     31  N   UNL     1      -3.682  13.244  23.617  0.00  0.00    +0.000 N 
ATOM     32  C   UNL     1      -4.182  14.577  23.302  0.00  0.00    +0.000 C 
ENDBRANCH  24  31
ENDBRANCH  19  27
ENDBRANCH   1  21
TORSDOF 5
ENDMDL
MODEL 7
REMARK VINA RESULT:      -8.7      0.944      1.303
REMARK  Name = 
REMARK  7 active torsions:
REMARK  status: ('A' for Active; 'I' for Inactive)
REMARK    1  A    between atoms: C_1  and  N_2
REMARK    2  A    between atoms: N_2  and  C_3
REMARK    3  A    between atoms: N_2  and  C_4
REMARK    4  A    between atoms: C_7  and  N_8
REMARK    5  A    between atoms: C_10  and  C_11
REMARK    6  A    between atoms: C_13  and  C_14
REMARK    7  A    between atoms: C_21  and  C_22
REMARK                            x       y       z     vdW  Elec       q    Type
REMARK                         _______ _______ _______ _____ _____    ______ ____
ROOT
ATOM      1  C   UNL     1       2.171   7.959  18.666  0.00  0.00    +0.000 A 
ATOM      2  N   UNL     1       3.194   7.898  17.825  0.00  0.00    +0.000 NA
ATOM      3  C   UNL     1       3.560   6.561  17.822  0.00  0.00    +0.000 A 
ATOM      4  C   UNL     1       2.672   5.836  18.601  0.00  0.00    +0.000 A 
ATOM      5  O   UNL     1       1.814   6.733  19.174  0.00  0.00    +0.000 OA
ENDROOT
BRANCH   3   6
ATOM      6  C   UNL     1       4.699   6.023  17.088  0.00  0.00    +0.000 A 
ATOM      7  C   UNL     1       4.547   4.927  16.216  0.00  0.00    +0.000 A 
ATOM      8  C   UNL     1       5.601   4.503  15.403  0.00  0.00    +0.000 A 
ATOM      9  C   UNL     1       6.832   5.131  15.503  0.00  0.00    +0.000 A 
ATOM     10  F   UNL     1       7.841   4.736  14.716  0.00  0.00    +0.000 F 
ATOM     11  C   UNL     1       7.029   6.170  16.408  0.00  0.00    +0.000 A 
ATOM     12  C   UNL     1       5.963   6.616  17.200  0.00  0.00    +0.000 A 
ENDBRANCH   3   6
BRANCH   4  13
ATOM     13  C   UNL     1       2.441   4.435  18.933  0.00  0.00    +0.000 A 
ATOM     14  C   UNL     1       1.478   3.688  18.253  0.00  0.00    +0.000 A 
ATOM     15  C   UNL     1       1.246   2.381  18.652  0.00  0.00    +0.000 A 
ATOM     16  N   UNL     1       1.894   1.780  19.671  0.00  0.00    +0.000 NA
ATOM     17  C   UNL     1       2.838   2.506  20.302  0.00  0.00    +0.000 A 
ATOM     18  C   UNL     1       3.156   3.809  19.960  0.00  0.00    +0.000 A 
ENDBRANCH   4  13
BRANCH   1  21
ATOM     19  N   UNL     1       0.167  10.686  20.036  0.00  0.00    +0.000 N 
ATOM     20  C   UNL     1       0.554   9.362  20.094  0.00  0.00    +0.000 A 
ATOM     21  C   UNL     1       1.458   9.214  19.067  0.00  0.00    +0.000 A 
ATOM     22  N   UNL     1       1.615  10.409  18.427  0.00  0.00    +0.000 NA
ATOM     23  N   UNL     1       0.809  11.294  19.004  0.00  0.00    +0.000 NA
BRANCH  19  27
ATOM     24  C   UNL     1      -2.569  12.810  22.566  0.00  0.00    +0.000 A 
ATOM     25  C   UNL     1      -2.553  12.982  21.173  0.00  0.00    +0.000 A 
ATOM     26  C   UNL     1      -1.655  12.299  20.331  0.00  0.00    +0.000 A 
ATOM     27  C   UNL     1      -0.745  11.390  20.868  0.00  0.00    +0.000 A 
ATOM     28  C   UNL     1      -0.749  11.179  22.251  0.00  0.00    +0.000 A 
ATOM     29  C   UNL     1      -1.643  11.885  23.075  0.00  0.00    +0.000 A 
BRANCH  24  31
ATOM     30  C   UNL     1      -4.250  12.808  24.395  0.00  0.00    +0.000 C 
ATOM     31  N   UNL     1      -3.458  13.504  23.386  0.00  0.00    +0.000 N 
ATOM     32  C   UNL     1      -3.817  14.884  23.086  0.00  0.00    +0.000 C 
ENDBRANCH  24  31
ENDBRANCH  19  27
ENDBRANCH   1  21
TORSDOF 5
ENDMDL
MODEL 8
REMARK VINA RESULT:      -8.7      3.092      3.712
REMARK  Name = 
REMARK  7 active torsions:
REMARK  status: ('A' for Active; 'I' for Inactive)
REMARK    1  A    between atoms: C_1  and  N_2
REMARK    2  A    between atoms: N_2  and  C_3
REMARK    3  A    between atoms: N_2  and  C_4
REMARK    4  A    between atoms: C_7  and  N_8
REMARK    5  A    between atoms: C_10  and  C_11
REMARK    6  A    between atoms: C_13  and  C_14
REMARK    7  A    between atoms: C_21  and  C_22
REMARK                            x       y       z     vdW  Elec       q    Type
REMARK                         _______ _______ _______ _____ _____    ______ ____
ROOT
ATOM      1  C   UNL     1       2.010   8.484  18.672  0.00  0.00    +0.000 A 
ATOM      2  N   UNL     1       3.064   8.196  17.921  0.00  0.00    +0.000 NA
ATOM      3  C   UNL     1       3.333   6.865  18.197  0.00  0.00    +0.000 A 
ATOM      4  C   UNL     1       2.359   6.362  19.045  0.00  0.00    +0.000 A 
ATOM      5  O   UNL     1       1.542   7.405  19.383  0.00  0.00    +0.000 OA
ENDROOT
BRANCH   3   6
ATOM      6  C   UNL     1       4.464   6.124  17.649  0.00  0.00    +0.000 A 
ATOM      7  C   UNL     1       4.827   6.253  16.295  0.00  0.00    +0.000 A 
ATOM      8  C   UNL     1       5.993   5.662  15.803  0.00  0.00    +0.000 A 
ATOM      9  C   UNL     1       6.769   4.884  16.648  0.00  0.00    +0.000 A 
ATOM     10  F   UNL     1       7.894   4.326  16.184  0.00  0.00    +0.000 F 
ATOM     11  C   UNL     1       6.394   4.681  17.973  0.00  0.00    +0.000 A 
ATOM     12  C   UNL     1       5.242   5.301  18.474  0.00  0.00    +0.000 A 
ENDBRANCH   3   6
BRANCH   4  13
ATOM     13  C   UNL     1       2.013   5.069  19.625  0.00  0.00    +0.000 A 
ATOM     14  C   UNL     1       2.206   4.822  20.985  0.00  0.00    +0.000 A 
ATOM     15  C   UNL     1       1.927   3.556  21.476  0.00  0.00    +0.000 A 
ATOM     16  N   UNL     1       1.483   2.534  20.715  0.00  0.00    +0.000 NA
ATOM     17  C   UNL     1       1.278   2.797  19.409  0.00  0.00    +0.000 A 
ATOM     18  C   UNL     1       1.505   4.034  18.833  0.00  0.00    +0.000 A 
ENDBRANCH   4  13
BRANCH   1  21
ATOM     19  N   UNL     1       0.973  11.982  18.791  0.00  0.00    +0.000 N 
ATOM     20  C   UNL     1       1.955  11.051  18.515  0.00  0.00    +0.000 A 
ATOM     21  C   UNL     1       1.371   9.834  18.781  0.00  0.00    +0.000 A 
ATOM     22  N   UNL     1       0.084  10.030  19.189  0.00  0.00    +0.000 NA
ATOM     23  N   UNL     1      -0.145  11.338  19.217  0.00  0.00    +0.000 NA
BRANCH  19  27
ATOM     24  C   UNL     1       1.108  16.258  18.474  0.00  0.00    +0.000 A 
ATOM     25  C   UNL     1       2.258  15.462  18.347  0.00  0.00    +0.000 A 
ATOM     26  C   UNL     1       2.231  14.060  18.458  0.00  0.00    +0.000 A 
ATOM     27  C   UNL     1       1.024  13.398  18.681  0.00  0.00    +0.000 A 
ATOM     28  C   UNL     1      -0.145  14.159  18.791  0.00  0.00    +0.000 A 
ATOM     29  C   UNL     1      -0.091  15.561  18.695  0.00  0.00    +0.000 A 
BRANCH  24  31
ATOM     30  C   UNL     1       1.112  18.488  19.566  0.00  0.00    +0.000 C 
ATOM     31  N   UNL     1       1.156  17.647  18.374  0.00  0.00    +0.000 N 
ATOM     32  C   UNL     1       0.984  18.303  17.084  0.00  0.00    +0.000 C 
ENDBRANCH  24  31
ENDBRANCH  19  27
ENDBRANCH   1  21
TORSDOF 5
ENDMDL
MODEL 9
REMARK VINA RESULT:      -8.7      0.935      1.175
REMARK  Name = 
REMARK  7 active torsions:
REMARK  status: ('A' for Active; 'I' for Inactive)
REMARK    1  A    between atoms: C_1  and  N_2
REMARK    2  A    between atoms: N_2  and  C_3
REMARK    3  A    between atoms: N_2  and  C_4
REMARK    4  A    between atoms: C_7  and  N_8
REMARK    5  A    between atoms: C_10  and  C_11
REMARK    6  A    between atoms: C_13  and  C_14
REMARK    7  A    between atoms: C_21  and  C_22
REMARK                            x       y       z     vdW  Elec       q    Type
REMARK                         _______ _______ _______ _____ _____    ______ ____
ROOT
ATOM      1  C   UNL     1       2.168   7.974  18.683  0.00  0.00    +0.000 A 
ATOM      2  N   UNL     1       3.196   7.896  17.850  0.00  0.00    +0.000 NA
ATOM      3  C   UNL     1       3.553   6.557  17.864  0.00  0.00    +0.000 A 
ATOM      4  C   UNL     1       2.656   5.847  18.646  0.00  0.00    +0.000 A 
ATOM      5  O   UNL     1       1.800   6.756  19.203  0.00  0.00    +0.000 OA
ENDROOT
BRANCH   3   6
ATOM      6  C   UNL     1       4.693   6.003  17.144  0.00  0.00    +0.000 A 
ATOM      7  C   UNL     1       4.538   4.908  16.272  0.00  0.00    +0.000 A 
ATOM      8  C   UNL     1       5.594   4.470  15.471  0.00  0.00    +0.000 A 
ATOM      9  C   UNL     1       6.833   5.082  15.584  0.00  0.00    +0.000 A 
ATOM     10  F   UNL     1       7.845   4.673  14.809  0.00  0.00    +0.000 F 
ATOM     11  C   UNL     1       7.033   6.119  16.491  0.00  0.00    +0.000 A 
ATOM     12  C   UNL     1       5.964   6.580  17.269  0.00  0.00    +0.000 A 
ENDBRANCH   3   6
BRANCH   4  13
ATOM     13  C   UNL     1       2.414   4.451  18.993  0.00  0.00    +0.000 A 
ATOM     14  C   UNL     1       1.548   3.665  18.232  0.00  0.00    +0.000 A 
ATOM     15  C   UNL     1       1.296   2.365  18.643  0.00  0.00    +0.000 A 
ATOM     16  N   UNL     1       1.835   1.807  19.747  0.00  0.00    +0.000 NA
ATOM     17  C   UNL     1       2.688   2.572  20.457  0.00  0.00    +0.000 A 
ATOM     18  C   UNL     1       3.019   3.871  20.114  0.00  0.00    +0.000 A 
ENDBRANCH   4  13
BRANCH   1  21
ATOM     19  N   UNL     1       0.166  10.728  20.003  0.00  0.00    +0.000 N 
ATOM     20  C   UNL     1       0.539   9.400  20.074  0.00  0.00    +0.000 A 
ATOM     21  C   UNL     1       1.461   9.237  19.065  0.00  0.00    +0.000 A 
ATOM     22  N   UNL     1       1.642  10.428  18.423  0.00  0.00    +0.000 NA
ATOM     23  N   UNL     1       0.834  11.323  18.980  0.00  0.00    +0.000 NA
BRANCH  19  27
ATOM     24  C   UNL     1      -2.624  12.896  22.433  0.00  0.00    +0.000 A 
ATOM     25  C   UNL     1      -1.773  11.916  22.967  0.00  0.00    +0.000 A 
ATOM     26  C   UNL     1      -0.859  11.190  22.181  0.00  0.00    +0.000 A 
ATOM     27  C   UNL     1      -0.753  11.445  20.814  0.00  0.00    +0.000 A 
ATOM     28  C   UNL     1      -1.571  12.431  20.253  0.00  0.00    +0.000 A 
ATOM     29  C   UNL     1      -2.490  13.132  21.055  0.00  0.00    +0.000 A 
BRANCH  24  31
ATOM     30  C   UNL     1      -3.793  15.014  22.995  0.00  0.00    +0.000 C 
ATOM     31  N   UNL     1      -3.532  13.597  23.225  0.00  0.00    +0.000 N 
ATOM     32  C   UNL     1      -4.043  13.013  24.459  0.00  0.00    +0.000 C 
ENDBRANCH  24  31
ENDBRANCH  19  27
ENDBRANCH   1  21
TORSDOF 5
ENDMDL
