MODEL 1
REMARK VINA RESULT:      -6.7      0.000      0.000
REMARK  Name = 
REMARK  15 active torsions:
REMARK  status: ('A' for Active; 'I' for Inactive)
REMARK    1  A    between atoms: N_1  and  C_2
REMARK    2  A    between atoms: C_5  and  N_6
REMARK    3  A    between atoms: N_6  and  C_7
REMARK    4  A    between atoms: N_6  and  C_11
REMARK    5  A    between atoms: C_7  and  C_8
REMARK    6  A    between atoms: C_8  and  O_10
REMARK    7  A    between atoms: C_11  and  C_12
REMARK    8  A    between atoms: C_12  and  O_14
REMARK    9  A    between atoms: C_15  and  N_16
REMARK   10  A    between atoms: N_16  and  C_17
REMARK   11  A    between atoms: N_16  and  C_21
REMARK   12  A    between atoms: C_17  and  C_18
REMARK   13  A    between atoms: C_18  and  O_20
REMARK   14  A    between atoms: C_21  and  C_22
REMARK   15  A    between atoms: C_22  and  O_24
REMARK                            x       y       z     vdW  Elec       q    Type
REMARK                         _______ _______ _______ _____ _____    ______ ____
ROOT
ATOM      1  C   UNL     1       2.241   7.200  18.776  0.00  0.00    +0.000 C 
ATOM      2  C   UNL     1       3.321   7.997  18.023  0.00  0.00    +0.000 C 
ATOM      3  C   UNL     1       4.161   7.102  17.102  0.00  0.00    +0.000 C 
ATOM      4  C   UNL     1       4.776   5.852  17.827  0.00  0.00    +0.000 C 
ATOM      5  C   UNL     1       3.699   5.081  18.691  0.00  0.00    +0.000 C 
ATOM      6  C   UNL     1       2.926   6.094  19.587  0.00  0.00    +0.000 C 
ENDROOT
BRANCH   1   7
ATOM      7  N   UNL     1       1.483   8.073  19.673  0.00  0.00    +0.000 NA
ATOM      8  H   UNL     1       1.458   9.041  19.278  0.00  0.00    +0.000 HD
ATOM      9  H   UNL     1       1.928   8.105  20.620  0.00  0.00    +0.000 HD
ENDBRANCH   1   7
BRANCH   4  10
ATOM     10  N   UNL     1       5.581   4.950  16.924  0.00  0.00    +0.000 NA
BRANCH  10  11
ATOM     11  C   UNL     1       5.444   5.259  15.469  0.00  0.00    +0.000 C 
BRANCH  11  12
ATOM     12  C   UNL     1       6.543   4.675  14.598  0.00  0.00    +0.000 C 
ATOM     13  O   UNL     1       7.522   5.342  14.309  0.00  0.00    +0.000 OA
BRANCH  12  14
ATOM     14  O   UNL     1       6.438   3.424  14.100  0.00  0.00    +0.000 OA
ATOM     15  H   UNL     1       5.589   3.056  13.814  0.00  0.00    +0.000 HD
ENDBRANCH  12  14
ENDBRANCH  11  12
ENDBRANCH  10  11
BRANCH  10  16
ATOM     16  C   UNL     1       7.012   4.875  17.338  0.00  0.00    +0.000 C 
BRANCH  16  17
ATOM     17  C   UNL     1       7.633   6.204  17.737  0.00  0.00    +0.000 C 
ATOM     18  O   UNL     1       8.023   6.353  18.885  0.00  0.00    +0.000 OA
BRANCH  17  19
ATOM     19  O   UNL     1       7.808   7.220  16.867  0.00  0.00    +0.000 OA
ATOM     20  H   UNL     1       7.487   7.203  15.962  0.00  0.00    +0.000 HD
ENDBRANCH  17  19
ENDBRANCH  16  17
ENDBRANCH  10  16
ENDBRANCH   4  10
BRANCH   5  21
ATOM     21  N   UNL     1       2.866   4.006  18.011  0.00  0.00    +0.000 NA
BRANCH  21  22
ATOM     22  C   UNL     1       3.279   2.629  18.433  0.00  0.00    +0.000 C 
BRANCH  22  23
ATOM     23  C   UNL     1       4.168   2.595  19.645  0.00  0.00    +0.000 C 
ATOM     24  O   UNL     1       3.692   2.351  20.743  0.00  0.00    +0.000 OA
BRANCH  23  25
ATOM     25  O   UNL     1       5.501   2.763  19.523  0.00  0.00    +0.000 OA
ATOM     26  H   UNL     1       5.996   3.308  20.150  0.00  0.00    +0.000 HD
ENDBRANCH  23  25
ENDBRANCH  22  23
ENDBRANCH  21  22
BRANCH  21  27
ATOM     27  C   UNL     1       1.375   4.005  18.029  0.00  0.00    +0.000 C 
BRANCH  27  28
ATOM     28  C   UNL     1       0.693   3.145  19.054  0.00  0.00    +0.000 C 
ATOM     29  O   UNL     1       0.192   2.083  18.716  0.00  0.00    +0.000 OA
BRANCH  28  30
ATOM     30  O   UNL     1       0.517   3.573  20.314  0.00  0.00    +0.000 OA
ATOM     31  H   UNL     1       0.030   3.025  20.933  0.00  0.00    +0.000 HD
ENDBRANCH  28  30
ENDBRANCH  27  28
ENDBRANCH  21  27
ENDBRANCH   5  21
TORSDOF 15
ENDMDL
MODEL 2
REMARK VINA RESULT:      -6.6      2.055      3.036
REMARK  Name = 
REMARK  15 active torsions:
REMARK  status: ('A' for Active; 'I' for Inactive)
REMARK    1  A    between atoms: N_1  and  C_2
REMARK    2  A    between atoms: C_5  and  N_6
REMARK    3  A    between atoms: N_6  and  C_7
REMARK    4  A    between atoms: N_6  and  C_11
REMARK    5  A    between atoms: C_7  and  C_8
REMARK    6  A    between atoms: C_8  and  O_10
REMARK    7  A    between atoms: C_11  and  C_12
REMARK    8  A    between atoms: C_12  and  O_14
REMARK    9  A    between atoms: C_15  and  N_16
REMARK   10  A    between atoms: N_16  and  C_17
REMARK   11  A    between atoms: N_16  and  C_21
REMARK   12  A    between atoms: C_17  and  C_18
REMARK   13  A    between atoms: C_18  and  O_20
REMARK   14  A    between atoms: C_21  and  C_22
REMARK   15  A    between atoms: C_22  and  O_24
REMARK                            x       y       z     vdW  Elec       q    Type
REMARK                         _______ _______ _______ _____ _____    ______ ____
ROOT
ATOM      1  C   UNL     1       2.202   7.580  18.197  0.00  0.00    +0.000 C 
ATOM      2  C   UNL     1       3.375   7.585  17.201  0.00  0.00    +0.000 C 
ATOM      3  C   UNL     1       4.171   6.273  17.242  0.00  0.00    +0.000 C 
ATOM      4  C   UNL     1       4.647   5.868  18.683  0.00  0.00    +0.000 C 
ATOM      5  C   UNL     1       3.474   5.960  19.739  0.00  0.00    +0.000 C 
ATOM      6  C   UNL     1       2.756   7.336  19.605  0.00  0.00    +0.000 C 
ENDROOT
BRANCH   1   7
ATOM      7  N   UNL     1       1.487   8.857  18.162  0.00  0.00    +0.000 NA
ATOM      8  H   UNL     1       0.461   8.685  18.276  0.00  0.00    +0.000 HD
ATOM      9  H   UNL     1       1.649   9.345  17.249  0.00  0.00    +0.000 HD
ENDBRANCH   1   7
BRANCH   4  10
ATOM     10  N   UNL     1       5.405   4.565  18.737  0.00  0.00    +0.000 NA
BRANCH  10  11
ATOM     11  C   UNL     1       4.743   3.439  18.014  0.00  0.00    +0.000 C 
BRANCH  11  12
ATOM     12  C   UNL     1       4.450   2.224  18.879  0.00  0.00    +0.000 C 
ATOM     13  O   UNL     1       3.647   1.383  18.509  0.00  0.00    +0.000 OA
BRANCH  12  14
ATOM     14  O   UNL     1       5.042   2.073  20.083  0.00  0.00    +0.000 OA
ATOM     15  H   UNL     1       4.547   2.155  20.910  0.00  0.00    +0.000 HD
ENDBRANCH  12  14
ENDBRANCH  11  12
ENDBRANCH  10  11
BRANCH  10  16
ATOM     16  C   UNL     1       6.828   4.727  18.318  0.00  0.00    +0.000 C 
BRANCH  16  17
ATOM     17  C   UNL     1       7.644   5.679  19.178  0.00  0.00    +0.000 C 
ATOM     18  O   UNL     1       8.037   6.727  18.690  0.00  0.00    +0.000 OA
BRANCH  17  19
ATOM     19  O   UNL     1       7.925   5.434  20.475  0.00  0.00    +0.000 OA
ATOM     20  H   UNL     1       8.712   4.966  20.767  0.00  0.00    +0.000 HD
ENDBRANCH  17  19
ENDBRANCH  16  17
ENDBRANCH  10  16
ENDBRANCH   4  10
BRANCH   5  21
ATOM     21  N   UNL     1       2.578   4.746  19.929  0.00  0.00    +0.000 NA
BRANCH  21  22
ATOM     22  C   UNL     1       2.336   4.452  21.378  0.00  0.00    +0.000 C 
BRANCH  22  23
ATOM     23  C   UNL     1       2.046   3.006  21.676  0.00  0.00    +0.000 C 
ATOM     24  O   UNL     1       2.936   2.281  22.091  0.00  0.00    +0.000 OA
BRANCH  23  25
ATOM     25  O   UNL     1       0.795   2.518  21.553  0.00  0.00    +0.000 OA
ATOM     26  H   UNL     1       0.565   1.639  21.886  0.00  0.00    +0.000 HD
ENDBRANCH  23  25
ENDBRANCH  22  23
ENDBRANCH  21  22
BRANCH  21  27
ATOM     27  C   UNL     1       1.254   4.604  19.259  0.00  0.00    +0.000 C 
BRANCH  27  28
ATOM     28  C   UNL     1       1.145   3.613  18.136  0.00  0.00    +0.000 C 
ATOM     29  O   UNL     1       1.349   3.975  16.987  0.00  0.00    +0.000 OA
BRANCH  28  30
ATOM     30  O   UNL     1       0.712   2.361  18.354  0.00  0.00    +0.000 OA
ATOM     31  H   UNL     1      -0.070   2.047  17.893  0.00  0.00    +0.000 HD
ENDBRANCH  28  30
ENDBRANCH  27  28
ENDBRANCH  21  27
ENDBRANCH   5  21
TORSDOF 15
ENDMDL
MODEL 3
REMARK VINA RESULT:      -6.5      1.397      1.695
REMARK  Name = 
REMARK  15 active torsions:
REMARK  status: ('A' for Active; 'I' for Inactive)
REMARK    1  A    between atoms: N_1  and  C_2
REMARK    2  A    between atoms: C_5  and  N_6
REMARK    3  A    between atoms: N_6  and  C_7
REMARK    4  A    between atoms: N_6  and  C_11
REMARK    5  A    between atoms: C_7  and  C_8
REMARK    6  A    between atoms: C_8  and  O_10
REMARK    7  A    between atoms: C_11  and  C_12
REMARK    8  A    between atoms: C_12  and  O_14
REMARK    9  A    between atoms: C_15  and  N_16
REMARK   10  A    between atoms: N_16  and  C_17
REMARK   11  A    between atoms: N_16  and  C_21
REMARK   12  A    between atoms: C_17  and  C_18
REMARK   13  A    between atoms: C_18  and  O_20
REMARK   14  A    between atoms: C_21  and  C_22
REMARK   15  A    between atoms: C_22  and  O_24
REMARK                            x       y       z     vdW  Elec       q    Type
REMARK                         _______ _______ _______ _____ _____    ______ ____
ROOT
ATOM      1  C   UNL     1       1.854   7.647  19.279  0.00  0.00    +0.000 C 
ATOM      2  C   UNL     1       2.646   8.127  18.051  0.00  0.00    +0.000 C 
ATOM      3  C   UNL     1       3.368   6.972  17.343  0.00  0.00    +0.000 C 
ATOM      4  C   UNL     1       4.266   6.109  18.300  0.00  0.00    +0.000 C 
ATOM      5  C   UNL     1       3.496   5.695  19.618  0.00  0.00    +0.000 C 
ATOM      6  C   UNL     1       2.820   6.952  20.244  0.00  0.00    +0.000 C 
ENDROOT
BRANCH   1   7
ATOM      7  N   UNL     1       1.208   8.774  19.953  0.00  0.00    +0.000 NA
ATOM      8  H   UNL     1       1.938   9.442  20.293  0.00  0.00    +0.000 HD
ATOM      9  H   UNL     1       0.646   8.442  20.772  0.00  0.00    +0.000 HD
ENDBRANCH   1   7
BRANCH   4  10
ATOM     10  N   UNL     1       4.958   4.953  17.619  0.00  0.00    +0.000 NA
BRANCH  10  11
ATOM     11  C   UNL     1       5.322   5.211  16.194  0.00  0.00    +0.000 C 
BRANCH  11  12
ATOM     12  C   UNL     1       6.426   4.315  15.658  0.00  0.00    +0.000 C 
ATOM     13  O   UNL     1       7.554   4.753  15.501  0.00  0.00    +0.000 OA
BRANCH  12  14
ATOM     14  O   UNL     1       6.172   3.035  15.313  0.00  0.00    +0.000 OA
ATOM     15  H   UNL     1       6.789   2.318  15.517  0.00  0.00    +0.000 HD
ENDBRANCH  12  14
ENDBRANCH  11  12
ENDBRANCH  10  11
BRANCH  10  16
ATOM     16  C   UNL     1       6.125   4.459  18.405  0.00  0.00    +0.000 C 
BRANCH  16  17
ATOM     17  C   UNL     1       7.049   5.546  18.932  0.00  0.00    +0.000 C 
ATOM     18  O   UNL     1       7.301   5.578  20.126  0.00  0.00    +0.000 OA
BRANCH  17  19
ATOM     19  O   UNL     1       7.636   6.458  18.130  0.00  0.00    +0.000 OA
ATOM     20  H   UNL     1       8.106   6.230  17.323  0.00  0.00    +0.000 HD
ENDBRANCH  17  19
ENDBRANCH  16  17
ENDBRANCH  10  16
ENDBRANCH   4  10
BRANCH   5  21
ATOM     21  N   UNL     1       2.668   4.420  19.598  0.00  0.00    +0.000 NA
BRANCH  21  22
ATOM     22  C   UNL     1       1.899   4.235  20.871  0.00  0.00    +0.000 C 
BRANCH  22  23
ATOM     23  C   UNL     1       2.231   2.971  21.615  0.00  0.00    +0.000 C 
ATOM     24  O   UNL     1       1.368   2.403  22.266  0.00  0.00    +0.000 OA
BRANCH  23  25
ATOM     25  O   UNL     1       3.458   2.419  21.516  0.00  0.00    +0.000 OA
ATOM     26  H   UNL     1       3.664   1.776  20.824  0.00  0.00    +0.000 HD
ENDBRANCH  23  25
ENDBRANCH  22  23
ENDBRANCH  21  22
BRANCH  21  27
ATOM     27  C   UNL     1       1.717   4.089  18.498  0.00  0.00    +0.000 C 
BRANCH  27  28
ATOM     28  C   UNL     1       1.405   2.639  18.262  0.00  0.00    +0.000 C 
ATOM     29  O   UNL     1       0.273   2.224  18.457  0.00  0.00    +0.000 OA
BRANCH  28  30
ATOM     30  O   UNL     1       2.374   1.762  17.955  0.00  0.00    +0.000 OA
ATOM     31  H   UNL     1       2.688   1.154  18.628  0.00  0.00    +0.000 HD
ENDBRANCH  28  30
ENDBRANCH  27  28
ENDBRANCH  21  27
ENDBRANCH   5  21
TORSDOF 15
ENDMDL
MODEL 4
REMARK VINA RESULT:      -6.5      1.802      5.552
REMARK  Name = 
REMARK  15 active torsions:
REMARK  status: ('A' for Active; 'I' for Inactive)
REMARK    1  A    between atoms: N_1  and  C_2
REMARK    2  A    between atoms: C_5  and  N_6
REMARK    3  A    between atoms: N_6  and  C_7
REMARK    4  A    between atoms: N_6  and  C_11
REMARK    5  A    between atoms: C_7  and  C_8
REMARK    6  A    between atoms: C_8  and  O_10
REMARK    7  A    between atoms: C_11  and  C_12
REMARK    8  A    between atoms: C_12  and  O_14
REMARK    9  A    between atoms: C_15  and  N_16
REMARK   10  A    between atoms: N_16  and  C_17
REMARK   11  A    between atoms: N_16  and  C_21
REMARK   12  A    between atoms: C_17  and  C_18
REMARK   13  A    between atoms: C_18  and  O_20
REMARK   14  A    between atoms: C_21  and  C_22
REMARK   15  A    between atoms: C_22  and  O_24
REMARK                            x       y       z     vdW  Elec       q    Type
REMARK                         _______ _______ _______ _____ _____    ______ ____
ROOT
ATOM      1  C   UNL     1       2.558   8.642  18.266  0.00  0.00    +0.000 C 
ATOM      2  C   UNL     1       1.724   8.332  19.521  0.00  0.00    +0.000 C 
ATOM      3  C   UNL     1       2.069   6.960  20.118  0.00  0.00    +0.000 C 
ATOM      4  C   UNL     1       1.997   5.784  19.079  0.00  0.00    +0.000 C 
ATOM      5  C   UNL     1       2.763   6.131  17.741  0.00  0.00    +0.000 C 
ATOM      6  C   UNL     1       2.318   7.536  17.233  0.00  0.00    +0.000 C 
ENDROOT
BRANCH   1   7
ATOM      7  N   UNL     1       2.180   9.938  17.700  0.00  0.00    +0.000 NA
ATOM      8  H   UNL     1       1.923   9.817  16.693  0.00  0.00    +0.000 HD
ATOM      9  H   UNL     1       2.976  10.615  17.767  0.00  0.00    +0.000 HD
ENDBRANCH   1   7
BRANCH   4  10
ATOM     10  N   UNL     1       2.362   4.435  19.649  0.00  0.00    +0.000 NA
BRANCH  10  11
ATOM     11  C   UNL     1       2.219   4.337  21.132  0.00  0.00    +0.000 C 
BRANCH  11  12
ATOM     12  C   UNL     1       2.419   2.939  21.691  0.00  0.00    +0.000 C 
ATOM     13  O   UNL     1       3.482   2.360  21.539  0.00  0.00    +0.000 OA
BRANCH  12  14
ATOM     14  O   UNL     1       1.416   2.300  22.331  0.00  0.00    +0.000 OA
ATOM     15  H   UNL     1       0.553   2.159  21.916  0.00  0.00    +0.000 HD
ENDBRANCH  12  14
ENDBRANCH  11  12
ENDBRANCH  10  11
BRANCH  10  16
ATOM     16  C   UNL     1       1.652   3.323  18.953  0.00  0.00    +0.000 C 
BRANCH  16  17
ATOM     17  C   UNL     1       2.486   2.579  17.921  0.00  0.00    +0.000 C 
ATOM     18  O   UNL     1       3.203   1.662  18.293  0.00  0.00    +0.000 OA
BRANCH  17  19
ATOM     19  O   UNL     1       2.441   2.861  16.603  0.00  0.00    +0.000 OA
ATOM     20  H   UNL     1       2.119   2.244  15.940  0.00  0.00    +0.000 HD
ENDBRANCH  17  19
ENDBRANCH  16  17
ENDBRANCH  10  16
ENDBRANCH   4  10
BRANCH   5  21
ATOM     21  N   UNL     1       4.250   5.823  17.661  0.00  0.00    +0.000 NA
BRANCH  21  22
ATOM     22  C   UNL     1       4.884   6.441  16.452  0.00  0.00    +0.000 C 
BRANCH  22  23
ATOM     23  C   UNL     1       5.840   5.535  15.724  0.00  0.00    +0.000 C 
ATOM     24  O   UNL     1       5.416   4.560  15.123  0.00  0.00    +0.000 OA
BRANCH  23  25
ATOM     25  O   UNL     1       7.155   5.827  15.671  0.00  0.00    +0.000 OA
ATOM     26  H   UNL     1       7.513   6.612  16.109  0.00  0.00    +0.000 HD
ENDBRANCH  23  25
ENDBRANCH  22  23
ENDBRANCH  21  22
BRANCH  21  27
ATOM     27  C   UNL     1       5.192   6.080  18.788  0.00  0.00    +0.000 C 
BRANCH  27  28
ATOM     28  C   UNL     1       5.919   4.901  19.369  0.00  0.00    +0.000 C 
ATOM     29  O   UNL     1       7.041   5.049  19.829  0.00  0.00    +0.000 OA
BRANCH  28  30
ATOM     30  O   UNL     1       5.410   3.662  19.286  0.00  0.00    +0.000 OA
ATOM     31  H   UNL     1       4.531   3.538  18.920  0.00  0.00    +0.000 HD
ENDBRANCH  28  30
ENDBRANCH  27  28
ENDBRANCH  21  27
ENDBRANCH   5  21
TORSDOF 15
ENDMDL
MODEL 5
REMARK VINA RESULT:      -6.4      0.460      1.324
REMARK  Name = 
REMARK  15 active torsions:
REMARK  status: ('A' for Active; 'I' for Inactive)
REMARK    1  A    between atoms: N_1  and  C_2
REMARK    2  A    between atoms: C_5  and  N_6
REMARK    3  A    between atoms: N_6  and  C_7
REMARK    4  A    between atoms: N_6  and  C_11
REMARK    5  A    between atoms: C_7  and  C_8
REMARK    6  A    between atoms: C_8  and  O_10
REMARK    7  A    between atoms: C_11  and  C_12
REMARK    8  A    between atoms: C_12  and  O_14
REMARK    9  A    between atoms: C_15  and  N_16
REMARK   10  A    between atoms: N_16  and  C_17
REMARK   11  A    between atoms: N_16  and  C_21
REMARK   12  A    between atoms: C_17  and  C_18
REMARK   13  A    between atoms: C_18  and  O_20
REMARK   14  A    between atoms: C_21  and  C_22
REMARK   15  A    between atoms: C_22  and  O_24
REMARK                            x       y       z     vdW  Elec       q    Type
REMARK                         _______ _______ _______ _____ _____    ______ ____
ROOT
ATOM      1  C   UNL     1       2.297   6.693  19.148  0.00  0.00    +0.000 C 
ATOM      2  C   UNL     1       3.261   7.631  18.401  0.00  0.00    +0.000 C 
ATOM      3  C   UNL     1       4.123   6.876  17.378  0.00  0.00    +0.000 C 
ATOM      4  C   UNL     1       4.881   5.641  17.982  0.00  0.00    +0.000 C 
ATOM      5  C   UNL     1       3.923   4.723  18.842  0.00  0.00    +0.000 C 
ATOM      6  C   UNL     1       3.117   5.602  19.845  0.00  0.00    +0.000 C 
ENDROOT
BRANCH   1   7
ATOM      7  N   UNL     1       1.518   7.435  20.141  0.00  0.00    +0.000 NA
ATOM      8  H   UNL     1       0.838   6.790  20.603  0.00  0.00    +0.000 HD
ATOM      9  H   UNL     1       0.988   8.215  19.685  0.00  0.00    +0.000 HD
ENDBRANCH   1   7
BRANCH   4  10
ATOM     10  N   UNL     1       5.708   4.874  16.979  0.00  0.00    +0.000 NA
BRANCH  10  11
ATOM     11  C   UNL     1       5.490   5.289  15.561  0.00  0.00    +0.000 C 
BRANCH  11  12
ATOM     12  C   UNL     1       6.519   4.745  14.584  0.00  0.00    +0.000 C 
ATOM     13  O   UNL     1       6.345   3.666  14.043  0.00  0.00    +0.000 OA
BRANCH  12  14
ATOM     14  O   UNL     1       7.655   5.428  14.325  0.00  0.00    +0.000 OA
ATOM     15  H   UNL     1       8.493   4.976  14.149  0.00  0.00    +0.000 HD
ENDBRANCH  12  14
ENDBRANCH  11  12
ENDBRANCH  10  11
BRANCH  10  16
ATOM     16  C   UNL     1       7.156   4.869  17.335  0.00  0.00    +0.000 C 
BRANCH  16  17
ATOM     17  C   UNL     1       7.710   6.213  17.784  0.00  0.00    +0.000 C 
ATOM     18  O   UNL     1       7.779   7.123  16.973  0.00  0.00    +0.000 OA
BRANCH  17  19
ATOM     19  O   UNL     1       8.095   6.458  19.054  0.00  0.00    +0.000 OA
ATOM     20  H   UNL     1       8.830   7.033  19.282  0.00  0.00    +0.000 HD
ENDBRANCH  17  19
ENDBRANCH  16  17
ENDBRANCH  10  16
ENDBRANCH   4  10
BRANCH   5  21
ATOM     21  N   UNL     1       3.147   3.625  18.131  0.00  0.00    +0.000 NA
BRANCH  21  22
ATOM     22  C   UNL     1       3.387   2.281  18.749  0.00  0.00    +0.000 C 
BRANCH  22  23
ATOM     23  C   UNL     1       3.969   2.334  20.135  0.00  0.00    +0.000 C 
ATOM     24  O   UNL     1       5.179   2.295  20.289  0.00  0.00    +0.000 OA
BRANCH  23  25
ATOM     25  O   UNL     1       3.168   2.492  21.209  0.00  0.00    +0.000 OA
ATOM     26  H   UNL     1       2.308   2.928  21.133  0.00  0.00    +0.000 HD
ENDBRANCH  23  25
ENDBRANCH  22  23
ENDBRANCH  21  22
BRANCH  21  27
ATOM     27  C   UNL     1       1.679   3.701  17.883  0.00  0.00    +0.000 C 
BRANCH  27  28
ATOM     28  C   UNL     1       0.779   2.918  18.797  0.00  0.00    +0.000 C 
ATOM     29  O   UNL     1       0.615   3.290  19.949  0.00  0.00    +0.000 OA
BRANCH  28  30
ATOM     30  O   UNL     1       0.243   1.750  18.410  0.00  0.00    +0.000 OA
ATOM     31  H   UNL     1       0.157   1.560  17.473  0.00  0.00    +0.000 HD
ENDBRANCH  28  30
ENDBRANCH  27  28
ENDBRANCH  21  27
ENDBRANCH   5  21
TORSDOF 15
ENDMDL
MODEL 6
REMARK VINA RESULT:      -6.4      0.902      1.003
REMARK  Name = 
REMARK  15 active torsions:
REMARK  status: ('A' for Active; 'I' for Inactive)
REMARK    1  A    between atoms: N_1  and  C_2
REMARK    2  A    between atoms: C_5  and  N_6
REMARK    3  A    between atoms: N_6  and  C_7
REMARK    4  A    between atoms: N_6  and  C_11
REMARK    5  A    between atoms: C_7  and  C_8
REMARK    6  A    between atoms: C_8  and  O_10
REMARK    7  A    between atoms: C_11  and  C_12
REMARK    8  A    between atoms: C_12  and  O_14
REMARK    9  A    between atoms: C_15  and  N_16
REMARK   10  A    between atoms: N_16  and  C_17
REMARK   11  A    between atoms: N_16  and  C_21
REMARK   12  A    between atoms: C_17  and  C_18
REMARK   13  A    between atoms: C_18  and  O_20
REMARK   14  A    between atoms: C_21  and  C_22
REMARK   15  A    between atoms: C_22  and  O_24
REMARK                            x       y       z     vdW  Elec       q    Type
REMARK                         _______ _______ _______ _____ _____    ______ ____
ROOT
ATOM      1  C   UNL     1       2.304   7.274  18.715  0.00  0.00    +0.000 C 
ATOM      2  C   UNL     1       3.230   7.991  17.716  0.00  0.00    +0.000 C 
ATOM      3  C   UNL     1       4.162   7.011  16.988  0.00  0.00    +0.000 C 
ATOM      4  C   UNL     1       4.976   6.080  17.956  0.00  0.00    +0.000 C 
ATOM      5  C   UNL     1       4.052   5.417  19.054  0.00  0.00    +0.000 C 
ATOM      6  C   UNL     1       3.169   6.512  19.724  0.00  0.00    +0.000 C 
ENDROOT
BRANCH   1   7
ATOM      7  N   UNL     1       1.456   8.237  19.418  0.00  0.00    +0.000 NA
ATOM      8  H   UNL     1       1.801   9.207  19.232  0.00  0.00    +0.000 HD
ATOM      9  H   UNL     1       1.478   8.063  20.451  0.00  0.00    +0.000 HD
ENDBRANCH   1   7
BRANCH   4  10
ATOM     10  N   UNL     1       5.874   5.093  17.249  0.00  0.00    +0.000 NA
BRANCH  10  11
ATOM     11  C   UNL     1       6.376   5.561  15.923  0.00  0.00    +0.000 C 
BRANCH  11  12
ATOM     12  C   UNL     1       6.506   4.465  14.879  0.00  0.00    +0.000 C 
ATOM     13  O   UNL     1       6.984   4.710  13.784  0.00  0.00    +0.000 OA
BRANCH  12  14
ATOM     14  O   UNL     1       6.065   3.214  15.131  0.00  0.00    +0.000 OA
ATOM     15  H   UNL     1       6.173   2.799  15.999  0.00  0.00    +0.000 HD
ENDBRANCH  12  14
ENDBRANCH  11  12
ENDBRANCH  10  11
BRANCH  10  16
ATOM     16  C   UNL     1       6.987   4.623  18.125  0.00  0.00    +0.000 C 
BRANCH  16  17
ATOM     17  C   UNL     1       7.575   5.687  19.039  0.00  0.00    +0.000 C 
ATOM     18  O   UNL     1       7.629   5.468  20.239  0.00  0.00    +0.000 OA
BRANCH  17  19
ATOM     19  O   UNL     1       8.076   6.851  18.578  0.00  0.00    +0.000 OA
ATOM     20  H   UNL     1       7.564   7.482  18.066  0.00  0.00    +0.000 HD
ENDBRANCH  17  19
ENDBRANCH  16  17
ENDBRANCH  10  16
ENDBRANCH   4  10
BRANCH   5  21
ATOM     21  N   UNL     1       3.363   4.103  18.719  0.00  0.00    +0.000 NA
BRANCH  21  22
ATOM     22  C   UNL     1       3.402   3.143  19.869  0.00  0.00    +0.000 C 
BRANCH  22  23
ATOM     23  C   UNL     1       4.353   1.993  19.682  0.00  0.00    +0.000 C 
ATOM     24  O   UNL     1       5.212   1.771  20.521  0.00  0.00    +0.000 OA
BRANCH  23  25
ATOM     25  O   UNL     1       4.222   1.160  18.630  0.00  0.00    +0.000 OA
ATOM     26  H   UNL     1       4.945   0.575  18.361  0.00  0.00    +0.000 HD
ENDBRANCH  23  25
ENDBRANCH  22  23
ENDBRANCH  21  22
BRANCH  21  27
ATOM     27  C   UNL     1       1.975   4.032  18.179  0.00  0.00    +0.000 C 
BRANCH  27  28
ATOM     28  C   UNL     1       0.965   3.241  18.961  0.00  0.00    +0.000 C 
ATOM     29  O   UNL     1       0.542   2.187  18.511  0.00  0.00    +0.000 OA
BRANCH  28  30
ATOM     30  O   UNL     1       0.426   3.727  20.090  0.00  0.00    +0.000 OA
ATOM     31  H   UNL     1      -0.198   4.455  20.038  0.00  0.00    +0.000 HD
ENDBRANCH  28  30
ENDBRANCH  27  28
ENDBRANCH  21  27
ENDBRANCH   5  21
TORSDOF 15
ENDMDL
MODEL 7
REMARK VINA RESULT:      -6.3      2.056      5.493
REMARK  Name = 
REMARK  15 active torsions:
REMARK  status: ('A' for Active; 'I' for Inactive)
REMARK    1  A    between atoms: N_1  and  C_2
REMARK    2  A    between atoms: C_5  and  N_6
REMARK    3  A    between atoms: N_6  and  C_7
REMARK    4  A    between atoms: N_6  and  C_11
REMARK    5  A    between atoms: C_7  and  C_8
REMARK    6  A    between atoms: C_8  and  O_10
REMARK    7  A    between atoms: C_11  and  C_12
REMARK    8  A    between atoms: C_12  and  O_14
REMARK    9  A    between atoms: C_15  and  N_16
REMARK   10  A    between atoms: N_16  and  C_17
REMARK   11  A    between atoms: N_16  and  C_21
REMARK   12  A    between atoms: C_17  and  C_18
REMARK   13  A    between atoms: C_18  and  O_20
REMARK   14  A    between atoms: C_21  and  C_22
REMARK   15  A    between atoms: C_22  and  O_24
REMARK                            x       y       z     vdW  Elec       q    Type
REMARK                         _______ _______ _______ _____ _____    ______ ____
ROOT
ATOM      1  C   UNL     1       6.621   5.374  15.929  0.00  0.00    +0.000 C 
ATOM      2  C   UNL     1       5.439   6.236  15.454  0.00  0.00    +0.000 C 
ATOM      3  C   UNL     1       4.361   6.384  16.537  0.00  0.00    +0.000 C 
ATOM      4  C   UNL     1       3.869   5.014  17.128  0.00  0.00    +0.000 C 
ATOM      5  C   UNL     1       5.077   4.074  17.524  0.00  0.00    +0.000 C 
ATOM      6  C   UNL     1       6.090   3.998  16.343  0.00  0.00    +0.000 C 
ENDROOT
BRANCH   1   7
ATOM      7  N   UNL     1       7.613   5.222  14.863  0.00  0.00    +0.000 NA
ATOM      8  H   UNL     1       8.543   5.558  15.201  0.00  0.00    +0.000 HD
ATOM      9  H   UNL     1       7.337   5.779  14.020  0.00  0.00    +0.000 HD
ENDBRANCH   1   7
BRANCH   4  10
ATOM     10  N   UNL     1       2.830   5.149  18.214  0.00  0.00    +0.000 NA
BRANCH  10  11
ATOM     11  C   UNL     1       2.634   6.546  18.704  0.00  0.00    +0.000 C 
BRANCH  11  12
ATOM     12  C   UNL     1       2.131   6.644  20.134  0.00  0.00    +0.000 C 
ATOM     13  O   UNL     1       1.619   7.675  20.539  0.00  0.00    +0.000 OA
BRANCH  12  14
ATOM     14  O   UNL     1       2.273   5.609  20.990  0.00  0.00    +0.000 OA
ATOM     15  H   UNL     1       1.672   4.850  20.978  0.00  0.00    +0.000 HD
ENDBRANCH  12  14
ENDBRANCH  11  12
ENDBRANCH  10  11
BRANCH  10  16
ATOM     16  C   UNL     1       1.536   4.512  17.833  0.00  0.00    +0.000 C 
BRANCH  16  17
ATOM     17  C   UNL     1       1.208   3.231  18.584  0.00  0.00    +0.000 C 
ATOM     18  O   UNL     1       0.746   3.310  19.712  0.00  0.00    +0.000 OA
BRANCH  17  19
ATOM     19  O   UNL     1       1.368   2.005  18.045  0.00  0.00    +0.000 OA
ATOM     20  H   UNL     1       1.773   1.853  17.187  0.00  0.00    +0.000 HD
ENDBRANCH  17  19
ENDBRANCH  16  17
ENDBRANCH  10  16
ENDBRANCH   4  10
BRANCH   5  21
ATOM     21  N   UNL     1       5.672   4.214  18.917  0.00  0.00    +0.000 NA
BRANCH  21  22
ATOM     22  C   UNL     1       6.106   5.621  19.199  0.00  0.00    +0.000 C 
BRANCH  22  23
ATOM     23  C   UNL     1       7.572   5.766  19.506  0.00  0.00    +0.000 C 
ATOM     24  O   UNL     1       8.283   6.439  18.776  0.00  0.00    +0.000 OA
BRANCH  23  25
ATOM     25  O   UNL     1       8.097   5.215  20.620  0.00  0.00    +0.000 OA
ATOM     26  H   UNL     1       7.603   4.564  21.138  0.00  0.00    +0.000 HD
ENDBRANCH  23  25
ENDBRANCH  22  23
ENDBRANCH  21  22
BRANCH  21  27
ATOM     27  C   UNL     1       4.970   3.753  20.148  0.00  0.00    +0.000 C 
BRANCH  27  28
ATOM     28  C   UNL     1       4.203   2.463  20.069  0.00  0.00    +0.000 C 
ATOM     29  O   UNL     1       4.340   1.737  19.096  0.00  0.00    +0.000 OA
BRANCH  28  30
ATOM     30  O   UNL     1       3.279   2.147  20.990  0.00  0.00    +0.000 OA
ATOM     31  H   UNL     1       3.563   1.865  21.862  0.00  0.00    +0.000 HD
ENDBRANCH  28  30
ENDBRANCH  27  28
ENDBRANCH  21  27
ENDBRANCH   5  21
TORSDOF 15
ENDMDL
MODEL 8
REMARK VINA RESULT:      -6.3      1.865      5.571
REMARK  Name = 
REMARK  15 active torsions:
REMARK  status: ('A' for Active; 'I' for Inactive)
REMARK    1  A    between atoms: N_1  and  C_2
REMARK    2  A    between atoms: C_5  and  N_6
REMARK    3  A    between atoms: N_6  and  C_7
REMARK    4  A    between atoms: N_6  and  C_11
REMARK    5  A    between atoms: C_7  and  C_8
REMARK    6  A    between atoms: C_8  and  O_10
REMARK    7  A    between atoms: C_11  and  C_12
REMARK    8  A    between atoms: C_12  and  O_14
REMARK    9  A    between atoms: C_15  and  N_16
REMARK   10  A    between atoms: N_16  and  C_17
REMARK   11  A    between atoms: N_16  and  C_21
REMARK   12  A    between atoms: C_17  and  C_18
REMARK   13  A    between atoms: C_18  and  O_20
REMARK   14  A    between atoms: C_21  and  C_22
REMARK   15  A    between atoms: C_22  and  O_24
REMARK                            x       y       z     vdW  Elec       q    Type
REMARK                         _______ _______ _______ _____ _____    ______ ____
ROOT
ATOM      1  C   UNL     1       2.353   8.830  18.589  0.00  0.00    +0.000 C 
ATOM      2  C   UNL     1       1.460   8.412  19.771  0.00  0.00    +0.000 C 
ATOM      3  C   UNL     1       1.818   7.015  20.298  0.00  0.00    +0.000 C 
ATOM      4  C   UNL     1       1.845   5.909  19.184  0.00  0.00    +0.000 C 
ATOM      5  C   UNL     1       2.674   6.367  17.918  0.00  0.00    +0.000 C 
ATOM      6  C   UNL     1       2.210   7.787  17.475  0.00  0.00    +0.000 C 
ENDROOT
BRANCH   1   7
ATOM      7  N   UNL     1       1.963  10.148  18.085  0.00  0.00    +0.000 NA
ATOM      8  H   UNL     1       2.264  10.243  17.088  0.00  0.00    +0.000 HD
ATOM      9  H   UNL     1       2.416  10.906  18.649  0.00  0.00    +0.000 HD
ENDBRANCH   1   7
BRANCH   4  10
ATOM     10  N   UNL     1       2.224   4.538  19.687  0.00  0.00    +0.000 NA
BRANCH  10  11
ATOM     11  C   UNL     1       2.202   4.403  21.174  0.00  0.00    +0.000 C 
BRANCH  11  12
ATOM     12  C   UNL     1       2.360   2.978  21.677  0.00  0.00    +0.000 C 
ATOM     13  O   UNL     1       1.461   2.441  22.303  0.00  0.00    +0.000 OA
BRANCH  12  14
ATOM     14  O   UNL     1       3.507   2.296  21.472  0.00  0.00    +0.000 OA
ATOM     15  H   UNL     1       3.577   1.347  21.651  0.00  0.00    +0.000 HD
ENDBRANCH  12  14
ENDBRANCH  11  12
ENDBRANCH  10  11
BRANCH  10  16
ATOM     16  C   UNL     1       1.432   3.460  19.025  0.00  0.00    +0.000 C 
BRANCH  16  17
ATOM     17  C   UNL     1       2.215   2.604  18.041  0.00  0.00    +0.000 C 
ATOM     18  O   UNL     1       2.268   2.949  16.871  0.00  0.00    +0.000 OA
BRANCH  17  19
ATOM     19  O   UNL     1       2.888   1.495  18.411  0.00  0.00    +0.000 OA
ATOM     20  H   UNL     1       3.831   1.484  18.591  0.00  0.00    +0.000 HD
ENDBRANCH  17  19
ENDBRANCH  16  17
ENDBRANCH  10  16
ENDBRANCH   4  10
BRANCH   5  21
ATOM     21  N   UNL     1       4.173   6.111  17.906  0.00  0.00    +0.000 NA
BRANCH  21  22
ATOM     22  C   UNL     1       4.658   5.578  19.221  0.00  0.00    +0.000 C 
BRANCH  22  23
ATOM     23  C   UNL     1       5.634   4.440  19.104  0.00  0.00    +0.000 C 
ATOM     24  O   UNL     1       6.819   4.670  18.922  0.00  0.00    +0.000 OA
BRANCH  23  25
ATOM     25  O   UNL     1       5.224   3.165  19.266  0.00  0.00    +0.000 OA
ATOM     26  H   UNL     1       4.963   2.622  18.509  0.00  0.00    +0.000 HD
ENDBRANCH  23  25
ENDBRANCH  22  23
ENDBRANCH  21  22
BRANCH  21  27
ATOM     27  C   UNL     1       4.846   5.286  16.862  0.00  0.00    +0.000 C 
BRANCH  27  28
ATOM     28  C   UNL     1       5.788   5.985  15.925  0.00  0.00    +0.000 C 
ATOM     29  O   UNL     1       5.341   6.643  14.997  0.00  0.00    +0.000 OA
BRANCH  28  30
ATOM     30  O   UNL     1       7.116   5.807  16.014  0.00  0.00    +0.000 OA
ATOM     31  H   UNL     1       7.470   5.251  16.711  0.00  0.00    +0.000 HD
ENDBRANCH  28  30
ENDBRANCH  27  28
ENDBRANCH  21  27
ENDBRANCH   5  21
TORSDOF 15
ENDMDL
MODEL 9
REMARK VINA RESULT:      -6.2      2.202      4.331
REMARK  Name = 
REMARK  15 active torsions:
REMARK  status: ('A' for Active; 'I' for Inactive)
REMARK    1  A    between atoms: N_1  and  C_2
REMARK    2  A    between atoms: C_5  and  N_6
REMARK    3  A    between atoms: N_6  and  C_7
REMARK    4  A    between atoms: N_6  and  C_11
REMARK    5  A    between atoms: C_7  and  C_8
REMARK    6  A    between atoms: C_8  and  O_10
REMARK    7  A    between atoms: C_11  and  C_12
REMARK    8  A    between atoms: C_12  and  O_14
REMARK    9  A    between atoms: C_15  and  N_16
REMARK   10  A    between atoms: N_16  and  C_17
REMARK   11  A    between atoms: N_16  and  C_21
REMARK   12  A    between atoms: C_17  and  C_18
REMARK   13  A    between atoms: C_18  and  O_20
REMARK   14  A    between atoms: C_21  and  C_22
REMARK   15  A    between atoms: C_22  and  O_24
REMARK                            x       y       z     vdW  Elec       q    Type
REMARK                         _______ _______ _______ _____ _____    ______ ____
ROOT
ATOM      1  C   UNL     1       1.548   2.622  18.700  0.00  0.00    +0.000 C 
ATOM      2  C   UNL     1       2.764   1.691  18.549  0.00  0.00    +0.000 C 
ATOM      3  C   UNL     1       4.082   2.473  18.470  0.00  0.00    +0.000 C 
ATOM      4  C   UNL     1       4.083   3.598  17.373  0.00  0.00    +0.000 C 
ATOM      5  C   UNL     1       2.786   4.499  17.451  0.00  0.00    +0.000 C 
ATOM      6  C   UNL     1       1.522   3.591  17.514  0.00  0.00    +0.000 C 
ENDROOT
BRANCH   1   7
ATOM      7  N   UNL     1       0.305   1.849  18.735  0.00  0.00    +0.000 NA
ATOM      8  H   UNL     1      -0.262   2.062  17.882  0.00  0.00    +0.000 HD
ATOM      9  H   UNL     1      -0.257   2.093  19.585  0.00  0.00    +0.000 HD
ENDBRANCH   1   7
BRANCH   4  10
ATOM     10  N   UNL     1       5.365   4.392  17.307  0.00  0.00    +0.000 NA
BRANCH  10  11
ATOM     11  C   UNL     1       6.243   4.240  18.505  0.00  0.00    +0.000 C 
BRANCH  11  12
ATOM     12  C   UNL     1       6.910   5.526  18.961  0.00  0.00    +0.000 C 
ATOM     13  O   UNL     1       7.433   5.593  20.061  0.00  0.00    +0.000 OA
BRANCH  12  14
ATOM     14  O   UNL     1       6.904   6.624  18.175  0.00  0.00    +0.000 OA
ATOM     15  H   UNL     1       6.316   6.702  17.410  0.00  0.00    +0.000 HD
ENDBRANCH  12  14
ENDBRANCH  11  12
ENDBRANCH  10  11
BRANCH  10  16
ATOM     16  C   UNL     1       6.113   4.142  16.040  0.00  0.00    +0.000 C 
BRANCH  16  17
ATOM     17  C   UNL     1       6.456   5.391  15.243  0.00  0.00    +0.000 C 
ATOM     18  O   UNL     1       5.720   6.362  15.321  0.00  0.00    +0.000 OA
BRANCH  17  19
ATOM     19  O   UNL     1       7.564   5.490  14.479  0.00  0.00    +0.000 OA
ATOM     20  H   UNL     1       7.595   5.979  13.653  0.00  0.00    +0.000 HD
ENDBRANCH  17  19
ENDBRANCH  16  17
ENDBRANCH  10  16
ENDBRANCH   4  10
BRANCH   5  21
ATOM     21  N   UNL     1       2.801   5.704  18.378  0.00  0.00    +0.000 NA
BRANCH  21  22
ATOM     22  C   UNL     1       3.384   5.370  19.718  0.00  0.00    +0.000 C 
BRANCH  22  23
ATOM     23  C   UNL     1       2.380   5.327  20.837  0.00  0.00    +0.000 C 
ATOM     24  O   UNL     1       2.289   4.330  21.535  0.00  0.00    +0.000 OA
BRANCH  23  25
ATOM     25  O   UNL     1       1.624   6.407  21.121  0.00  0.00    +0.000 OA
ATOM     26  H   UNL     1       1.927   7.081  21.746  0.00  0.00    +0.000 HD
ENDBRANCH  23  25
ENDBRANCH  22  23
ENDBRANCH  21  22
BRANCH  21  27
ATOM     27  C   UNL     1       3.395   7.016  17.993  0.00  0.00    +0.000 C 
BRANCH  27  28
ATOM     28  C   UNL     1       2.537   8.240  18.146  0.00  0.00    +0.000 C 
ATOM     29  O   UNL     1       1.910   8.413  19.180  0.00  0.00    +0.000 OA
BRANCH  28  30
ATOM     30  O   UNL     1       2.351   9.089  17.124  0.00  0.00    +0.000 OA
ATOM     31  H   UNL     1       1.956   8.766  16.311  0.00  0.00    +0.000 HD
ENDBRANCH  28  30
ENDBRANCH  27  28
ENDBRANCH  21  27
ENDBRANCH   5  21
TORSDOF 15
ENDMDL
