MODEL 1
REMARK VINA RESULT:      -8.0      0.000      0.000
REMARK  Name = 
REMARK  11 active torsions:
REMARK  status: ('A' for Active; 'I' for Inactive)
REMARK    1  A    between atoms: C_2  and  C_3
REMARK    2  A    between atoms: C_2  and  O_23
REMARK    3  A    between atoms: C_3  and  C_4
REMARK    4  A    between atoms: C_6  and  C_7
REMARK    5  A    between atoms: C_7  and  N_8
REMARK    6  A    between atoms: C_13  and  O_14
REMARK    7  A    between atoms: C_15  and  C_16
REMARK    8  A    between atoms: C_16  and  N_17
REMARK    9  A    between atoms: O_23  and  C_24
REMARK   10  A    between atoms: C_24  and  C_25
REMARK   11  A    between atoms: C_25  and  C_26
REMARK                            x       y       z     vdW  Elec       q    Type
REMARK                         _______ _______ _______ _____ _____    ______ ____
ROOT
ATOM      1  C   UNL     1       2.757   6.704  18.291  0.00  0.00    +0.000 A 
ATOM      2  C   UNL     1       2.148   5.453  18.119  0.00  0.00    +0.000 A 
ATOM      3  C   UNL     1       2.848   4.396  17.519  0.00  0.00    +0.000 A 
ATOM      4  C   UNL     1       4.168   4.664  17.118  0.00  0.00    +0.000 A 
ATOM      5  C   UNL     1       4.685   5.964  16.976  0.00  0.00    +0.000 A 
ATOM      6  C   UNL     1       3.964   6.976  17.611  0.00  0.00    +0.000 A 
ENDROOT
BRANCH   4   7
ATOM      7  O   UNL     1       5.068   3.642  17.192  0.00  0.00    +0.000 OA
ATOM      8  H   UNL     1       5.644   3.900  17.947  0.00  0.00    +0.000 HD
ENDBRANCH   4   7
BRANCH   1   9
ATOM      9  C   UNL     1       2.152   7.738  19.202  0.00  0.00    +0.000 C 
BRANCH   9  11
ATOM     10  O   UNL     1       1.844   9.250  17.315  0.00  0.00    +0.000 OA
ATOM     11  C   UNL     1       1.635   8.969  18.487  0.00  0.00    +0.000 C 
BRANCH  11  12
ATOM     12  O   UNL     1       0.794   9.658  19.307  0.00  0.00    +0.000 OA
BRANCH  12  13
ATOM     13  C   UNL     1       0.390  10.948  18.823  0.00  0.00    +0.000 C 
BRANCH  13  14
ATOM     14  C   UNL     1      -1.077  11.074  19.219  0.00  0.00    +0.000 C 
BRANCH  14  15
ATOM     15  C   UNL     1      -2.017  10.753  18.108  0.00  0.00    +0.000 A 
ATOM     16  C   UNL     1      -1.815   9.901  17.044  0.00  0.00    +0.000 A 
ATOM     17  C   UNL     1      -2.929   9.875  16.158  0.00  0.00    +0.000 A 
ATOM     18  C   UNL     1      -3.943  10.708  16.577  0.00  0.00    +0.000 A 
ATOM     19  S   UNL     1      -3.552  11.512  18.033  0.00  0.00    +0.000 S 
ENDBRANCH  14  15
ENDBRANCH  13  14
ENDBRANCH  12  13
ENDBRANCH  11  12
ENDBRANCH   9  11
ENDBRANCH   1   9
BRANCH   3  20
ATOM     20  C   UNL     1       2.264   2.988  17.479  0.00  0.00    +0.000 C 
BRANCH  20  21
ATOM     21  N   UNL     1       2.019   2.234  18.711  0.00  0.00    +0.000 NA
ATOM     22  C   UNL     1       0.772   2.508  19.426  0.00  0.00    +0.000 C 
ATOM     23  C   UNL     1       1.146   3.386  20.614  0.00  0.00    +0.000 C 
ATOM     24  C   UNL     1       2.660   3.295  20.726  0.00  0.00    +0.000 C 
ATOM     25  C   UNL     1       3.067   2.234  19.722  0.00  0.00    +0.000 C 
ENDBRANCH  20  21
ENDBRANCH   3  20
BRANCH   5  26
ATOM     26  C   UNL     1       5.981   6.203  16.203  0.00  0.00    +0.000 C 
BRANCH  26  27
ATOM     27  N   UNL     1       7.024   6.793  17.030  0.00  0.00    +0.000 NA
ATOM     28  C   UNL     1       6.900   8.210  17.322  0.00  0.00    +0.000 C 
ATOM     29  C   UNL     1       8.272   8.388  17.956  0.00  0.00    +0.000 C 
ATOM     30  C   UNL     1       8.387   7.164  18.865  0.00  0.00    +0.000 C 
ATOM     31  C   UNL     1       7.361   6.167  18.303  0.00  0.00    +0.000 C 
ENDBRANCH  26  27
ENDBRANCH   5  26
TORSDOF 11
ENDMDL
MODEL 2
REMARK VINA RESULT:      -7.8      3.559      8.326
REMARK  Name = 
REMARK  11 active torsions:
REMARK  status: ('A' for Active; 'I' for Inactive)
REMARK    1  A    between atoms: C_2  and  C_3
REMARK    2  A    between atoms: C_2  and  O_23
REMARK    3  A    between atoms: C_3  and  C_4
REMARK    4  A    between atoms: C_6  and  C_7
REMARK    5  A    between atoms: C_7  and  N_8
REMARK    6  A    between atoms: C_13  and  O_14
REMARK    7  A    between atoms: C_15  and  C_16
REMARK    8  A    between atoms: C_16  and  N_17
REMARK    9  A    between atoms: O_23  and  C_24
REMARK   10  A    between atoms: C_24  and  C_25
REMARK   11  A    between atoms: C_25  and  C_26
REMARK                            x       y       z     vdW  Elec       q    Type
REMARK                         _______ _______ _______ _____ _____    ______ ____
ROOT
ATOM      1  C   UNL     1       4.394   6.935  17.447  0.00  0.00    +0.000 A 
ATOM      2  C   UNL     1       3.601   8.082  17.302  0.00  0.00    +0.000 A 
ATOM      3  C   UNL     1       2.582   8.366  18.224  0.00  0.00    +0.000 A 
ATOM      4  C   UNL     1       2.418   7.452  19.279  0.00  0.00    +0.000 A 
ATOM      5  C   UNL     1       2.959   6.155  19.271  0.00  0.00    +0.000 A 
ATOM      6  C   UNL     1       3.986   5.932  18.352  0.00  0.00    +0.000 A 
ENDROOT
BRANCH   4   7
ATOM      7  O   UNL     1       2.008   7.948  20.481  0.00  0.00    +0.000 OA
ATOM      8  H   UNL     1       2.377   7.306  21.130  0.00  0.00    +0.000 HD
ENDBRANCH   4   7
BRANCH   1   9
ATOM      9  C   UNL     1       5.675   6.779  16.673  0.00  0.00    +0.000 C 
BRANCH   9  11
ATOM     10  O   UNL     1       7.464   6.196  18.224  0.00  0.00    +0.000 OA
ATOM     11  C   UNL     1       6.928   7.017  17.491  0.00  0.00    +0.000 C 
BRANCH  11  12
ATOM     12  O   UNL     1       7.446   8.241  17.195  0.00  0.00    +0.000 OA
BRANCH  12  13
ATOM     13  C   UNL     1       8.236   8.837  18.235  0.00  0.00    +0.000 C 
BRANCH  13  14
ATOM     14  C   UNL     1       8.424  10.287  17.800  0.00  0.00    +0.000 C 
BRANCH  14  15
ATOM     15  C   UNL     1       9.522  10.982  18.529  0.00  0.00    +0.000 A 
ATOM     16  C   UNL     1      10.644  11.585  18.002  0.00  0.00    +0.000 A 
ATOM     17  C   UNL     1      11.493  12.116  19.014  0.00  0.00    +0.000 A 
ATOM     18  C   UNL     1      10.990  11.902  20.278  0.00  0.00    +0.000 A 
ATOM     19  S   UNL     1       9.500  11.066  20.241  0.00  0.00    +0.000 S 
ENDBRANCH  14  15
ENDBRANCH  13  14
ENDBRANCH  12  13
ENDBRANCH  11  12
ENDBRANCH   9  11
ENDBRANCH   1   9
BRANCH   3  20
ATOM     20  C   UNL     1       1.827   9.689  18.178  0.00  0.00    +0.000 C 
BRANCH  20  21
ATOM     21  N   UNL     1       0.665   9.929  19.038  0.00  0.00    +0.000 NA
ATOM     22  C   UNL     1      -0.628  10.114  18.378  0.00  0.00    +0.000 C 
ATOM     23  C   UNL     1      -0.910  11.610  18.403  0.00  0.00    +0.000 C 
ATOM     24  C   UNL     1       0.085  12.196  19.394  0.00  0.00    +0.000 C 
ATOM     25  C   UNL     1       0.765  10.996  20.024  0.00  0.00    +0.000 C 
ENDBRANCH  20  21
ENDBRANCH   3  20
BRANCH   5  26
ATOM     26  C   UNL     1       2.456   5.098  20.254  0.00  0.00    +0.000 C 
BRANCH  26  27
ATOM     27  N   UNL     1       2.062   3.862  19.592  0.00  0.00    +0.000 NA
ATOM     28  C   UNL     1       2.927   2.713  19.789  0.00  0.00    +0.000 C 
ATOM     29  C   UNL     1       2.268   1.809  18.759  0.00  0.00    +0.000 C 
ATOM     30  C   UNL     1       0.778   2.021  19.024  0.00  0.00    +0.000 C 
ATOM     31  C   UNL     1       0.707   3.358  19.780  0.00  0.00    +0.000 C 
ENDBRANCH  26  27
ENDBRANCH   5  26
TORSDOF 11
ENDMDL
MODEL 3
REMARK VINA RESULT:      -7.7      4.446      8.242
REMARK  Name = 
REMARK  11 active torsions:
REMARK  status: ('A' for Active; 'I' for Inactive)
REMARK    1  A    between atoms: C_2  and  C_3
REMARK    2  A    between atoms: C_2  and  O_23
REMARK    3  A    between atoms: C_3  and  C_4
REMARK    4  A    between atoms: C_6  and  C_7
REMARK    5  A    between atoms: C_7  and  N_8
REMARK    6  A    between atoms: C_13  and  O_14
REMARK    7  A    between atoms: C_15  and  C_16
REMARK    8  A    between atoms: C_16  and  N_17
REMARK    9  A    between atoms: O_23  and  C_24
REMARK   10  A    between atoms: C_24  and  C_25
REMARK   11  A    between atoms: C_25  and  C_26
REMARK                            x       y       z     vdW  Elec       q    Type
REMARK                         _______ _______ _______ _____ _____    ______ ____
ROOT
ATOM      1  C   UNL     1       7.226   5.657  18.360  0.00  0.00    +0.000 A 
ATOM      2  C   UNL     1       7.407   4.961  17.156  0.00  0.00    +0.000 A 
ATOM      3  C   UNL     1       6.349   4.238  16.585  0.00  0.00    +0.000 A 
ATOM      4  C   UNL     1       5.126   4.261  17.277  0.00  0.00    +0.000 A 
ATOM      5  C   UNL     1       5.004   4.662  18.619  0.00  0.00    +0.000 A 
ATOM      6  C   UNL     1       6.072   5.400  19.131  0.00  0.00    +0.000 A 
ENDROOT
BRANCH   4   7
ATOM      7  O   UNL     1       3.983   4.215  16.535  0.00  0.00    +0.000 OA
ATOM      8  H   UNL     1       3.941   3.278  16.239  0.00  0.00    +0.000 HD
ENDBRANCH   4   7
BRANCH   1   9
ATOM      9  C   UNL     1       8.229   6.682  18.817  0.00  0.00    +0.000 C 
BRANCH   9  11
ATOM     10  O   UNL     1       7.401   8.268  17.162  0.00  0.00    +0.000 OA
ATOM     11  C   UNL     1       8.082   8.034  18.151  0.00  0.00    +0.000 C 
BRANCH  11  12
ATOM     12  O   UNL     1       8.720   8.982  18.890  0.00  0.00    +0.000 OA
BRANCH  12  13
ATOM     13  C   UNL     1       9.069  10.179  18.177  0.00  0.00    +0.000 C 
BRANCH  13  14
ATOM     14  C   UNL     1       9.624  11.121  19.242  0.00  0.00    +0.000 C 
BRANCH  14  15
ATOM     15  C   UNL     1      10.273  12.336  18.673  0.00  0.00    +0.000 A 
ATOM     16  C   UNL     1      10.146  12.850  17.400  0.00  0.00    +0.000 A 
ATOM     17  C   UNL     1      10.950  14.009  17.207  0.00  0.00    +0.000 A 
ATOM     18  C   UNL     1      11.661  14.340  18.338  0.00  0.00    +0.000 A 
ATOM     19  S   UNL     1      11.358  13.258  19.626  0.00  0.00    +0.000 S 
ENDBRANCH  14  15
ENDBRANCH  13  14
ENDBRANCH  12  13
ENDBRANCH  11  12
ENDBRANCH   9  11
ENDBRANCH   1   9
BRANCH   3  20
ATOM     20  C   UNL     1       6.479   3.619  15.198  0.00  0.00    +0.000 C 
BRANCH  20  21
ATOM     21  N   UNL     1       6.102   4.367  13.995  0.00  0.00    +0.000 NA
ATOM     22  C   UNL     1       5.063   3.786  13.145  0.00  0.00    +0.000 C 
ATOM     23  C   UNL     1       5.783   3.175  11.949  0.00  0.00    +0.000 C 
ATOM     24  C   UNL     1       7.196   3.737  11.993  0.00  0.00    +0.000 C 
ATOM     25  C   UNL     1       7.170   4.779  13.095  0.00  0.00    +0.000 C 
ENDBRANCH  20  21
ENDBRANCH   3  20
BRANCH   5  26
ATOM     26  C   UNL     1       3.743   4.329  19.416  0.00  0.00    +0.000 C 
BRANCH  26  27
ATOM     27  N   UNL     1       3.020   5.520  19.841  0.00  0.00    +0.000 NA
ATOM     28  C   UNL     1       2.564   6.414  18.792  0.00  0.00    +0.000 C 
ATOM     29  C   UNL     1       2.124   7.553  19.700  0.00  0.00    +0.000 C 
ATOM     30  C   UNL     1       1.376   6.826  20.818  0.00  0.00    +0.000 C 
ATOM     31  C   UNL     1       1.884   5.377  20.743  0.00  0.00    +0.000 C 
ENDBRANCH  26  27
ENDBRANCH   5  26
TORSDOF 11
ENDMDL
MODEL 4
REMARK VINA RESULT:      -7.6      3.453      8.037
REMARK  Name = 
REMARK  11 active torsions:
REMARK  status: ('A' for Active; 'I' for Inactive)
REMARK    1  A    between atoms: C_2  and  C_3
REMARK    2  A    between atoms: C_2  and  O_23
REMARK    3  A    between atoms: C_3  and  C_4
REMARK    4  A    between atoms: C_6  and  C_7
REMARK    5  A    between atoms: C_7  and  N_8
REMARK    6  A    between atoms: C_13  and  O_14
REMARK    7  A    between atoms: C_15  and  C_16
REMARK    8  A    between atoms: C_16  and  N_17
REMARK    9  A    between atoms: O_23  and  C_24
REMARK   10  A    between atoms: C_24  and  C_25
REMARK   11  A    between atoms: C_25  and  C_26
REMARK                            x       y       z     vdW  Elec       q    Type
REMARK                         _______ _______ _______ _____ _____    ______ ____
ROOT
ATOM      1  C   UNL     1       4.653   6.494  17.004  0.00  0.00    +0.000 A 
ATOM      2  C   UNL     1       3.918   7.617  17.409  0.00  0.00    +0.000 A 
ATOM      3  C   UNL     1       2.794   7.472  18.237  0.00  0.00    +0.000 A 
ATOM      4  C   UNL     1       2.466   6.163  18.628  0.00  0.00    +0.000 A 
ATOM      5  C   UNL     1       2.968   5.016  17.989  0.00  0.00    +0.000 A 
ATOM      6  C   UNL     1       4.101   5.209  17.197  0.00  0.00    +0.000 A 
ENDROOT
BRANCH   4   7
ATOM      7  O   UNL     1       1.914   5.995  19.863  0.00  0.00    +0.000 OA
ATOM      8  H   UNL     1       1.264   5.269  19.726  0.00  0.00    +0.000 HD
ENDBRANCH   4   7
BRANCH   1   9
ATOM      9  C   UNL     1       6.021   6.646  16.395  0.00  0.00    +0.000 C 
BRANCH   9  11
ATOM     10  O   UNL     1       7.643   6.201  18.159  0.00  0.00    +0.000 OA
ATOM     11  C   UNL     1       7.109   6.989  17.390  0.00  0.00    +0.000 C 
BRANCH  11  12
ATOM     12  O   UNL     1       7.499   8.282  17.219  0.00  0.00    +0.000 OA
BRANCH  12  13
ATOM     13  C   UNL     1       8.302   8.824  18.279  0.00  0.00    +0.000 C 
BRANCH  13  14
ATOM     14  C   UNL     1       8.747  10.193  17.773  0.00  0.00    +0.000 C 
BRANCH  14  15
ATOM     15  C   UNL     1       9.244  11.088  18.856  0.00  0.00    +0.000 A 
ATOM     16  C   UNL     1       9.767  10.731  20.080  0.00  0.00    +0.000 A 
ATOM     17  C   UNL     1      10.103  11.866  20.871  0.00  0.00    +0.000 A 
ATOM     18  C   UNL     1       9.826  13.049  20.223  0.00  0.00    +0.000 A 
ATOM     19  S   UNL     1       9.167  12.790  18.668  0.00  0.00    +0.000 S 
ENDBRANCH  14  15
ENDBRANCH  13  14
ENDBRANCH  12  13
ENDBRANCH  11  12
ENDBRANCH   9  11
ENDBRANCH   1   9
BRANCH   3  20
ATOM     20  C   UNL     1       2.087   8.689  18.823  0.00  0.00    +0.000 C 
BRANCH  20  21
ATOM     21  N   UNL     1       1.505   9.718  17.957  0.00  0.00    +0.000 NA
ATOM     22  C   UNL     1       2.080  11.061  18.035  0.00  0.00    +0.000 C 
ATOM     23  C   UNL     1       1.108  11.895  18.860  0.00  0.00    +0.000 C 
ATOM     24  C   UNL     1      -0.171  11.074  18.935  0.00  0.00    +0.000 C 
ATOM     25  C   UNL     1       0.061   9.900  18.003  0.00  0.00    +0.000 C 
ENDBRANCH  20  21
ENDBRANCH   3  20
BRANCH   5  26
ATOM     26  C   UNL     1       2.311   3.654  18.210  0.00  0.00    +0.000 C 
BRANCH  26  27
ATOM     27  N   UNL     1       2.223   3.299  19.620  0.00  0.00    +0.000 NA
ATOM     28  C   UNL     1       1.019   2.605  20.042  0.00  0.00    +0.000 C 
ATOM     29  C   UNL     1       1.280   2.682  21.540  0.00  0.00    +0.000 C 
ATOM     30  C   UNL     1       2.760   2.316  21.647  0.00  0.00    +0.000 C 
ATOM     31  C   UNL     1       3.323   2.570  20.239  0.00  0.00    +0.000 C 
ENDBRANCH  26  27
ENDBRANCH   5  26
TORSDOF 11
ENDMDL
MODEL 5
REMARK VINA RESULT:      -7.6      1.520      2.549
REMARK  Name = 
REMARK  11 active torsions:
REMARK  status: ('A' for Active; 'I' for Inactive)
REMARK    1  A    between atoms: C_2  and  C_3
REMARK    2  A    between atoms: C_2  and  O_23
REMARK    3  A    between atoms: C_3  and  C_4
REMARK    4  A    between atoms: C_6  and  C_7
REMARK    5  A    between atoms: C_7  and  N_8
REMARK    6  A    between atoms: C_13  and  O_14
REMARK    7  A    between atoms: C_15  and  C_16
REMARK    8  A    between atoms: C_16  and  N_17
REMARK    9  A    between atoms: O_23  and  C_24
REMARK   10  A    between atoms: C_24  and  C_25
REMARK   11  A    between atoms: C_25  and  C_26
REMARK                            x       y       z     vdW  Elec       q    Type
REMARK                         _______ _______ _______ _____ _____    ______ ____
ROOT
ATOM      1  C   UNL     1       2.566   7.507  18.199  0.00  0.00    +0.000 A 
ATOM      2  C   UNL     1       2.262   6.363  18.951  0.00  0.00    +0.000 A 
ATOM      3  C   UNL     1       3.268   5.447  19.293  0.00  0.00    +0.000 A 
ATOM      4  C   UNL     1       4.568   5.747  18.849  0.00  0.00    +0.000 A 
ATOM      5  C   UNL     1       4.844   6.685  17.839  0.00  0.00    +0.000 A 
ATOM      6  C   UNL     1       3.819   7.589  17.555  0.00  0.00    +0.000 A 
ENDROOT
BRANCH   4   7
ATOM      7  O   UNL     1       5.607   5.366  19.645  0.00  0.00    +0.000 OA
ATOM      8  H   UNL     1       6.043   4.652  19.126  0.00  0.00    +0.000 HD
ENDBRANCH   4   7
BRANCH   1   9
ATOM      9  C   UNL     1       1.586   8.645  18.096  0.00  0.00    +0.000 C 
BRANCH   9  11
ATOM     10  O   UNL     1       1.563   8.848  20.526  0.00  0.00    +0.000 OA
ATOM     11  C   UNL     1       1.182   9.238  19.430  0.00  0.00    +0.000 C 
BRANCH  11  12
ATOM     12  O   UNL     1       0.428  10.354  19.228  0.00  0.00    +0.000 OA
BRANCH  12  13
ATOM     13  C   UNL     1      -0.919  10.278  19.720  0.00  0.00    +0.000 C 
BRANCH  13  14
ATOM     14  C   UNL     1      -1.664  11.394  18.994  0.00  0.00    +0.000 C 
BRANCH  14  15
ATOM     15  C   UNL     1      -2.375  10.927  17.771  0.00  0.00    +0.000 A 
ATOM     16  C   UNL     1      -1.938  10.023  16.826  0.00  0.00    +0.000 A 
ATOM     17  C   UNL     1      -2.878   9.853  15.771  0.00  0.00    +0.000 A 
ATOM     18  C   UNL     1      -4.000  10.632  15.946  0.00  0.00    +0.000 A 
ATOM     19  S   UNL     1      -3.918  11.561  17.378  0.00  0.00    +0.000 S 
ENDBRANCH  14  15
ENDBRANCH  13  14
ENDBRANCH  12  13
ENDBRANCH  11  12
ENDBRANCH   9  11
ENDBRANCH   1   9
BRANCH   3  20
ATOM     20  C   UNL     1       2.989   4.293  20.248  0.00  0.00    +0.000 C 
BRANCH  20  21
ATOM     21  N   UNL     1       2.704   2.945  19.748  0.00  0.00    +0.000 NA
ATOM     22  C   UNL     1       3.839   2.153  19.276  0.00  0.00    +0.000 C 
ATOM     23  C   UNL     1       3.791   2.202  17.754  0.00  0.00    +0.000 C 
ATOM     24  C   UNL     1       2.413   2.745  17.408  0.00  0.00    +0.000 C 
ATOM     25  C   UNL     1       1.672   2.809  18.729  0.00  0.00    +0.000 C 
ENDBRANCH  20  21
ENDBRANCH   3  20
BRANCH   5  26
ATOM     26  C   UNL     1       6.209   6.708  17.153  0.00  0.00    +0.000 C 
BRANCH  26  27
ATOM     27  N   UNL     1       6.283   5.789  16.026  0.00  0.00    +0.000 NA
ATOM     28  C   UNL     1       6.861   4.483  16.288  0.00  0.00    +0.000 C 
ATOM     29  C   UNL     1       6.943   4.025  14.839  0.00  0.00    +0.000 C 
ATOM     30  C   UNL     1       5.587   4.446  14.272  0.00  0.00    +0.000 C 
ATOM     31  C   UNL     1       5.082   5.526  15.243  0.00  0.00    +0.000 C 
ENDBRANCH  26  27
ENDBRANCH   5  26
TORSDOF 11
ENDMDL
MODEL 6
REMARK VINA RESULT:      -7.6      3.740      7.208
REMARK  Name = 
REMARK  11 active torsions:
REMARK  status: ('A' for Active; 'I' for Inactive)
REMARK    1  A    between atoms: C_2  and  C_3
REMARK    2  A    between atoms: C_2  and  O_23
REMARK    3  A    between atoms: C_3  and  C_4
REMARK    4  A    between atoms: C_6  and  C_7
REMARK    5  A    between atoms: C_7  and  N_8
REMARK    6  A    between atoms: C_13  and  O_14
REMARK    7  A    between atoms: C_15  and  C_16
REMARK    8  A    between atoms: C_16  and  N_17
REMARK    9  A    between atoms: O_23  and  C_24
REMARK   10  A    between atoms: C_24  and  C_25
REMARK   11  A    between atoms: C_25  and  C_26
REMARK                            x       y       z     vdW  Elec       q    Type
REMARK                         _______ _______ _______ _____ _____    ______ ____
ROOT
ATOM      1  C   UNL     1       5.804   5.534  18.825  0.00  0.00    +0.000 A 
ATOM      2  C   UNL     1       5.307   4.243  19.055  0.00  0.00    +0.000 A 
ATOM      3  C   UNL     1       3.972   3.930  18.760  0.00  0.00    +0.000 A 
ATOM      4  C   UNL     1       3.187   4.967  18.227  0.00  0.00    +0.000 A 
ATOM      5  C   UNL     1       3.549   6.324  18.292  0.00  0.00    +0.000 A 
ATOM      6  C   UNL     1       4.893   6.580  18.564  0.00  0.00    +0.000 A 
ENDROOT
BRANCH   4   7
ATOM      7  O   UNL     1       2.217   4.624  17.331  0.00  0.00    +0.000 OA
ATOM      8  H   UNL     1       2.048   5.463  16.846  0.00  0.00    +0.000 HD
ENDBRANCH   4   7
BRANCH   1   9
ATOM      9  C   UNL     1       7.285   5.803  18.830  0.00  0.00    +0.000 C 
BRANCH   9  11
ATOM     10  O   UNL     1       7.585   6.650  16.564  0.00  0.00    +0.000 OA
ATOM     11  C   UNL     1       7.741   6.784  17.771  0.00  0.00    +0.000 C 
BRANCH  11  12
ATOM     12  O   UNL     1       8.239   7.904  18.364  0.00  0.00    +0.000 OA
BRANCH  12  13
ATOM     13  C   UNL     1       8.464   9.014  17.481  0.00  0.00    +0.000 C 
BRANCH  13  14
ATOM     14  C   UNL     1       8.166  10.250  18.323  0.00  0.00    +0.000 C 
BRANCH  14  15
ATOM     15  C   UNL     1       9.390  10.901  18.869  0.00  0.00    +0.000 A 
ATOM     16  C   UNL     1       9.773  11.020  20.188  0.00  0.00    +0.000 A 
ATOM     17  C   UNL     1      10.993  11.741  20.329  0.00  0.00    +0.000 A 
ATOM     18  C   UNL     1      11.498  12.147  19.114  0.00  0.00    +0.000 A 
ATOM     19  S   UNL     1      10.507  11.657  17.811  0.00  0.00    +0.000 S 
ENDBRANCH  14  15
ENDBRANCH  13  14
ENDBRANCH  12  13
ENDBRANCH  11  12
ENDBRANCH   9  11
ENDBRANCH   1   9
BRANCH   3  20
ATOM     20  C   UNL     1       3.464   2.495  18.843  0.00  0.00    +0.000 C 
BRANCH  20  21
ATOM     21  N   UNL     1       2.524   2.082  19.888  0.00  0.00    +0.000 NA
ATOM     22  C   UNL     1       1.108   2.377  19.669  0.00  0.00    +0.000 C 
ATOM     23  C   UNL     1       0.785   3.588  20.534  0.00  0.00    +0.000 C 
ATOM     24  C   UNL     1       1.960   3.732  21.489  0.00  0.00    +0.000 C 
ATOM     25  C   UNL     1       2.810   2.498  21.255  0.00  0.00    +0.000 C 
ENDBRANCH  20  21
ENDBRANCH   3  20
BRANCH   5  26
ATOM     26  C   UNL     1       2.513   7.416  18.031  0.00  0.00    +0.000 C 
BRANCH  26  27
ATOM     27  N   UNL     1       2.100   8.098  19.249  0.00  0.00    +0.000 NA
ATOM     28  C   UNL     1       1.079   9.121  19.109  0.00  0.00    +0.000 C 
ATOM     29  C   UNL     1       1.177   9.672  20.524  0.00  0.00    +0.000 C 
ATOM     30  C   UNL     1       1.241   8.406  21.378  0.00  0.00    +0.000 C 
ATOM     31  C   UNL     1       1.692   7.306  20.403  0.00  0.00    +0.000 C 
ENDBRANCH  26  27
ENDBRANCH   5  26
TORSDOF 11
ENDMDL
MODEL 7
REMARK VINA RESULT:      -7.5      3.842      7.500
REMARK  Name = 
REMARK  11 active torsions:
REMARK  status: ('A' for Active; 'I' for Inactive)
REMARK    1  A    between atoms: C_2  and  C_3
REMARK    2  A    between atoms: C_2  and  O_23
REMARK    3  A    between atoms: C_3  and  C_4
REMARK    4  A    between atoms: C_6  and  C_7
REMARK    5  A    between atoms: C_7  and  N_8
REMARK    6  A    between atoms: C_13  and  O_14
REMARK    7  A    between atoms: C_15  and  C_16
REMARK    8  A    between atoms: C_16  and  N_17
REMARK    9  A    between atoms: O_23  and  C_24
REMARK   10  A    between atoms: C_24  and  C_25
REMARK   11  A    between atoms: C_25  and  C_26
REMARK                            x       y       z     vdW  Elec       q    Type
REMARK                         _______ _______ _______ _____ _____    ______ ____
ROOT
ATOM      1  C   UNL     1       5.360   6.386  17.477  0.00  0.00    +0.000 A 
ATOM      2  C   UNL     1       5.091   5.074  17.894  0.00  0.00    +0.000 A 
ATOM      3  C   UNL     1       3.772   4.656  18.126  0.00  0.00    +0.000 A 
ATOM      4  C   UNL     1       2.763   5.612  17.913  0.00  0.00    +0.000 A 
ATOM      5  C   UNL     1       3.012   6.992  17.819  0.00  0.00    +0.000 A 
ATOM      6  C   UNL     1       4.336   7.354  17.563  0.00  0.00    +0.000 A 
ENDROOT
BRANCH   4   7
ATOM      7  O   UNL     1       1.561   5.164  17.452  0.00  0.00    +0.000 OA
ATOM      8  H   UNL     1       1.195   4.664  18.217  0.00  0.00    +0.000 HD
ENDBRANCH   4   7
BRANCH   1   9
ATOM      9  C   UNL     1       6.708   6.758  16.922  0.00  0.00    +0.000 C 
BRANCH   9  11
ATOM     10  O   UNL     1       8.262   6.735  18.800  0.00  0.00    +0.000 OA
ATOM     11  C   UNL     1       7.654   7.359  17.941  0.00  0.00    +0.000 C 
BRANCH  11  12
ATOM     12  O   UNL     1       7.827   8.684  17.682  0.00  0.00    +0.000 OA
BRANCH  12  13
ATOM     13  C   UNL     1       8.647   9.389  18.628  0.00  0.00    +0.000 C 
BRANCH  13  14
ATOM     14  C   UNL     1       8.992  10.707  17.941  0.00  0.00    +0.000 C 
BRANCH  14  15
ATOM     15  C   UNL     1      10.176  11.388  18.536  0.00  0.00    +0.000 A 
ATOM     16  C   UNL     1      11.295  11.869  17.889  0.00  0.00    +0.000 A 
ATOM     17  C   UNL     1      12.240  12.428  18.795  0.00  0.00    +0.000 A 
ATOM     18  C   UNL     1      11.810  12.356  20.101  0.00  0.00    +0.000 A 
ATOM     19  S   UNL     1      10.274  11.620  20.232  0.00  0.00    +0.000 S 
ENDBRANCH  14  15
ENDBRANCH  13  14
ENDBRANCH  12  13
ENDBRANCH  11  12
ENDBRANCH   9  11
ENDBRANCH   1   9
BRANCH   3  20
ATOM     20  C   UNL     1       3.450   3.195  18.414  0.00  0.00    +0.000 C 
BRANCH  20  21
ATOM     21  N   UNL     1       2.971   2.768  19.731  0.00  0.00    +0.000 NA
ATOM     22  C   UNL     1       1.712   2.025  19.777  0.00  0.00    +0.000 C 
ATOM     23  C   UNL     1       0.651   3.010  20.248  0.00  0.00    +0.000 C 
ATOM     24  C   UNL     1       1.419   4.208  20.790  0.00  0.00    +0.000 C 
ATOM     25  C   UNL     1       2.874   3.781  20.774  0.00  0.00    +0.000 C 
ENDBRANCH  20  21
ENDBRANCH   3  20
BRANCH   5  26
ATOM     26  C   UNL     1       1.869   7.997  17.951  0.00  0.00    +0.000 C 
BRANCH  26  27
ATOM     27  N   UNL     1       1.752   8.538  19.298  0.00  0.00    +0.000 NA
ATOM     28  C   UNL     1       0.730   9.547  19.509  0.00  0.00    +0.000 C 
ATOM     29  C   UNL     1       1.155   9.949  20.913  0.00  0.00    +0.000 C 
ATOM     30  C   UNL     1       1.414   8.602  21.588  0.00  0.00    +0.000 C 
ATOM     31  C   UNL     1       1.623   7.620  20.423  0.00  0.00    +0.000 C 
ENDBRANCH  26  27
ENDBRANCH   5  26
TORSDOF 11
ENDMDL
MODEL 8
REMARK VINA RESULT:      -7.5      4.955      7.429
REMARK  Name = 
REMARK  11 active torsions:
REMARK  status: ('A' for Active; 'I' for Inactive)
REMARK    1  A    between atoms: C_2  and  C_3
REMARK    2  A    between atoms: C_2  and  O_23
REMARK    3  A    between atoms: C_3  and  C_4
REMARK    4  A    between atoms: C_6  and  C_7
REMARK    5  A    between atoms: C_7  and  N_8
REMARK    6  A    between atoms: C_13  and  O_14
REMARK    7  A    between atoms: C_15  and  C_16
REMARK    8  A    between atoms: C_16  and  N_17
REMARK    9  A    between atoms: O_23  and  C_24
REMARK   10  A    between atoms: C_24  and  C_25
REMARK   11  A    between atoms: C_25  and  C_26
REMARK                            x       y       z     vdW  Elec       q    Type
REMARK                         _______ _______ _______ _____ _____    ______ ____
ROOT
ATOM      1  C   UNL     1       6.559   5.436  18.204  0.00  0.00    +0.000 A 
ATOM      2  C   UNL     1       5.704   4.962  19.209  0.00  0.00    +0.000 A 
ATOM      3  C   UNL     1       4.750   3.972  18.926  0.00  0.00    +0.000 A 
ATOM      4  C   UNL     1       4.713   3.496  17.605  0.00  0.00    +0.000 A 
ATOM      5  C   UNL     1       5.312   4.165  16.523  0.00  0.00    +0.000 A 
ATOM      6  C   UNL     1       6.271   5.122  16.858  0.00  0.00    +0.000 A 
ENDROOT
BRANCH   4   7
ATOM      7  O   UNL     1       4.379   2.187  17.418  0.00  0.00    +0.000 OA
ATOM      8  H   UNL     1       4.874   1.721  18.129  0.00  0.00    +0.000 HD
ENDBRANCH   4   7
BRANCH   1   9
ATOM      9  C   UNL     1       7.779   6.246  18.548  0.00  0.00    +0.000 C 
BRANCH   9  11
ATOM     10  O   UNL     1       7.103   7.984  16.977  0.00  0.00    +0.000 OA
ATOM     11  C   UNL     1       7.819   7.614  17.898  0.00  0.00    +0.000 C 
BRANCH  11  12
ATOM     12  O   UNL     1       8.684   8.419  18.573  0.00  0.00    +0.000 OA
BRANCH  12  13
ATOM     13  C   UNL     1       8.600   9.816  18.248  0.00  0.00    +0.000 C 
BRANCH  13  14
ATOM     14  C   UNL     1       9.374  10.523  19.356  0.00  0.00    +0.000 C 
BRANCH  14  15
ATOM     15  C   UNL     1      10.371  11.504  18.843  0.00  0.00    +0.000 A 
ATOM     16  C   UNL     1      10.389  12.136  17.617  0.00  0.00    +0.000 A 
ATOM     17  C   UNL     1      11.524  12.983  17.468  0.00  0.00    +0.000 A 
ATOM     18  C   UNL     1      12.331  12.970  18.583  0.00  0.00    +0.000 A 
ATOM     19  S   UNL     1      11.721  11.942  19.804  0.00  0.00    +0.000 S 
ENDBRANCH  14  15
ENDBRANCH  13  14
ENDBRANCH  12  13
ENDBRANCH  11  12
ENDBRANCH   9  11
ENDBRANCH   1   9
BRANCH   3  20
ATOM     20  C   UNL     1       3.933   3.327  20.039  0.00  0.00    +0.000 C 
BRANCH  20  21
ATOM     21  N   UNL     1       2.499   3.592  20.179  0.00  0.00    +0.000 NA
ATOM     22  C   UNL     1       1.596   2.444  20.097  0.00  0.00    +0.000 C 
ATOM     23  C   UNL     1       0.974   2.488  18.707  0.00  0.00    +0.000 C 
ATOM     24  C   UNL     1       1.292   3.872  18.162  0.00  0.00    +0.000 C 
ATOM     25  C   UNL     1       1.917   4.619  19.325  0.00  0.00    +0.000 C 
ENDBRANCH  20  21
ENDBRANCH   3  20
BRANCH   5  26
ATOM     26  C   UNL     1       4.939   3.805  15.085  0.00  0.00    +0.000 C 
BRANCH  26  27
ATOM     27  N   UNL     1       6.053   3.969  14.162  0.00  0.00    +0.000 NA
ATOM     28  C   UNL     1       5.784   3.689  12.762  0.00  0.00    +0.000 C 
ATOM     29  C   UNL     1       7.227   3.751  12.283  0.00  0.00    +0.000 C 
ATOM     30  C   UNL     1       7.766   4.995  12.990  0.00  0.00    +0.000 C 
ATOM     31  C   UNL     1       6.801   5.220  14.165  0.00  0.00    +0.000 C 
ENDBRANCH  26  27
ENDBRANCH   5  26
TORSDOF 11
ENDMDL
MODEL 9
REMARK VINA RESULT:      -7.5      1.393      2.332
REMARK  Name = 
REMARK  11 active torsions:
REMARK  status: ('A' for Active; 'I' for Inactive)
REMARK    1  A    between atoms: C_2  and  C_3
REMARK    2  A    between atoms: C_2  and  O_23
REMARK    3  A    between atoms: C_3  and  C_4
REMARK    4  A    between atoms: C_6  and  C_7
REMARK    5  A    between atoms: C_7  and  N_8
REMARK    6  A    between atoms: C_13  and  O_14
REMARK    7  A    between atoms: C_15  and  C_16
REMARK    8  A    between atoms: C_16  and  N_17
REMARK    9  A    between atoms: O_23  and  C_24
REMARK   10  A    between atoms: C_24  and  C_25
REMARK   11  A    between atoms: C_25  and  C_26
REMARK                            x       y       z     vdW  Elec       q    Type
REMARK                         _______ _______ _______ _____ _____    ______ ____
ROOT
ATOM      1  C   UNL     1       2.700   6.881  18.894  0.00  0.00    +0.000 A 
ATOM      2  C   UNL     1       2.677   5.601  19.467  0.00  0.00    +0.000 A 
ATOM      3  C   UNL     1       3.823   4.792  19.449  0.00  0.00    +0.000 A 
ATOM      4  C   UNL     1       4.967   5.337  18.841  0.00  0.00    +0.000 A 
ATOM      5  C   UNL     1       4.933   6.453  17.986  0.00  0.00    +0.000 A 
ATOM      6  C   UNL     1       3.781   7.238  18.060  0.00  0.00    +0.000 A 
ENDROOT
BRANCH   4   7
ATOM      7  O   UNL     1       6.180   4.984  19.354  0.00  0.00    +0.000 OA
ATOM      8  H   UNL     1       6.179   5.397  20.247  0.00  0.00    +0.000 HD
ENDBRANCH   4   7
BRANCH   1   9
ATOM      9  C   UNL     1       1.604   7.873  19.178  0.00  0.00    +0.000 C 
BRANCH   9  11
ATOM     10  O   UNL     1       1.996   9.310  17.248  0.00  0.00    +0.000 OA
ATOM     11  C   UNL     1       1.751   9.188  18.441  0.00  0.00    +0.000 C 
BRANCH  11  12
ATOM     12  O   UNL     1       1.446  10.220  19.275  0.00  0.00    +0.000 OA
BRANCH  12  13
ATOM     13  C   UNL     1       0.636  11.254  18.695  0.00  0.00    +0.000 C 
BRANCH  13  14
ATOM     14  C   UNL     1      -0.753  11.043  19.290  0.00  0.00    +0.000 C 
BRANCH  14  15
ATOM     15  C   UNL     1      -1.794  10.750  18.265  0.00  0.00    +0.000 A 
ATOM     16  C   UNL     1      -1.718   9.877  17.202  0.00  0.00    +0.000 A 
ATOM     17  C   UNL     1      -2.902   9.890  16.411  0.00  0.00    +0.000 A 
ATOM     18  C   UNL     1      -3.840  10.772  16.898  0.00  0.00    +0.000 A 
ATOM     19  S   UNL     1      -3.295  11.577  18.303  0.00  0.00    +0.000 S 
ENDBRANCH  14  15
ENDBRANCH  13  14
ENDBRANCH  12  13
ENDBRANCH  11  12
ENDBRANCH   9  11
ENDBRANCH   1   9
BRANCH   3  20
ATOM     20  C   UNL     1       3.867   3.474  20.213  0.00  0.00    +0.000 C 
BRANCH  20  21
ATOM     21  N   UNL     1       3.245   2.262  19.671  0.00  0.00    +0.000 NA
ATOM     22  C   UNL     1       3.509   1.946  18.268  0.00  0.00    +0.000 C 
ATOM     23  C   UNL     1       2.259   2.347  17.496  0.00  0.00    +0.000 C 
ATOM     24  C   UNL     1       1.183   2.565  18.550  0.00  0.00    +0.000 C 
ATOM     25  C   UNL     1       1.809   2.103  19.852  0.00  0.00    +0.000 C 
ENDBRANCH  20  21
ENDBRANCH   3  20
BRANCH   5  26
ATOM     26  C   UNL     1       6.122   6.774  17.082  0.00  0.00    +0.000 C 
BRANCH  26  27
ATOM     27  N   UNL     1       6.188   5.903  15.916  0.00  0.00    +0.000 NA
ATOM     28  C   UNL     1       7.209   4.871  15.932  0.00  0.00    +0.000 C 
ATOM     29  C   UNL     1       7.046   4.429  14.485  0.00  0.00    +0.000 C 
ATOM     30  C   UNL     1       5.528   4.361  14.320  0.00  0.00    +0.000 C 
ATOM     31  C   UNL     1       4.976   5.237  15.457  0.00  0.00    +0.000 C 
ENDBRANCH  26  27
ENDBRANCH   5  26
TORSDOF 11
ENDMDL
