MODEL 1
REMARK VINA RESULT:      -7.5      0.000      0.000
REMARK  Name = 
REMARK  5 active torsions:
REMARK  status: ('A' for Active; 'I' for Inactive)
REMARK    1  A    between atoms: C_1  and  C_2
REMARK    2  A    between atoms: C_4  and  C_5
REMARK    3  A    between atoms: N_7  and  C_8
REMARK    4  A    between atoms: C_13  and  N_14
REMARK    5  A    between atoms: C_17  and  C_18
REMARK                            x       y       z     vdW  Elec       q    Type
REMARK                         _______ _______ _______ _____ _____    ______ ____
ROOT
ATOM      1  C   UNL     1       1.768   3.502  21.598  0.00  0.00    +0.000 C 
ATOM      2  C   UNL     1       2.367   4.302  20.483  0.00  0.00    +0.000 A 
ATOM      3  N   UNL     1       3.316   3.720  19.723  0.00  0.00    +0.000 NA
ATOM      4  C   UNL     1       3.866   4.481  18.756  0.00  0.00    +0.000 A 
ATOM      5  C   UNL     1       3.466   5.805  18.577  0.00  0.00    +0.000 A 
ATOM      6  C   UNL     1       2.495   6.344  19.413  0.00  0.00    +0.000 A 
ATOM      7  N   UNL     1       1.953   5.580  20.373  0.00  0.00    +0.000 NA
ENDROOT
BRANCH   4   8
ATOM      8  C   UNL     1       5.150   3.995  18.074  0.00  0.00    +0.000 C 
ATOM      9  C   UNL     1       5.294   4.112  16.516  0.00  0.00    +0.000 C 
ATOM     10  N   UNL     1       6.150   5.198  15.969  0.00  0.00    +0.000 NA
ATOM     11  C   UNL     1       6.584   4.883  14.602  0.00  0.00    +0.000 C 
ATOM     12  C   UNL     1       7.328   5.408  16.821  0.00  0.00    +0.000 C 
ATOM     13  C   UNL     1       6.902   5.605  18.272  0.00  0.00    +0.000 C 
ATOM     14  O   UNL     1       6.343   4.396  18.785  0.00  0.00    +0.000 OA
ENDBRANCH   4   8
BRANCH   6  15
ATOM     15  N   UNL     1       2.176   7.715  19.355  0.00  0.00    +0.000 N 
ATOM     16  C   UNL     1       1.257   8.176  20.408  0.00  0.00    +0.000 C 
ATOM     17  C   UNL     1       1.345   9.701  20.512  0.00  0.00    +0.000 C 
ATOM     18  C   UNL     1       1.040  10.382  19.172  0.00  0.00    +0.000 C 
ATOM     19  C   UNL     1       1.941   9.794  18.077  0.00  0.00    +0.000 C 
ATOM     20  C   UNL     1       1.876   8.262  18.025  0.00  0.00    +0.000 C 
BRANCH  18  21
ATOM     21  C   UNL     1      -0.429  10.295  18.780  0.00  0.00    +0.000 C 
ATOM     22  N   UNL     1      -0.704  10.338  17.448  0.00  0.00    +0.000 N 
ATOM     23  O   UNL     1      -1.349  10.145  19.584  0.00  0.00    +0.000 OA
ATOM     24  H   UNL     1       0.007  10.345  16.727  0.00  0.00    +0.000 HD
ATOM     25  H   UNL     1      -1.669  10.218  17.173  0.00  0.00    +0.000 HD
ENDBRANCH  18  21
ENDBRANCH   6  15
TORSDOF 3
ENDMDL
MODEL 2
REMARK VINA RESULT:      -7.2      2.553      7.394
REMARK  Name = 
REMARK  5 active torsions:
REMARK  status: ('A' for Active; 'I' for Inactive)
REMARK    1  A    between atoms: C_1  and  C_2
REMARK    2  A    between atoms: C_4  and  C_5
REMARK    3  A    between atoms: N_7  and  C_8
REMARK    4  A    between atoms: C_13  and  N_14
REMARK    5  A    between atoms: C_17  and  C_18
REMARK                            x       y       z     vdW  Elec       q    Type
REMARK                         _______ _______ _______ _____ _____    ______ ____
ROOT
ATOM      1  C   UNL     1       0.313   9.319  23.157  0.00  0.00    +0.000 C 
ATOM      2  C   UNL     1       0.707   9.199  21.717  0.00  0.00    +0.000 A 
ATOM      3  N   UNL     1       0.268  10.141  20.858  0.00  0.00    +0.000 NA
ATOM      4  C   UNL     1       0.604   9.980  19.562  0.00  0.00    +0.000 A 
ATOM      5  C   UNL     1       1.357   8.881  19.153  0.00  0.00    +0.000 A 
ATOM      6  C   UNL     1       1.756   7.938  20.093  0.00  0.00    +0.000 A 
ATOM      7  N   UNL     1       1.419   8.105  21.380  0.00  0.00    +0.000 NA
ENDROOT
BRANCH   4   8
ATOM      8  C   UNL     1      -0.113  10.825  18.504  0.00  0.00    +0.000 C 
ATOM      9  C   UNL     1      -1.149  10.148  17.540  0.00  0.00    +0.000 C 
ATOM     10  N   UNL     1      -2.597  10.362  17.802  0.00  0.00    +0.000 NA
ATOM     11  C   UNL     1      -3.390  10.116  16.590  0.00  0.00    +0.000 C 
ATOM     12  C   UNL     1      -2.840  11.732  18.275  0.00  0.00    +0.000 C 
ATOM     13  C   UNL     1      -1.928  12.053  19.454  0.00  0.00    +0.000 C 
ATOM     14  O   UNL     1      -0.568  12.096  19.021  0.00  0.00    +0.000 OA
ENDBRANCH   4   8
BRANCH   6  15
ATOM     15  N   UNL     1       2.388   6.745  19.691  0.00  0.00    +0.000 N 
ATOM     16  C   UNL     1       2.527   6.586  18.234  0.00  0.00    +0.000 C 
ATOM     17  C   UNL     1       3.590   5.520  17.949  0.00  0.00    +0.000 C 
ATOM     18  C   UNL     1       3.253   4.185  18.623  0.00  0.00    +0.000 C 
ATOM     19  C   UNL     1       3.003   4.411  20.121  0.00  0.00    +0.000 C 
ATOM     20  C   UNL     1       1.974   5.518  20.384  0.00  0.00    +0.000 C 
BRANCH  18  21
ATOM     21  C   UNL     1       2.076   3.470  17.974  0.00  0.00    +0.000 C 
ATOM     22  N   UNL     1       2.004   2.124  18.167  0.00  0.00    +0.000 N 
ATOM     23  O   UNL     1       1.188   4.039  17.340  0.00  0.00    +0.000 OA
ATOM     24  H   UNL     1       2.632   1.608  18.769  0.00  0.00    +0.000 HD
ATOM     25  H   UNL     1       1.194   1.649  17.793  0.00  0.00    +0.000 HD
ENDBRANCH  18  21
ENDBRANCH   6  15
TORSDOF 3
ENDMDL
MODEL 3
REMARK VINA RESULT:      -7.0      1.965      7.565
REMARK  Name = 
REMARK  5 active torsions:
REMARK  status: ('A' for Active; 'I' for Inactive)
REMARK    1  A    between atoms: C_1  and  C_2
REMARK    2  A    between atoms: C_4  and  C_5
REMARK    3  A    between atoms: N_7  and  C_8
REMARK    4  A    between atoms: C_13  and  N_14
REMARK    5  A    between atoms: C_17  and  C_18
REMARK                            x       y       z     vdW  Elec       q    Type
REMARK                         _______ _______ _______ _____ _____    ______ ____
ROOT
ATOM      1  C   UNL     1       1.097   8.756  22.327  0.00  0.00    +0.000 C 
ATOM      2  C   UNL     1       1.245   8.796  20.838  0.00  0.00    +0.000 A 
ATOM      3  N   UNL     1       0.622   9.782  20.164  0.00  0.00    +0.000 NA
ATOM      4  C   UNL     1       0.740   9.765  18.820  0.00  0.00    +0.000 A 
ATOM      5  C   UNL     1       1.465   8.759  18.182  0.00  0.00    +0.000 A 
ATOM      6  C   UNL     1       2.064   7.762  18.942  0.00  0.00    +0.000 A 
ATOM      7  N   UNL     1       1.943   7.786  20.277  0.00  0.00    +0.000 NA
ENDROOT
BRANCH   4   8
ATOM      8  C   UNL     1      -0.187  10.655  17.986  0.00  0.00    +0.000 C 
ATOM      9  C   UNL     1      -1.544  10.078  17.449  0.00  0.00    +0.000 C 
ATOM     10  N   UNL     1      -2.799  10.477  18.140  0.00  0.00    +0.000 NA
ATOM     11  C   UNL     1      -3.961  10.288  17.261  0.00  0.00    +0.000 C 
ATOM     12  C   UNL     1      -2.731  11.881  18.567  0.00  0.00    +0.000 C 
ATOM     13  C   UNL     1      -1.459  12.127  19.372  0.00  0.00    +0.000 C 
ATOM     14  O   UNL     1      -0.314  11.989  18.529  0.00  0.00    +0.000 OA
ENDBRANCH   4   8
BRANCH   6  15
ATOM     15  N   UNL     1       2.676   6.655  18.322  0.00  0.00    +0.000 N 
ATOM     16  C   UNL     1       2.388   5.359  18.958  0.00  0.00    +0.000 C 
ATOM     17  C   UNL     1       2.717   4.236  17.969  0.00  0.00    +0.000 C 
ATOM     18  C   UNL     1       4.172   4.307  17.490  0.00  0.00    +0.000 C 
ATOM     19  C   UNL     1       4.466   5.710  16.939  0.00  0.00    +0.000 C 
ATOM     20  C   UNL     1       4.081   6.820  17.925  0.00  0.00    +0.000 C 
BRANCH  18  21
ATOM     21  C   UNL     1       5.174   3.921  18.570  0.00  0.00    +0.000 C 
ATOM     22  N   UNL     1       4.833   2.871  19.366  0.00  0.00    +0.000 N 
ATOM     23  O   UNL     1       6.267   4.467  18.722  0.00  0.00    +0.000 OA
ATOM     24  H   UNL     1       4.007   2.304  19.225  0.00  0.00    +0.000 HD
ATOM     25  H   UNL     1       5.518   2.567  20.044  0.00  0.00    +0.000 HD
ENDBRANCH  18  21
ENDBRANCH   6  15
TORSDOF 3
ENDMDL
MODEL 4
REMARK VINA RESULT:      -7.0      2.044      4.279
REMARK  Name = 
REMARK  5 active torsions:
REMARK  status: ('A' for Active; 'I' for Inactive)
REMARK    1  A    between atoms: C_1  and  C_2
REMARK    2  A    between atoms: C_4  and  C_5
REMARK    3  A    between atoms: N_7  and  C_8
REMARK    4  A    between atoms: C_13  and  N_14
REMARK    5  A    between atoms: C_17  and  C_18
REMARK                            x       y       z     vdW  Elec       q    Type
REMARK                         _______ _______ _______ _____ _____    ______ ____
ROOT
ATOM      1  C   UNL     1       5.171   6.801  15.722  0.00  0.00    +0.000 C 
ATOM      2  C   UNL     1       4.428   6.573  17.001  0.00  0.00    +0.000 A 
ATOM      3  N   UNL     1       4.624   5.409  17.651  0.00  0.00    +0.000 NA
ATOM      4  C   UNL     1       3.907   5.217  18.777  0.00  0.00    +0.000 A 
ATOM      5  C   UNL     1       3.006   6.184  19.221  0.00  0.00    +0.000 A 
ATOM      6  C   UNL     1       2.841   7.352  18.487  0.00  0.00    +0.000 A 
ATOM      7  N   UNL     1       3.558   7.536  17.369  0.00  0.00    +0.000 NA
ENDROOT
BRANCH   4   8
ATOM      8  C   UNL     1       3.845   3.810  19.382  0.00  0.00    +0.000 C 
ATOM      9  C   UNL     1       3.036   3.568  20.704  0.00  0.00    +0.000 C 
ATOM     10  N   UNL     1       1.704   2.913  20.603  0.00  0.00    +0.000 NA
ATOM     11  C   UNL     1       1.318   2.315  21.887  0.00  0.00    +0.000 C 
ATOM     12  C   UNL     1       1.716   1.875  19.563  0.00  0.00    +0.000 C 
ATOM     13  C   UNL     1       2.243   2.447  18.252  0.00  0.00    +0.000 C 
ATOM     14  O   UNL     1       3.623   2.786  18.386  0.00  0.00    +0.000 OA
ENDBRANCH   4   8
BRANCH   6  15
ATOM     15  N   UNL     1       1.835   8.279  18.826  0.00  0.00    +0.000 N 
ATOM     16  C   UNL     1       1.813   9.492  17.993  0.00  0.00    +0.000 C 
ATOM     17  C   UNL     1       0.454  10.179  18.151  0.00  0.00    +0.000 C 
ATOM     18  C   UNL     1       0.149  10.508  19.617  0.00  0.00    +0.000 C 
ATOM     19  C   UNL     1       0.293   9.241  20.472  0.00  0.00    +0.000 C 
ATOM     20  C   UNL     1       1.642   8.541  20.259  0.00  0.00    +0.000 C 
BRANCH  18  21
ATOM     21  C   UNL     1       1.007  11.640  20.165  0.00  0.00    +0.000 C 
ATOM     22  N   UNL     1       1.405  12.586  19.271  0.00  0.00    +0.000 N 
ATOM     23  O   UNL     1       1.311  11.761  21.352  0.00  0.00    +0.000 OA
ATOM     24  H   UNL     1       1.099  12.613  18.308  0.00  0.00    +0.000 HD
ATOM     25  H   UNL     1       1.922  13.374  19.636  0.00  0.00    +0.000 HD
ENDBRANCH  18  21
ENDBRANCH   6  15
TORSDOF 3
ENDMDL
MODEL 5
REMARK VINA RESULT:      -6.9      4.247      8.095
REMARK  Name = 
REMARK  5 active torsions:
REMARK  status: ('A' for Active; 'I' for Inactive)
REMARK    1  A    between atoms: C_1  and  C_2
REMARK    2  A    between atoms: C_4  and  C_5
REMARK    3  A    between atoms: N_7  and  C_8
REMARK    4  A    between atoms: C_13  and  N_14
REMARK    5  A    between atoms: C_17  and  C_18
REMARK                            x       y       z     vdW  Elec       q    Type
REMARK                         _______ _______ _______ _____ _____    ______ ____
ROOT
ATOM      1  C   UNL     1       7.768   5.423  18.512  0.00  0.00    +0.000 C 
ATOM      2  C   UNL     1       6.618   4.870  17.728  0.00  0.00    +0.000 A 
ATOM      3  N   UNL     1       5.597   4.312  18.407  0.00  0.00    +0.000 NA
ATOM      4  C   UNL     1       4.598   3.785  17.670  0.00  0.00    +0.000 A 
ATOM      5  C   UNL     1       4.647   3.817  16.278  0.00  0.00    +0.000 A 
ATOM      6  C   UNL     1       5.743   4.392  15.646  0.00  0.00    +0.000 A 
ATOM      7  N   UNL     1       6.732   4.914  16.385  0.00  0.00    +0.000 NA
ENDROOT
BRANCH   4   8
ATOM      8  C   UNL     1       3.578   2.870  18.357  0.00  0.00    +0.000 C 
ATOM      9  C   UNL     1       3.448   2.884  19.920  0.00  0.00    +0.000 C 
ATOM     10  N   UNL     1       2.289   3.597  20.522  0.00  0.00    +0.000 NA
ATOM     11  C   UNL     1       2.029   3.112  21.884  0.00  0.00    +0.000 C 
ATOM     12  C   UNL     1       1.085   3.415  19.700  0.00  0.00    +0.000 C 
ATOM     13  C   UNL     1       1.375   3.787  18.250  0.00  0.00    +0.000 C 
ATOM     14  O   UNL     1       2.299   2.858  17.682  0.00  0.00    +0.000 OA
ENDBRANCH   4   8
BRANCH   6  15
ATOM     15  N   UNL     1       5.892   4.309  14.247  0.00  0.00    +0.000 N 
ATOM     16  C   UNL     1       4.946   3.398  13.583  0.00  0.00    +0.000 C 
ATOM     17  C   UNL     1       4.905   3.728  12.088  0.00  0.00    +0.000 C 
ATOM     18  C   UNL     1       6.296   3.645  11.448  0.00  0.00    +0.000 C 
ATOM     19  C   UNL     1       7.281   4.519  12.238  0.00  0.00    +0.000 C 
ATOM     20  C   UNL     1       7.267   4.207  13.740  0.00  0.00    +0.000 C 
BRANCH  18  21
ATOM     21  C   UNL     1       6.810   2.217  11.323  0.00  0.00    +0.000 C 
ATOM     22  N   UNL     1       5.887   1.226  11.459  0.00  0.00    +0.000 N 
ATOM     23  O   UNL     1       7.978   1.925  11.065  0.00  0.00    +0.000 OA
ATOM     24  H   UNL     1       4.894   1.393  11.557  0.00  0.00    +0.000 HD
ATOM     25  H   UNL     1       6.205   0.278  11.315  0.00  0.00    +0.000 HD
ENDBRANCH  18  21
ENDBRANCH   6  15
TORSDOF 3
ENDMDL
MODEL 6
REMARK VINA RESULT:      -6.9      3.670      5.362
REMARK  Name = 
REMARK  5 active torsions:
REMARK  status: ('A' for Active; 'I' for Inactive)
REMARK    1  A    between atoms: C_1  and  C_2
REMARK    2  A    between atoms: C_4  and  C_5
REMARK    3  A    between atoms: N_7  and  C_8
REMARK    4  A    between atoms: C_13  and  N_14
REMARK    5  A    between atoms: C_17  and  C_18
REMARK                            x       y       z     vdW  Elec       q    Type
REMARK                         _______ _______ _______ _____ _____    ______ ____
ROOT
ATOM      1  C   UNL     1       7.392   8.294  17.567  0.00  0.00    +0.000 C 
ATOM      2  C   UNL     1       6.780   6.953  17.309  0.00  0.00    +0.000 A 
ATOM      3  N   UNL     1       7.375   6.147  16.407  0.00  0.00    +0.000 NA
ATOM      4  C   UNL     1       6.775   4.963  16.165  0.00  0.00    +0.000 A 
ATOM      5  C   UNL     1       5.593   4.618  16.818  0.00  0.00    +0.000 A 
ATOM      6  C   UNL     1       5.026   5.510  17.721  0.00  0.00    +0.000 A 
ATOM      7  N   UNL     1       5.628   6.684  17.956  0.00  0.00    +0.000 NA
ENDROOT
BRANCH   4   8
ATOM      8  C   UNL     1       7.214   4.149  14.943  0.00  0.00    +0.000 C 
ATOM      9  C   UNL     1       6.134   3.431  14.059  0.00  0.00    +0.000 C 
ATOM     10  N   UNL     1       5.777   4.043  12.752  0.00  0.00    +0.000 NA
ATOM     11  C   UNL     1       5.176   3.047  11.856  0.00  0.00    +0.000 C 
ATOM     12  C   UNL     1       6.964   4.625  12.111  0.00  0.00    +0.000 C 
ATOM     13  C   UNL     1       7.679   5.564  13.076  0.00  0.00    +0.000 C 
ATOM     14  O   UNL     1       8.230   4.820  14.164  0.00  0.00    +0.000 OA
ENDBRANCH   4   8
BRANCH   6  15
ATOM     15  N   UNL     1       3.759   5.255  18.284  0.00  0.00    +0.000 N 
ATOM     16  C   UNL     1       3.712   5.343  19.752  0.00  0.00    +0.000 C 
ATOM     17  C   UNL     1       2.254   5.494  20.195  0.00  0.00    +0.000 C 
ATOM     18  C   UNL     1       1.381   4.343  19.680  0.00  0.00    +0.000 C 
ATOM     19  C   UNL     1       1.545   4.210  18.160  0.00  0.00    +0.000 C 
ATOM     20  C   UNL     1       3.016   4.113  17.735  0.00  0.00    +0.000 C 
BRANCH  18  21
ATOM     21  C   UNL     1       1.665   3.020  20.380  0.00  0.00    +0.000 C 
ATOM     22  N   UNL     1       1.750   3.059  21.738  0.00  0.00    +0.000 N 
ATOM     23  O   UNL     1       1.772   1.942  19.797  0.00  0.00    +0.000 OA
ATOM     24  H   UNL     1       1.559   3.886  22.290  0.00  0.00    +0.000 HD
ATOM     25  H   UNL     1       1.875   2.178  22.216  0.00  0.00    +0.000 HD
ENDBRANCH  18  21
ENDBRANCH   6  15
TORSDOF 3
ENDMDL
MODEL 7
REMARK VINA RESULT:      -6.7      1.819      7.482
REMARK  Name = 
REMARK  5 active torsions:
REMARK  status: ('A' for Active; 'I' for Inactive)
REMARK    1  A    between atoms: C_1  and  C_2
REMARK    2  A    between atoms: C_4  and  C_5
REMARK    3  A    between atoms: N_7  and  C_8
REMARK    4  A    between atoms: C_13  and  N_14
REMARK    5  A    between atoms: C_17  and  C_18
REMARK                            x       y       z     vdW  Elec       q    Type
REMARK                         _______ _______ _______ _____ _____    ______ ____
ROOT
ATOM      1  C   UNL     1       1.171   7.925  21.898  0.00  0.00    +0.000 C 
ATOM      2  C   UNL     1       1.438   8.241  20.460  0.00  0.00    +0.000 A 
ATOM      3  N   UNL     1       0.787   9.284  19.908  0.00  0.00    +0.000 NA
ATOM      4  C   UNL     1       1.017   9.515  18.599  0.00  0.00    +0.000 A 
ATOM      5  C   UNL     1       1.878   8.695  17.871  0.00  0.00    +0.000 A 
ATOM      6  C   UNL     1       2.498   7.624  18.504  0.00  0.00    +0.000 A 
ATOM      7  N   UNL     1       2.265   7.401  19.805  0.00  0.00    +0.000 NA
ENDROOT
BRANCH   4   8
ATOM      8  C   UNL     1       0.087  10.471  17.844  0.00  0.00    +0.000 C 
ATOM      9  C   UNL     1      -1.355   9.999  17.445  0.00  0.00    +0.000 C 
ATOM     10  N   UNL     1      -2.504  10.500  18.245  0.00  0.00    +0.000 NA
ATOM     11  C   UNL     1      -3.755  10.399  17.482  0.00  0.00    +0.000 C 
ATOM     12  C   UNL     1      -2.287  11.897  18.645  0.00  0.00    +0.000 C 
ATOM     13  C   UNL     1      -0.929  12.046  19.323  0.00  0.00    +0.000 C 
ATOM     14  O   UNL     1       0.117  11.814  18.379  0.00  0.00    +0.000 OA
ENDBRANCH   4   8
BRANCH   6  15
ATOM     15  N   UNL     1       3.255   6.693  17.765  0.00  0.00    +0.000 N 
ATOM     16  C   UNL     1       3.321   5.348  18.359  0.00  0.00    +0.000 C 
ATOM     17  C   UNL     1       3.765   4.351  17.284  0.00  0.00    +0.000 C 
ATOM     18  C   UNL     1       5.107   4.747  16.658  0.00  0.00    +0.000 C 
ATOM     19  C   UNL     1       5.033   6.195  16.152  0.00  0.00    +0.000 C 
ATOM     20  C   UNL     1       4.538   7.168  17.230  0.00  0.00    +0.000 C 
BRANCH  18  21
ATOM     21  C   UNL     1       6.285   4.556  17.603  0.00  0.00    +0.000 C 
ATOM     22  N   UNL     1       7.526   4.709  17.064  0.00  0.00    +0.000 N 
ATOM     23  O   UNL     1       6.172   4.323  18.807  0.00  0.00    +0.000 OA
ATOM     24  H   UNL     1       7.692   5.011  16.113  0.00  0.00    +0.000 HD
ATOM     25  H   UNL     1       8.312   4.646  17.695  0.00  0.00    +0.000 HD
ENDBRANCH  18  21
ENDBRANCH   6  15
TORSDOF 3
ENDMDL
MODEL 8
REMARK VINA RESULT:      -6.7      1.663      2.243
REMARK  Name = 
REMARK  5 active torsions:
REMARK  status: ('A' for Active; 'I' for Inactive)
REMARK    1  A    between atoms: C_1  and  C_2
REMARK    2  A    between atoms: C_4  and  C_5
REMARK    3  A    between atoms: N_7  and  C_8
REMARK    4  A    between atoms: C_13  and  N_14
REMARK    5  A    between atoms: C_17  and  C_18
REMARK                            x       y       z     vdW  Elec       q    Type
REMARK                         _______ _______ _______ _____ _____    ______ ____
ROOT
ATOM      1  C   UNL     1       1.964   4.868  20.802  0.00  0.00    +0.000 C 
ATOM      2  C   UNL     1       2.328   5.935  19.818  0.00  0.00    +0.000 A 
ATOM      3  N   UNL     1       3.289   5.663  18.912  0.00  0.00    +0.000 NA
ATOM      4  C   UNL     1       3.624   6.660  18.068  0.00  0.00    +0.000 A 
ATOM      5  C   UNL     1       3.003   7.905  18.155  0.00  0.00    +0.000 A 
ATOM      6  C   UNL     1       2.035   8.119  19.129  0.00  0.00    +0.000 A 
ATOM      7  N   UNL     1       1.707   7.123  19.964  0.00  0.00    +0.000 NA
ENDROOT
BRANCH   4   8
ATOM      8  C   UNL     1       4.905   6.525  17.238  0.00  0.00    +0.000 C 
ATOM      9  C   UNL     1       6.226   6.026  17.922  0.00  0.00    +0.000 C 
ATOM     10  N   UNL     1       6.656   4.624  17.678  0.00  0.00    +0.000 NA
ATOM     11  C   UNL     1       8.093   4.466  17.941  0.00  0.00    +0.000 C 
ATOM     12  C   UNL     1       6.366   4.225  16.294  0.00  0.00    +0.000 C 
ATOM     13  C   UNL     1       4.905   4.507  15.960  0.00  0.00    +0.000 C 
ATOM     14  O   UNL     1       4.669   5.916  15.948  0.00  0.00    +0.000 OA
ENDBRANCH   4   8
BRANCH   6  15
ATOM     15  N   UNL     1       1.497   9.405  19.338  0.00  0.00    +0.000 N 
ATOM     16  C   UNL     1       0.212   9.422  20.056  0.00  0.00    +0.000 C 
ATOM     17  C   UNL     1      -0.032  10.832  20.603  0.00  0.00    +0.000 C 
ATOM     18  C   UNL     1      -0.005  11.887  19.490  0.00  0.00    +0.000 C 
ATOM     19  C   UNL     1       1.301  11.761  18.692  0.00  0.00    +0.000 C 
ATOM     20  C   UNL     1       1.551  10.330  18.198  0.00  0.00    +0.000 C 
BRANCH  18  21
ATOM     21  C   UNL     1      -1.217  11.817  18.572  0.00  0.00    +0.000 C 
ATOM     22  N   UNL     1      -1.186  12.609  17.465  0.00  0.00    +0.000 N 
ATOM     23  O   UNL     1      -2.176  11.067  18.753  0.00  0.00    +0.000 OA
ATOM     24  H   UNL     1      -0.385  13.164  17.194  0.00  0.00    +0.000 HD
ATOM     25  H   UNL     1      -1.957  12.524  16.818  0.00  0.00    +0.000 HD
ENDBRANCH  18  21
ENDBRANCH   6  15
TORSDOF 3
ENDMDL
MODEL 9
REMARK VINA RESULT:      -6.7      1.841      6.855
REMARK  Name = 
REMARK  5 active torsions:
REMARK  status: ('A' for Active; 'I' for Inactive)
REMARK    1  A    between atoms: C_1  and  C_2
REMARK    2  A    between atoms: C_4  and  C_5
REMARK    3  A    between atoms: N_7  and  C_8
REMARK    4  A    between atoms: C_13  and  N_14
REMARK    5  A    between atoms: C_17  and  C_18
REMARK                            x       y       z     vdW  Elec       q    Type
REMARK                         _______ _______ _______ _____ _____    ______ ____
ROOT
ATOM      1  C   UNL     1       1.057   3.666  20.757  0.00  0.00    +0.000 C 
ATOM      2  C   UNL     1       1.776   4.845  20.179  0.00  0.00    +0.000 A 
ATOM      3  N   UNL     1       1.571   6.053  20.741  0.00  0.00    +0.000 NA
ATOM      4  C   UNL     1       2.200   7.100  20.170  0.00  0.00    +0.000 A 
ATOM      5  C   UNL     1       3.007   6.920  19.047  0.00  0.00    +0.000 A 
ATOM      6  C   UNL     1       3.155   5.647  18.509  0.00  0.00    +0.000 A 
ATOM      7  N   UNL     1       2.527   4.610  19.083  0.00  0.00    +0.000 NA
ENDROOT
BRANCH   4   8
ATOM      8  C   UNL     1       1.769   8.519  20.555  0.00  0.00    +0.000 C 
ATOM      9  C   UNL     1       1.173   9.474  19.462  0.00  0.00    +0.000 C 
ATOM     10  N   UNL     1      -0.297   9.695  19.449  0.00  0.00    +0.000 NA
ATOM     11  C   UNL     1      -0.632  10.941  18.747  0.00  0.00    +0.000 C 
ATOM     12  C   UNL     1      -0.825   9.749  20.819  0.00  0.00    +0.000 C 
ATOM     13  C   UNL     1      -0.375   8.522  21.606  0.00  0.00    +0.000 C 
ATOM     14  O   UNL     1       1.039   8.560  21.802  0.00  0.00    +0.000 OA
ENDBRANCH   4   8
BRANCH   6  15
ATOM     15  N   UNL     1       3.841   5.455  17.294  0.00  0.00    +0.000 N 
ATOM     16  C   UNL     1       4.544   4.167  17.183  0.00  0.00    +0.000 C 
ATOM     17  C   UNL     1       4.853   3.894  15.708  0.00  0.00    +0.000 C 
ATOM     18  C   UNL     1       5.672   5.028  15.079  0.00  0.00    +0.000 C 
ATOM     19  C   UNL     1       4.962   6.369  15.314  0.00  0.00    +0.000 C 
ATOM     20  C   UNL     1       4.616   6.598  16.791  0.00  0.00    +0.000 C 
BRANCH  18  21
ATOM     21  C   UNL     1       7.109   5.074  15.577  0.00  0.00    +0.000 C 
ATOM     22  N   UNL     1       7.415   4.254  16.621  0.00  0.00    +0.000 N 
ATOM     23  O   UNL     1       7.994   5.761  15.068  0.00  0.00    +0.000 OA
ATOM     24  H   UNL     1       6.771   3.581  17.014  0.00  0.00    +0.000 HD
ATOM     25  H   UNL     1       8.381   4.230  16.919  0.00  0.00    +0.000 HD
ENDBRANCH  18  21
ENDBRANCH   6  15
TORSDOF 3
ENDMDL
