MODEL 1
REMARK VINA RESULT:      -7.4      0.000      0.000
REMARK  Name = 
REMARK  5 active torsions:
REMARK  status: ('A' for Active; 'I' for Inactive)
REMARK    1  A    between atoms: C_1  and  N_2
REMARK    2  A    between atoms: N_2  and  C_3
REMARK    3  A    between atoms: C_4  and  C_6
REMARK    4  A    between atoms: C_9  and  C_10
REMARK    5  A    between atoms: C_10  and  N_11
REMARK                            x       y       z     vdW  Elec       q    Type
REMARK                         _______ _______ _______ _____ _____    ______ ____
ROOT
ATOM      1  C   UNL     1       1.490   8.899  19.738  0.00  0.00    +0.000 A 
ATOM      2  C   UNL     1       1.977   8.731  18.451  0.00  0.00    +0.000 A 
ATOM      3  C   UNL     1       2.525   7.434  18.346  0.00  0.00    +0.000 A 
ATOM      4  C   UNL     1       2.464   6.855  19.595  0.00  0.00    +0.000 A 
ATOM      5  N   UNL     1       1.891   7.775  20.440  0.00  0.00    +0.000 N 
ATOM      6  H   UNL     1       1.752   7.660  21.436  0.00  0.00    +0.000 HD
ENDROOT
BRANCH   1  10
ATOM      7  C   UNL     1      -0.897  11.754  20.395  0.00  0.00    +0.000 C 
ATOM      8  N   UNL     1      -0.282  10.617  19.735  0.00  0.00    +0.000 N 
ATOM      9  C   UNL     1      -0.908  10.139  18.513  0.00  0.00    +0.000 C 
ATOM     10  C   UNL     1       0.780   9.986  20.395  0.00  0.00    +0.000 C 
ATOM     11  O   UNL     1       1.094  10.323  21.538  0.00  0.00    +0.000 OA
ENDBRANCH   1  10
BRANCH   4  12
ATOM     12  C   UNL     1       2.932   5.511  20.057  0.00  0.00    +0.000 C 
BRANCH  12  13
ATOM     13  N   UNL     1       3.483   4.648  19.023  0.00  0.00    +0.000 N 
ATOM     14  C   UNL     1       2.640   4.216  17.898  0.00  0.00    +0.000 C 
ATOM     15  C   UNL     1       3.570   3.774  16.753  0.00  0.00    +0.000 C 
ATOM     16  C   UNL     1       4.888   4.304  17.211  0.00  0.00    +0.000 A 
ATOM     17  C   UNL     1       6.102   4.307  16.544  0.00  0.00    +0.000 A 
ATOM     18 CL   UNL     1       6.254   3.650  14.962  0.00  0.00    +0.000 Cl
ATOM     19  C   UNL     1       7.220   4.842  17.183  0.00  0.00    +0.000 A 
ATOM     20  C   UNL     1       7.106   5.358  18.479  0.00  0.00    +0.000 A 
ATOM     21  C   UNL     1       5.877   5.340  19.147  0.00  0.00    +0.000 A 
ATOM     22  C   UNL     1       4.765   4.813  18.509  0.00  0.00    +0.000 A 
ENDBRANCH  12  13
ENDBRANCH   4  12
TORSDOF 3
ENDMDL
MODEL 2
REMARK VINA RESULT:      -7.2      2.111      3.314
REMARK  Name = 
REMARK  5 active torsions:
REMARK  status: ('A' for Active; 'I' for Inactive)
REMARK    1  A    between atoms: C_1  and  N_2
REMARK    2  A    between atoms: N_2  and  C_3
REMARK    3  A    between atoms: C_4  and  C_6
REMARK    4  A    between atoms: C_9  and  C_10
REMARK    5  A    between atoms: C_10  and  N_11
REMARK                            x       y       z     vdW  Elec       q    Type
REMARK                         _______ _______ _______ _____ _____    ______ ____
ROOT
ATOM      1  C   UNL     1       0.279  10.310  18.917  0.00  0.00    +0.000 A 
ATOM      2  C   UNL     1       1.158  10.284  17.845  0.00  0.00    +0.000 A 
ATOM      3  C   UNL     1       1.999   9.159  17.982  0.00  0.00    +0.000 A 
ATOM      4  C   UNL     1       1.701   8.562  19.188  0.00  0.00    +0.000 A 
ATOM      5  N   UNL     1       0.701   9.304  19.771  0.00  0.00    +0.000 N 
ATOM      6  H   UNL     1       0.299   9.144  20.685  0.00  0.00    +0.000 HD
ENDROOT
BRANCH   1  10
ATOM      7  C   UNL     1      -3.107  11.987  18.946  0.00  0.00    +0.000 C 
ATOM      8  N   UNL     1      -2.062  11.031  18.624  0.00  0.00    +0.000 N 
ATOM      9  C   UNL     1      -2.424   9.915  17.768  0.00  0.00    +0.000 C 
ATOM     10  C   UNL     1      -0.829  11.184  19.270  0.00  0.00    +0.000 C 
ATOM     11  O   UNL     1      -0.687  12.029  20.156  0.00  0.00    +0.000 OA
ENDBRANCH   1  10
BRANCH   4  12
ATOM     12  C   UNL     1       2.308   7.363  19.845  0.00  0.00    +0.000 C 
BRANCH  12  13
ATOM     13  N   UNL     1       2.472   6.195  18.994  0.00  0.00    +0.000 N 
ATOM     14  C   UNL     1       3.650   6.078  18.121  0.00  0.00    +0.000 C 
ATOM     15  C   UNL     1       3.820   4.593  17.754  0.00  0.00    +0.000 C 
ATOM     16  C   UNL     1       2.900   3.932  18.724  0.00  0.00    +0.000 A 
ATOM     17  C   UNL     1       2.700   2.580  18.950  0.00  0.00    +0.000 A 
ATOM     18 CL   UNL     1       3.572   1.389  18.067  0.00  0.00    +0.000 Cl
ATOM     19  C   UNL     1       1.762   2.187  19.903  0.00  0.00    +0.000 A 
ATOM     20  C   UNL     1       1.034   3.153  20.609  0.00  0.00    +0.000 A 
ATOM     21  C   UNL     1       1.236   4.516  20.365  0.00  0.00    +0.000 A 
ATOM     22  C   UNL     1       2.174   4.905  19.421  0.00  0.00    +0.000 A 
ENDBRANCH  12  13
ENDBRANCH   4  12
TORSDOF 3
ENDMDL
MODEL 3
REMARK VINA RESULT:      -7.2      3.608      7.607
REMARK  Name = 
REMARK  5 active torsions:
REMARK  status: ('A' for Active; 'I' for Inactive)
REMARK    1  A    between atoms: C_1  and  N_2
REMARK    2  A    between atoms: N_2  and  C_3
REMARK    3  A    between atoms: C_4  and  C_6
REMARK    4  A    between atoms: C_9  and  C_10
REMARK    5  A    between atoms: C_10  and  N_11
REMARK                            x       y       z     vdW  Elec       q    Type
REMARK                         _______ _______ _______ _____ _____    ______ ____
ROOT
ATOM      1  C   UNL     1       4.016   5.059  18.633  0.00  0.00    +0.000 A 
ATOM      2  C   UNL     1       2.855   4.781  17.930  0.00  0.00    +0.000 A 
ATOM      3  C   UNL     1       1.783   5.462  18.548  0.00  0.00    +0.000 A 
ATOM      4  C   UNL     1       2.276   6.067  19.684  0.00  0.00    +0.000 A 
ATOM      5  N   UNL     1       3.616   5.764  19.755  0.00  0.00    +0.000 N 
ATOM      6  H   UNL     1       4.245   6.027  20.503  0.00  0.00    +0.000 HD
ENDROOT
BRANCH   1  10
ATOM      7  C   UNL     1       7.440   4.662  17.084  0.00  0.00    +0.000 C 
ATOM      8  N   UNL     1       6.081   5.132  17.283  0.00  0.00    +0.000 N 
ATOM      9  C   UNL     1       5.580   6.129  16.353  0.00  0.00    +0.000 C 
ATOM     10  C   UNL     1       5.409   4.691  18.430  0.00  0.00    +0.000 C 
ATOM     11  O   UNL     1       5.999   4.024  19.283  0.00  0.00    +0.000 OA
ENDBRANCH   1  10
BRANCH   4  12
ATOM     12  C   UNL     1       1.574   6.883  20.722  0.00  0.00    +0.000 C 
BRANCH  12  13
ATOM     13  N   UNL     1       1.528   8.315  20.471  0.00  0.00    +0.000 N 
ATOM     14  C   UNL     1       1.563   8.823  19.091  0.00  0.00    +0.000 C 
ATOM     15  C   UNL     1       1.001  10.256  19.100  0.00  0.00    +0.000 C 
ATOM     16  C   UNL     1       0.381  10.331  20.455  0.00  0.00    +0.000 A 
ATOM     17  C   UNL     1      -0.376  11.350  21.009  0.00  0.00    +0.000 A 
ATOM     18 CL   UNL     1      -0.737  12.778  20.122  0.00  0.00    +0.000 Cl
ATOM     19  C   UNL     1      -0.839  11.211  22.316  0.00  0.00    +0.000 A 
ATOM     20  C   UNL     1      -0.530  10.059  23.051  0.00  0.00    +0.000 A 
ATOM     21  C   UNL     1       0.246   9.041  22.485  0.00  0.00    +0.000 A 
ATOM     22  C   UNL     1       0.700   9.178  21.182  0.00  0.00    +0.000 A 
ENDBRANCH  12  13
ENDBRANCH   4  12
TORSDOF 3
ENDMDL
MODEL 4
REMARK VINA RESULT:      -7.2      4.230      7.251
REMARK  Name = 
REMARK  5 active torsions:
REMARK  status: ('A' for Active; 'I' for Inactive)
REMARK    1  A    between atoms: C_1  and  N_2
REMARK    2  A    between atoms: N_2  and  C_3
REMARK    3  A    between atoms: C_4  and  C_6
REMARK    4  A    between atoms: C_9  and  C_10
REMARK    5  A    between atoms: C_10  and  N_11
REMARK                            x       y       z     vdW  Elec       q    Type
REMARK                         _______ _______ _______ _____ _____    ______ ____
ROOT
ATOM      1  C   UNL     1       6.833   5.361  15.236  0.00  0.00    +0.000 A 
ATOM      2  C   UNL     1       7.441   5.248  16.476  0.00  0.00    +0.000 A 
ATOM      3  C   UNL     1       6.498   5.588  17.470  0.00  0.00    +0.000 A 
ATOM      4  C   UNL     1       5.352   6.007  16.829  0.00  0.00    +0.000 A 
ATOM      5  N   UNL     1       5.590   5.922  15.477  0.00  0.00    +0.000 N 
ATOM      6  H   UNL     1       4.954   6.204  14.743  0.00  0.00    +0.000 HD
ENDROOT
BRANCH   1  10
ATOM      7  C   UNL     1       7.158   3.838  11.792  0.00  0.00    +0.000 C 
ATOM      8  N   UNL     1       6.610   4.141  13.103  0.00  0.00    +0.000 N 
ATOM      9  C   UNL     1       5.330   3.542  13.442  0.00  0.00    +0.000 C 
ATOM     10  C   UNL     1       7.287   5.087  13.881  0.00  0.00    +0.000 C 
ATOM     11  O   UNL     1       8.242   5.713  13.415  0.00  0.00    +0.000 OA
ENDBRANCH   1  10
BRANCH   4  12
ATOM     12  C   UNL     1       4.061   6.510  17.393  0.00  0.00    +0.000 C 
BRANCH  12  13
ATOM     13  N   UNL     1       3.624   5.872  18.626  0.00  0.00    +0.000 N 
ATOM     14  C   UNL     1       2.752   6.598  19.562  0.00  0.00    +0.000 C 
ATOM     15  C   UNL     1       2.059   5.562  20.464  0.00  0.00    +0.000 C 
ATOM     16  C   UNL     1       2.351   4.288  19.743  0.00  0.00    +0.000 A 
ATOM     17  C   UNL     1       1.897   3.009  20.020  0.00  0.00    +0.000 A 
ATOM     18 CL   UNL     1       0.838   2.703  21.340  0.00  0.00    +0.000 Cl
ATOM     19  C   UNL     1       2.323   1.954  19.214  0.00  0.00    +0.000 A 
ATOM     20  C   UNL     1       3.201   2.195  18.150  0.00  0.00    +0.000 A 
ATOM     21  C   UNL     1       3.663   3.489  17.888  0.00  0.00    +0.000 A 
ATOM     22  C   UNL     1       3.234   4.538  18.685  0.00  0.00    +0.000 A 
ENDBRANCH  12  13
ENDBRANCH   4  12
TORSDOF 3
ENDMDL
MODEL 5
REMARK VINA RESULT:      -7.2      3.671      7.460
REMARK  Name = 
REMARK  5 active torsions:
REMARK  status: ('A' for Active; 'I' for Inactive)
REMARK    1  A    between atoms: C_1  and  N_2
REMARK    2  A    between atoms: N_2  and  C_3
REMARK    3  A    between atoms: C_4  and  C_6
REMARK    4  A    between atoms: C_9  and  C_10
REMARK    5  A    between atoms: C_10  and  N_11
REMARK                            x       y       z     vdW  Elec       q    Type
REMARK                         _______ _______ _______ _____ _____    ______ ____
ROOT
ATOM      1  C   UNL     1       5.801   5.662  17.510  0.00  0.00    +0.000 A 
ATOM      2  C   UNL     1       5.976   5.094  18.762  0.00  0.00    +0.000 A 
ATOM      3  C   UNL     1       4.769   5.218  19.483  0.00  0.00    +0.000 A 
ATOM      4  C   UNL     1       3.897   5.953  18.709  0.00  0.00    +0.000 A 
ATOM      5  N   UNL     1       4.555   6.266  17.543  0.00  0.00    +0.000 N 
ATOM      6  H   UNL     1       4.193   6.838  16.792  0.00  0.00    +0.000 HD
ENDROOT
BRANCH   1  10
ATOM      7  C   UNL     1       7.414   4.999  14.157  0.00  0.00    +0.000 C 
ATOM      8  N   UNL     1       6.471   4.908  15.257  0.00  0.00    +0.000 N 
ATOM      9  C   UNL     1       5.327   4.029  15.081  0.00  0.00    +0.000 C 
ATOM     10  C   UNL     1       6.662   5.772  16.343  0.00  0.00    +0.000 C 
ATOM     11  O   UNL     1       7.532   6.645  16.300  0.00  0.00    +0.000 OA
ENDBRANCH   1  10
BRANCH   4  12
ATOM     12  C   UNL     1       2.501   6.406  18.997  0.00  0.00    +0.000 C 
BRANCH  12  13
ATOM     13  N   UNL     1       2.297   7.846  19.010  0.00  0.00    +0.000 N 
ATOM     14  C   UNL     1       2.142   8.580  17.745  0.00  0.00    +0.000 C 
ATOM     15  C   UNL     1       1.454   9.921  18.058  0.00  0.00    +0.000 C 
ATOM     16  C   UNL     1       0.975   9.699  19.453  0.00  0.00    +0.000 A 
ATOM     17  C   UNL     1       0.189  10.521  20.243  0.00  0.00    +0.000 A 
ATOM     18 CL   UNL     1      -0.392  12.031  19.659  0.00  0.00    +0.000 Cl
ATOM     19  C   UNL     1      -0.120  10.115  21.540  0.00  0.00    +0.000 A 
ATOM     20  C   UNL     1       0.368   8.896  22.028  0.00  0.00    +0.000 A 
ATOM     21  C   UNL     1       1.171   8.079  21.225  0.00  0.00    +0.000 A 
ATOM     22  C   UNL     1       1.472   8.481  19.933  0.00  0.00    +0.000 A 
ENDBRANCH  12  13
ENDBRANCH   4  12
TORSDOF 3
ENDMDL
MODEL 6
REMARK VINA RESULT:      -7.2      3.321      7.302
REMARK  Name = 
REMARK  5 active torsions:
REMARK  status: ('A' for Active; 'I' for Inactive)
REMARK    1  A    between atoms: C_1  and  N_2
REMARK    2  A    between atoms: N_2  and  C_3
REMARK    3  A    between atoms: C_4  and  C_6
REMARK    4  A    between atoms: C_9  and  C_10
REMARK    5  A    between atoms: C_10  and  N_11
REMARK                            x       y       z     vdW  Elec       q    Type
REMARK                         _______ _______ _______ _____ _____    ______ ____
ROOT
ATOM      1  C   UNL     1       4.545   4.549  19.216  0.00  0.00    +0.000 A 
ATOM      2  C   UNL     1       3.666   3.496  19.411  0.00  0.00    +0.000 A 
ATOM      3  C   UNL     1       2.450   4.014  19.909  0.00  0.00    +0.000 A 
ATOM      4  C   UNL     1       2.628   5.365  20.114  0.00  0.00    +0.000 A 
ATOM      5  N   UNL     1       3.919   5.664  19.748  0.00  0.00    +0.000 N 
ATOM      6  H   UNL     1       4.364   6.569  19.827  0.00  0.00    +0.000 HD
ENDROOT
BRANCH   1  10
ATOM      7  C   UNL     1       7.464   4.529  16.816  0.00  0.00    +0.000 C 
ATOM      8  N   UNL     1       6.093   4.538  17.294  0.00  0.00    +0.000 N 
ATOM      9  C   UNL     1       5.041   4.597  16.294  0.00  0.00    +0.000 C 
ATOM     10  C   UNL     1       5.895   4.627  18.678  0.00  0.00    +0.000 C 
ATOM     11  O   UNL     1       6.850   4.804  19.436  0.00  0.00    +0.000 OA
ENDBRANCH   1  10
BRANCH   4  12
ATOM     12  C   UNL     1       1.682   6.389  20.657  0.00  0.00    +0.000 C 
BRANCH  12  13
ATOM     13  N   UNL     1       1.839   7.734  20.126  0.00  0.00    +0.000 N 
ATOM     14  C   UNL     1       1.997   7.941  18.679  0.00  0.00    +0.000 C 
ATOM     15  C   UNL     1       1.633   9.404  18.368  0.00  0.00    +0.000 C 
ATOM     16  C   UNL     1       0.976   9.830  19.638  0.00  0.00    +0.000 A 
ATOM     17  C   UNL     1       0.341  11.026  19.929  0.00  0.00    +0.000 A 
ATOM     18 CL   UNL     1       0.211  12.278  18.757  0.00  0.00    +0.000 Cl
ATOM     19  C   UNL     1      -0.187  11.215  21.206  0.00  0.00    +0.000 A 
ATOM     20  C   UNL     1      -0.066  10.208  22.171  0.00  0.00    +0.000 A 
ATOM     21  C   UNL     1       0.588   9.009  21.869  0.00  0.00    +0.000 A 
ATOM     22  C   UNL     1       1.107   8.819  20.598  0.00  0.00    +0.000 A 
ENDBRANCH  12  13
ENDBRANCH   4  12
TORSDOF 3
ENDMDL
MODEL 7
REMARK VINA RESULT:      -7.1      4.596      6.480
REMARK  Name = 
REMARK  5 active torsions:
REMARK  status: ('A' for Active; 'I' for Inactive)
REMARK    1  A    between atoms: C_1  and  N_2
REMARK    2  A    between atoms: N_2  and  C_3
REMARK    3  A    between atoms: C_4  and  C_6
REMARK    4  A    between atoms: C_9  and  C_10
REMARK    5  A    between atoms: C_10  and  N_11
REMARK                            x       y       z     vdW  Elec       q    Type
REMARK                         _______ _______ _______ _____ _____    ______ ____
ROOT
ATOM      1  C   UNL     1       8.802   9.561  18.867  0.00  0.00    +0.000 A 
ATOM      2  C   UNL     1       8.059   9.707  17.706  0.00  0.00    +0.000 A 
ATOM      3  C   UNL     1       7.506   8.452  17.369  0.00  0.00    +0.000 A 
ATOM      4  C   UNL     1       7.998   7.527  18.264  0.00  0.00    +0.000 A 
ATOM      5  N   UNL     1       8.829   8.201  19.128  0.00  0.00    +0.000 N 
ATOM      6  H   UNL     1       9.376   7.786  19.870  0.00  0.00    +0.000 HD
ENDROOT
BRANCH   1  10
ATOM      7  C   UNL     1      11.302  12.152  20.016  0.00  0.00    +0.000 C 
ATOM      8  N   UNL     1      10.539  11.296  19.126  0.00  0.00    +0.000 N 
ATOM      9  C   UNL     1      10.782  11.434  17.700  0.00  0.00    +0.000 C 
ATOM     10  C   UNL     1       9.536  10.503  19.699  0.00  0.00    +0.000 C 
ATOM     11  O   UNL     1       9.249  10.623  20.892  0.00  0.00    +0.000 OA
ENDBRANCH   1  10
BRANCH   4  12
ATOM     12  C   UNL     1       7.768   6.052  18.348  0.00  0.00    +0.000 C 
BRANCH  12  13
ATOM     13  N   UNL     1       6.632   5.549  17.590  0.00  0.00    +0.000 N 
ATOM     14  C   UNL     1       6.842   4.581  16.503  0.00  0.00    +0.000 C 
ATOM     15  C   UNL     1       5.505   3.864  16.243  0.00  0.00    +0.000 C 
ATOM     16  C   UNL     1       4.710   4.260  17.442  0.00  0.00    +0.000 A 
ATOM     17  C   UNL     1       3.448   3.838  17.826  0.00  0.00    +0.000 A 
ATOM     18 CL   UNL     1       2.565   2.696  16.890  0.00  0.00    +0.000 Cl
ATOM     19  C   UNL     1       2.885   4.365  18.987  0.00  0.00    +0.000 A 
ATOM     20  C   UNL     1       3.591   5.311  19.741  0.00  0.00    +0.000 A 
ATOM     21  C   UNL     1       4.860   5.739  19.337  0.00  0.00    +0.000 A 
ATOM     22  C   UNL     1       5.421   5.209  18.186  0.00  0.00    +0.000 A 
ENDBRANCH  12  13
ENDBRANCH   4  12
TORSDOF 3
ENDMDL
MODEL 8
REMARK VINA RESULT:      -7.0      2.125      3.404
REMARK  Name = 
REMARK  5 active torsions:
REMARK  status: ('A' for Active; 'I' for Inactive)
REMARK    1  A    between atoms: C_1  and  N_2
REMARK    2  A    between atoms: N_2  and  C_3
REMARK    3  A    between atoms: C_4  and  C_6
REMARK    4  A    between atoms: C_9  and  C_10
REMARK    5  A    between atoms: C_10  and  N_11
REMARK                            x       y       z     vdW  Elec       q    Type
REMARK                         _______ _______ _______ _____ _____    ______ ____
ROOT
ATOM      1  C   UNL     1       0.395  10.381  19.179  0.00  0.00    +0.000 A 
ATOM      2  C   UNL     1       0.922  10.115  17.926  0.00  0.00    +0.000 A 
ATOM      3  C   UNL     1       1.645   8.904  17.992  0.00  0.00    +0.000 A 
ATOM      4  C   UNL     1       1.644   8.492  19.307  0.00  0.00    +0.000 A 
ATOM      5  N   UNL     1       0.935   9.427  20.024  0.00  0.00    +0.000 N 
ATOM      6  H   UNL     1       0.797   9.426  21.026  0.00  0.00    +0.000 HD
ENDROOT
BRANCH   1  10
ATOM      7  C   UNL     1      -0.816  13.506  20.927  0.00  0.00    +0.000 C 
ATOM      8  N   UNL     1       0.095  12.527  20.360  0.00  0.00    +0.000 N 
ATOM      9  C   UNL     1       1.515  12.831  20.416  0.00  0.00    +0.000 C 
ATOM     10  C   UNL     1      -0.469  11.436  19.687  0.00  0.00    +0.000 C 
ATOM     11  O   UNL     1      -1.685  11.382  19.493  0.00  0.00    +0.000 OA
ENDBRANCH   1  10
BRANCH   4  12
ATOM     12  C   UNL     1       2.285   7.299  19.943  0.00  0.00    +0.000 C 
BRANCH  12  13
ATOM     13  N   UNL     1       2.517   6.165  19.061  0.00  0.00    +0.000 N 
ATOM     14  C   UNL     1       3.767   6.073  18.292  0.00  0.00    +0.000 C 
ATOM     15  C   UNL     1       3.961   4.603  17.880  0.00  0.00    +0.000 C 
ATOM     16  C   UNL     1       2.955   3.911  18.737  0.00  0.00    +0.000 A 
ATOM     17  C   UNL     1       2.728   2.553  18.888  0.00  0.00    +0.000 A 
ATOM     18 CL   UNL     1       3.667   1.391  18.037  0.00  0.00    +0.000 Cl
ATOM     19  C   UNL     1       1.707   2.130  19.737  0.00  0.00    +0.000 A 
ATOM     20  C   UNL     1       0.924   3.073  20.416  0.00  0.00    +0.000 A 
ATOM     21  C   UNL     1       1.155   4.443  20.247  0.00  0.00    +0.000 A 
ATOM     22  C   UNL     1       2.175   4.862  19.407  0.00  0.00    +0.000 A 
ENDBRANCH  12  13
ENDBRANCH   4  12
TORSDOF 3
ENDMDL
MODEL 9
REMARK VINA RESULT:      -7.0      1.093      1.167
REMARK  Name = 
REMARK  5 active torsions:
REMARK  status: ('A' for Active; 'I' for Inactive)
REMARK    1  A    between atoms: C_1  and  N_2
REMARK    2  A    between atoms: N_2  and  C_3
REMARK    3  A    between atoms: C_4  and  C_6
REMARK    4  A    between atoms: C_9  and  C_10
REMARK    5  A    between atoms: C_10  and  N_11
REMARK                            x       y       z     vdW  Elec       q    Type
REMARK                         _______ _______ _______ _____ _____    ______ ____
ROOT
ATOM      1  C   UNL     1       1.261   9.309  18.981  0.00  0.00    +0.000 A 
ATOM      2  C   UNL     1       2.018   9.127  17.834  0.00  0.00    +0.000 A 
ATOM      3  C   UNL     1       2.692   7.891  17.932  0.00  0.00    +0.000 A 
ATOM      4  C   UNL     1       2.428   7.373  19.182  0.00  0.00    +0.000 A 
ATOM      5  N   UNL     1       1.611   8.270  19.828  0.00  0.00    +0.000 N 
ATOM      6  H   UNL     1       1.280   8.192  20.781  0.00  0.00    +0.000 HD
ENDROOT
BRANCH   1  10
ATOM      7  C   UNL     1      -0.189  12.676  19.897  0.00  0.00    +0.000 C 
ATOM      8  N   UNL     1       0.740  11.687  19.379  0.00  0.00    +0.000 N 
ATOM      9  C   UNL     1       1.954  12.181  18.752  0.00  0.00    +0.000 C 
ATOM     10  C   UNL     1       0.335  10.347  19.404  0.00  0.00    +0.000 C 
ATOM     11  O   UNL     1      -0.811  10.047  19.747  0.00  0.00    +0.000 OA
ENDBRANCH   1  10
BRANCH   4  12
ATOM     12  C   UNL     1       2.913   6.111  19.823  0.00  0.00    +0.000 C 
BRANCH  12  13
ATOM     13  N   UNL     1       3.436   5.104  18.912  0.00  0.00    +0.000 N 
ATOM     14  C   UNL     1       2.606   4.610  17.804  0.00  0.00    +0.000 C 
ATOM     15  C   UNL     1       3.542   3.984  16.755  0.00  0.00    +0.000 C 
ATOM     16  C   UNL     1       4.877   4.470  17.209  0.00  0.00    +0.000 A 
ATOM     17  C   UNL     1       6.111   4.318  16.600  0.00  0.00    +0.000 A 
ATOM     18 CL   UNL     1       6.272   3.484  15.105  0.00  0.00    +0.000 Cl
ATOM     19  C   UNL     1       7.241   4.843  17.225  0.00  0.00    +0.000 A 
ATOM     20  C   UNL     1       7.119   5.505  18.453  0.00  0.00    +0.000 A 
ATOM     21  C   UNL     1       5.868   5.643  19.065  0.00  0.00    +0.000 A 
ATOM     22  C   UNL     1       4.745   5.126  18.440  0.00  0.00    +0.000 A 
ENDBRANCH  12  13
ENDBRANCH   4  12
TORSDOF 3
ENDMDL
