MODEL 1
REMARK VINA RESULT:      -8.3      0.000      0.000
REMARK  Name = 
REMARK  6 active torsions:
REMARK  status: ('A' for Active; 'I' for Inactive)
REMARK    1  A    between atoms: C_1  and  C_2
REMARK    2  A    between atoms: N_5  and  S_6
REMARK    3  A    between atoms: S_6  and  C_9
REMARK    4  A    between atoms: C_12  and  N_13
REMARK    5  A    between atoms: N_17  and  C_18
REMARK    6  A    between atoms: C_18  and  O_19
REMARK                            x       y       z     vdW  Elec       q    Type
REMARK                         _______ _______ _______ _____ _____    ______ ____
ROOT
ATOM      1  C   UNL     1       0.784   9.396  19.427  0.00  0.00    +0.000 A 
ATOM      2  C   UNL     1       1.259   9.400  18.125  0.00  0.00    +0.000 A 
ATOM      3  C   UNL     1       2.218   8.466  17.755  0.00  0.00    +0.000 A 
ATOM      4  C   UNL     1       2.706   7.521  18.668  0.00  0.00    +0.000 A 
ATOM      5  C   UNL     1       2.205   7.507  19.968  0.00  0.00    +0.000 A 
ATOM      6  C   UNL     1       1.248   8.460  20.347  0.00  0.00    +0.000 A 
ENDROOT
BRANCH   4   7
ATOM      7  N   UNL     1       3.885   6.853  18.343  0.00  0.00    +0.000 NA
ATOM      8  C   UNL     1       3.868   5.717  17.732  0.00  0.00    +0.000 C 
ATOM      9  C   UNL     1       2.768   4.666  17.531  0.00  0.00    +0.000 C 
ATOM     10  O   UNL     1       1.598   4.781  17.824  0.00  0.00    +0.000 OA
ATOM     11  N   UNL     1       3.418   3.531  16.997  0.00  0.00    +0.000 N 
ATOM     12  C   UNL     1       4.686   3.964  16.525  0.00  0.00    +0.000 A 
ATOM     13  C   UNL     1       5.457   3.373  15.539  0.00  0.00    +0.000 A 
ATOM     14  C   UNL     1       6.579   4.078  15.078  0.00  0.00    +0.000 A 
ATOM     15  C   UNL     1       6.935   5.327  15.628  0.00  0.00    +0.000 A 
ATOM     16  C   UNL     1       6.144   5.914  16.614  0.00  0.00    +0.000 A 
ATOM     17  C   UNL     1       5.018   5.218  17.004  0.00  0.00    +0.000 A 
BRANCH  11  18
ATOM     18  C   UNL     1       3.438   2.446  17.957  0.00  0.00    +0.000 C 
BRANCH  18  19
ATOM     19  O   UNL     1       2.190   1.788  18.006  0.00  0.00    +0.000 OA
ATOM     20  H   UNL     1       1.527   2.496  18.026  0.00  0.00    +0.000 HD
ENDBRANCH  18  19
ENDBRANCH  11  18
ENDBRANCH   4   7
BRANCH   1  21
ATOM     21  S   UNL     1      -0.383  10.637  19.924  0.00  0.00    +0.000 S 
ATOM     22  O   UNL     1      -0.544  10.578  21.361  0.00  0.00    +0.000 OA
ATOM     23  O   UNL     1      -1.527  10.515  19.035  0.00  0.00    +0.000 OA
BRANCH  21  28
ATOM     24  C   UNL     1       0.014  15.823  22.825  0.00  0.00    +0.000 C 
ATOM     25  C   UNL     1       0.332  14.662  21.976  0.00  0.00    +0.000 A 
ATOM     26  C   UNL     1      -0.352  13.969  21.008  0.00  0.00    +0.000 A 
ATOM     27  C   UNL     1       0.569  13.007  20.566  0.00  0.00    +0.000 A 
ATOM     28  N   UNL     1       0.369  12.099  19.537  0.00  0.00    +0.000 N 
ATOM     29  N   UNL     1       1.745  13.119  21.179  0.00  0.00    +0.000 NA
ATOM     30  O   UNL     1       1.578  14.134  22.110  0.00  0.00    +0.000 OA
ATOM     31  H   UNL     1       1.209  11.887  19.005  0.00  0.00    +0.000 HD
ENDBRANCH  21  28
ENDBRANCH   1  21
TORSDOF 5
ENDMDL
MODEL 2
REMARK VINA RESULT:      -8.2      2.844      9.393
REMARK  Name = 
REMARK  6 active torsions:
REMARK  status: ('A' for Active; 'I' for Inactive)
REMARK    1  A    between atoms: C_1  and  C_2
REMARK    2  A    between atoms: N_5  and  S_6
REMARK    3  A    between atoms: S_6  and  C_9
REMARK    4  A    between atoms: C_12  and  N_13
REMARK    5  A    between atoms: N_17  and  C_18
REMARK    6  A    between atoms: C_18  and  O_19
REMARK                            x       y       z     vdW  Elec       q    Type
REMARK                         _______ _______ _______ _____ _____    ______ ____
ROOT
ATOM      1  C   UNL     1       2.995   4.898  18.883  0.00  0.00    +0.000 A 
ATOM      2  C   UNL     1       2.104   4.705  19.927  0.00  0.00    +0.000 A 
ATOM      3  C   UNL     1       1.544   5.814  20.548  0.00  0.00    +0.000 A 
ATOM      4  C   UNL     1       1.856   7.116  20.133  0.00  0.00    +0.000 A 
ATOM      5  C   UNL     1       2.732   7.301  19.065  0.00  0.00    +0.000 A 
ATOM      6  C   UNL     1       3.311   6.182  18.449  0.00  0.00    +0.000 A 
ENDROOT
BRANCH   4   7
ATOM      7  N   UNL     1       1.539   8.165  20.994  0.00  0.00    +0.000 NA
ATOM      8  C   UNL     1       0.961   9.237  20.565  0.00  0.00    +0.000 C 
ATOM      9  C   UNL     1       0.803   9.835  19.161  0.00  0.00    +0.000 C 
ATOM     10  O   UNL     1       1.105   9.308  18.113  0.00  0.00    +0.000 OA
ATOM     11  N   UNL     1       0.295  11.140  19.358  0.00  0.00    +0.000 N 
ATOM     12  C   UNL     1      -0.202  11.193  20.688  0.00  0.00    +0.000 A 
ATOM     13  C   UNL     1      -1.179  12.042  21.180  0.00  0.00    +0.000 A 
ATOM     14  C   UNL     1      -1.672  11.789  22.469  0.00  0.00    +0.000 A 
ATOM     15  C   UNL     1      -1.162  10.734  23.253  0.00  0.00    +0.000 A 
ATOM     16  C   UNL     1      -0.186   9.883  22.741  0.00  0.00    +0.000 A 
ATOM     17  C   UNL     1       0.235  10.127  21.450  0.00  0.00    +0.000 A 
BRANCH  11  18
ATOM     18  C   UNL     1       1.287  12.139  19.014  0.00  0.00    +0.000 C 
BRANCH  18  19
ATOM     19  O   UNL     1       1.845  11.882  17.742  0.00  0.00    +0.000 OA
ATOM     20  H   UNL     1       2.144  10.960  17.774  0.00  0.00    +0.000 HD
ENDBRANCH  18  19
ENDBRANCH  11  18
ENDBRANCH   4   7
BRANCH   1  21
ATOM     21  S   UNL     1       3.773   3.485  18.141  0.00  0.00    +0.000 S 
ATOM     22  O   UNL     1       3.115   3.196  16.886  0.00  0.00    +0.000 OA
ATOM     23  O   UNL     1       3.883   2.475  19.181  0.00  0.00    +0.000 OA
BRANCH  21  28
ATOM     24  C   UNL     1       6.762   4.157  13.034  0.00  0.00    +0.000 C 
ATOM     25  C   UNL     1       6.273   4.351  14.410  0.00  0.00    +0.000 A 
ATOM     26  C   UNL     1       6.041   3.510  15.470  0.00  0.00    +0.000 A 
ATOM     27  C   UNL     1       5.634   4.370  16.501  0.00  0.00    +0.000 A 
ATOM     28  N   UNL     1       5.346   4.000  17.807  0.00  0.00    +0.000 N 
ATOM     29  N   UNL     1       5.652   5.648  16.126  0.00  0.00    +0.000 NA
ATOM     30  O   UNL     1       6.006   5.631  14.786  0.00  0.00    +0.000 OA
ATOM     31  H   UNL     1       5.600   4.700  18.499  0.00  0.00    +0.000 HD
ENDBRANCH  21  28
ENDBRANCH   1  21
TORSDOF 5
ENDMDL
MODEL 3
REMARK VINA RESULT:      -8.2      2.781      9.484
REMARK  Name = 
REMARK  6 active torsions:
REMARK  status: ('A' for Active; 'I' for Inactive)
REMARK    1  A    between atoms: C_1  and  C_2
REMARK    2  A    between atoms: N_5  and  S_6
REMARK    3  A    between atoms: S_6  and  C_9
REMARK    4  A    between atoms: C_12  and  N_13
REMARK    5  A    between atoms: N_17  and  C_18
REMARK    6  A    between atoms: C_18  and  O_19
REMARK                            x       y       z     vdW  Elec       q    Type
REMARK                         _______ _______ _______ _____ _____    ______ ____
ROOT
ATOM      1  C   UNL     1       2.750   6.223  19.005  0.00  0.00    +0.000 A 
ATOM      2  C   UNL     1       2.012   6.160  20.178  0.00  0.00    +0.000 A 
ATOM      3  C   UNL     1       1.354   7.299  20.622  0.00  0.00    +0.000 A 
ATOM      4  C   UNL     1       1.416   8.502  19.906  0.00  0.00    +0.000 A 
ATOM      5  C   UNL     1       2.138   8.551  18.715  0.00  0.00    +0.000 A 
ATOM      6  C   UNL     1       2.816   7.406  18.274  0.00  0.00    +0.000 A 
ENDROOT
BRANCH   4   7
ATOM      7  N   UNL     1       1.030   9.669  20.563  0.00  0.00    +0.000 NA
ATOM      8  C   UNL     1      -0.006  10.341  20.189  0.00  0.00    +0.000 C 
ATOM      9  C   UNL     1      -0.817  10.352  18.887  0.00  0.00    +0.000 C 
ATOM     10  O   UNL     1      -0.698   9.587  17.956  0.00  0.00    +0.000 OA
ATOM     11  N   UNL     1      -1.677  11.470  18.983  0.00  0.00    +0.000 N 
ATOM     12  C   UNL     1      -1.701  11.856  20.350  0.00  0.00    +0.000 A 
ATOM     13  C   UNL     1      -2.707  12.548  21.004  0.00  0.00    +0.000 A 
ATOM     14  C   UNL     1      -2.629  12.644  22.402  0.00  0.00    +0.000 A 
ATOM     15  C   UNL     1      -1.542  12.094  23.113  0.00  0.00    +0.000 A 
ATOM     16  C   UNL     1      -0.543  11.393  22.442  0.00  0.00    +0.000 A 
ATOM     17  C   UNL     1      -0.681  11.270  21.075  0.00  0.00    +0.000 A 
BRANCH  11  18
ATOM     18  C   UNL     1      -1.291  12.502  18.042  0.00  0.00    +0.000 C 
BRANCH  18  19
ATOM     19  O   UNL     1      -1.618  12.130  16.720  0.00  0.00    +0.000 OA
ATOM     20  H   UNL     1      -2.493  12.514  16.554  0.00  0.00    +0.000 HD
ENDBRANCH  18  19
ENDBRANCH  11  18
ENDBRANCH   4   7
BRANCH   1  21
ATOM     21  S   UNL     1       3.657   4.792  18.477  0.00  0.00    +0.000 S 
ATOM     22  O   UNL     1       3.015   4.240  17.304  0.00  0.00    +0.000 OA
ATOM     23  O   UNL     1       3.881   3.979  19.662  0.00  0.00    +0.000 OA
BRANCH  21  28
ATOM     24  C   UNL     1       6.823   4.267  13.461  0.00  0.00    +0.000 C 
ATOM     25  C   UNL     1       6.234   4.806  14.699  0.00  0.00    +0.000 A 
ATOM     26  C   UNL     1       6.053   4.311  15.967  0.00  0.00    +0.000 A 
ATOM     27  C   UNL     1       5.477   5.381  16.668  0.00  0.00    +0.000 A 
ATOM     28  N   UNL     1       5.166   5.396  18.020  0.00  0.00    +0.000 N 
ATOM     29  N   UNL     1       5.350   6.468  15.910  0.00  0.00    +0.000 NA
ATOM     30  O   UNL     1       5.780   6.087  14.649  0.00  0.00    +0.000 OA
ATOM     31  H   UNL     1       5.286   6.305  18.460  0.00  0.00    +0.000 HD
ENDBRANCH  21  28
ENDBRANCH   1  21
TORSDOF 5
ENDMDL
MODEL 4
REMARK VINA RESULT:      -8.1      2.091      3.107
REMARK  Name = 
REMARK  6 active torsions:
REMARK  status: ('A' for Active; 'I' for Inactive)
REMARK    1  A    between atoms: C_1  and  C_2
REMARK    2  A    between atoms: N_5  and  S_6
REMARK    3  A    between atoms: S_6  and  C_9
REMARK    4  A    between atoms: C_12  and  N_13
REMARK    5  A    between atoms: N_17  and  C_18
REMARK    6  A    between atoms: C_18  and  O_19
REMARK                            x       y       z     vdW  Elec       q    Type
REMARK                         _______ _______ _______ _____ _____    ______ ____
ROOT
ATOM      1  C   UNL     1       1.072   9.271  19.726  0.00  0.00    +0.000 A 
ATOM      2  C   UNL     1       1.579   9.427  18.445  0.00  0.00    +0.000 A 
ATOM      3  C   UNL     1       2.488   8.494  17.962  0.00  0.00    +0.000 A 
ATOM      4  C   UNL     1       2.892   7.401  18.740  0.00  0.00    +0.000 A 
ATOM      5  C   UNL     1       2.358   7.236  20.016  0.00  0.00    +0.000 A 
ATOM      6  C   UNL     1       1.453   8.186  20.511  0.00  0.00    +0.000 A 
ENDROOT
BRANCH   4   7
ATOM      7  N   UNL     1       4.035   6.709  18.343  0.00  0.00    +0.000 NA
ATOM      8  C   UNL     1       3.957   5.590  17.705  0.00  0.00    +0.000 C 
ATOM      9  C   UNL     1       2.819   4.576  17.530  0.00  0.00    +0.000 C 
ATOM     10  O   UNL     1       1.668   4.715  17.881  0.00  0.00    +0.000 OA
ATOM     11  N   UNL     1       3.411   3.438  16.937  0.00  0.00    +0.000 N 
ATOM     12  C   UNL     1       4.668   3.849  16.417  0.00  0.00    +0.000 A 
ATOM     13  C   UNL     1       5.374   3.262  15.381  0.00  0.00    +0.000 A 
ATOM     14  C   UNL     1       6.493   3.949  14.885  0.00  0.00    +0.000 A 
ATOM     15  C   UNL     1       6.910   5.172  15.449  0.00  0.00    +0.000 A 
ATOM     16  C   UNL     1       6.183   5.754  16.485  0.00  0.00    +0.000 A 
ATOM     17  C   UNL     1       5.057   5.079  16.910  0.00  0.00    +0.000 A 
BRANCH  11  18
ATOM     18  C   UNL     1       3.445   2.327  17.868  0.00  0.00    +0.000 C 
BRANCH  18  19
ATOM     19  O   UNL     1       2.170   1.733  17.995  0.00  0.00    +0.000 OA
ATOM     20  H   UNL     1       2.271   1.055  18.681  0.00  0.00    +0.000 HD
ENDBRANCH  18  19
ENDBRANCH  11  18
ENDBRANCH   4   7
BRANCH   1  21
ATOM     21  S   UNL     1      -0.028  10.504  20.375  0.00  0.00    +0.000 S 
ATOM     22  O   UNL     1       0.666  11.254  21.399  0.00  0.00    +0.000 OA
ATOM     23  O   UNL     1      -1.287   9.833  20.659  0.00  0.00    +0.000 OA
BRANCH  21  28
ATOM     24  C   UNL     1      -3.625  10.055  15.650  0.00  0.00    +0.000 C 
ATOM     25  C   UNL     1      -2.846  10.603  16.773  0.00  0.00    +0.000 A 
ATOM     26  C   UNL     1      -1.562  10.421  17.226  0.00  0.00    +0.000 A 
ATOM     27  C   UNL     1      -1.459  11.301  18.314  0.00  0.00    +0.000 A 
ATOM     28  N   UNL     1      -0.319  11.535  19.069  0.00  0.00    +0.000 N 
ATOM     29  N   UNL     1      -2.574  12.005  18.497  0.00  0.00    +0.000 NA
ATOM     30  O   UNL     1      -3.470  11.525  17.555  0.00  0.00    +0.000 OA
ATOM     31  H   UNL     1      -0.233  12.492  19.401  0.00  0.00    +0.000 HD
ENDBRANCH  21  28
ENDBRANCH   1  21
TORSDOF 5
ENDMDL
MODEL 5
REMARK VINA RESULT:      -8.1      3.541      9.138
REMARK  Name = 
REMARK  6 active torsions:
REMARK  status: ('A' for Active; 'I' for Inactive)
REMARK    1  A    between atoms: C_1  and  C_2
REMARK    2  A    between atoms: N_5  and  S_6
REMARK    3  A    between atoms: S_6  and  C_9
REMARK    4  A    between atoms: C_12  and  N_13
REMARK    5  A    between atoms: N_17  and  C_18
REMARK    6  A    between atoms: C_18  and  O_19
REMARK                            x       y       z     vdW  Elec       q    Type
REMARK                         _______ _______ _______ _____ _____    ______ ____
ROOT
ATOM      1  C   UNL     1       2.323   8.012  18.619  0.00  0.00    +0.000 A 
ATOM      2  C   UNL     1       2.340   9.098  17.757  0.00  0.00    +0.000 A 
ATOM      3  C   UNL     1       1.620  10.237  18.093  0.00  0.00    +0.000 A 
ATOM      4  C   UNL     1       0.887  10.310  19.285  0.00  0.00    +0.000 A 
ATOM      5  C   UNL     1       0.895   9.224  20.158  0.00  0.00    +0.000 A 
ATOM      6  C   UNL     1       1.609   8.067  19.812  0.00  0.00    +0.000 A 
ENDROOT
BRANCH   4   7
ATOM      7  N   UNL     1      -0.067  11.319  19.399  0.00  0.00    +0.000 NA
ATOM      8  C   UNL     1      -1.241  11.199  18.875  0.00  0.00    +0.000 C 
ATOM      9  C   UNL     1      -1.798  10.270  17.789  0.00  0.00    +0.000 C 
ATOM     10  O   UNL     1      -1.228   9.331  17.280  0.00  0.00    +0.000 OA
ATOM     11  N   UNL     1      -3.078  10.780  17.472  0.00  0.00    +0.000 N 
ATOM     12  C   UNL     1      -3.446  11.658  18.526  0.00  0.00    +0.000 A 
ATOM     13  C   UNL     1      -4.729  12.011  18.909  0.00  0.00    +0.000 A 
ATOM     14  C   UNL     1      -4.878  12.726  20.108  0.00  0.00    +0.000 A 
ATOM     15  C   UNL     1      -3.758  13.109  20.875  0.00  0.00    +0.000 A 
ATOM     16  C   UNL     1      -2.474  12.738  20.481  0.00  0.00    +0.000 A 
ATOM     17  C   UNL     1      -2.370  11.989  19.328  0.00  0.00    +0.000 A 
BRANCH  11  18
ATOM     18  C   UNL     1      -3.092  11.352  16.140  0.00  0.00    +0.000 C 
BRANCH  18  19
ATOM     19  O   UNL     1      -2.702  10.397  15.175  0.00  0.00    +0.000 OA
ATOM     20  H   UNL     1      -1.847  10.708  14.838  0.00  0.00    +0.000 HD
ENDBRANCH  18  19
ENDBRANCH  11  18
ENDBRANCH   4   7
BRANCH   1  21
ATOM     21  S   UNL     1       3.177   6.527  18.154  0.00  0.00    +0.000 S 
ATOM     22  O   UNL     1       4.269   6.874  17.271  0.00  0.00    +0.000 OA
ATOM     23  O   UNL     1       2.160   5.569  17.750  0.00  0.00    +0.000 OA
BRANCH  21  28
ATOM     24  C   UNL     1       1.326   2.376  22.002  0.00  0.00    +0.000 C 
ATOM     25  C   UNL     1       2.187   3.241  21.178  0.00  0.00    +0.000 A 
ATOM     26  C   UNL     1       2.212   4.587  20.908  0.00  0.00    +0.000 A 
ATOM     27  C   UNL     1       3.339   4.746  20.088  0.00  0.00    +0.000 A 
ATOM     28  N   UNL     1       3.830   5.949  19.601  0.00  0.00    +0.000 N 
ATOM     29  N   UNL     1       3.988   3.600  19.897  0.00  0.00    +0.000 NA
ATOM     30  O   UNL     1       3.228   2.637  20.544  0.00  0.00    +0.000 OA
ATOM     31  H   UNL     1       4.843   5.979  19.521  0.00  0.00    +0.000 HD
ENDBRANCH  21  28
ENDBRANCH   1  21
TORSDOF 5
ENDMDL
MODEL 6
REMARK VINA RESULT:      -8.0      1.369      1.718
REMARK  Name = 
REMARK  6 active torsions:
REMARK  status: ('A' for Active; 'I' for Inactive)
REMARK    1  A    between atoms: C_1  and  C_2
REMARK    2  A    between atoms: N_5  and  S_6
REMARK    3  A    between atoms: S_6  and  C_9
REMARK    4  A    between atoms: C_12  and  N_13
REMARK    5  A    between atoms: N_17  and  C_18
REMARK    6  A    between atoms: C_18  and  O_19
REMARK                            x       y       z     vdW  Elec       q    Type
REMARK                         _______ _______ _______ _____ _____    ______ ____
ROOT
ATOM      1  C   UNL     1       0.890   9.520  19.330  0.00  0.00    +0.000 A 
ATOM      2  C   UNL     1       1.386   9.522  18.036  0.00  0.00    +0.000 A 
ATOM      3  C   UNL     1       2.318   8.559  17.670  0.00  0.00    +0.000 A 
ATOM      4  C   UNL     1       2.757   7.587  18.579  0.00  0.00    +0.000 A 
ATOM      5  C   UNL     1       2.233   7.576  19.871  0.00  0.00    +0.000 A 
ATOM      6  C   UNL     1       1.304   8.557  20.246  0.00  0.00    +0.000 A 
ENDROOT
BRANCH   4   7
ATOM      7  N   UNL     1       3.916   6.881  18.266  0.00  0.00    +0.000 NA
ATOM      8  C   UNL     1       3.867   5.729  17.687  0.00  0.00    +0.000 C 
ATOM      9  C   UNL     1       2.740   4.701  17.521  0.00  0.00    +0.000 C 
ATOM     10  O   UNL     1       1.575   4.853  17.818  0.00  0.00    +0.000 OA
ATOM     11  N   UNL     1       3.358   3.536  17.014  0.00  0.00    +0.000 N 
ATOM     12  C   UNL     1       4.633   3.924  16.524  0.00  0.00    +0.000 A 
ATOM     13  C   UNL     1       5.382   3.287  15.549  0.00  0.00    +0.000 A 
ATOM     14  C   UNL     1       6.518   3.951  15.062  0.00  0.00    +0.000 A 
ATOM     15  C   UNL     1       6.909   5.205  15.576  0.00  0.00    +0.000 A 
ATOM     16  C   UNL     1       6.140   5.838  16.550  0.00  0.00    +0.000 A 
ATOM     17  C   UNL     1       5.000   5.181  16.965  0.00  0.00    +0.000 A 
BRANCH  11  18
ATOM     18  C   UNL     1       3.358   2.477  18.004  0.00  0.00    +0.000 C 
BRANCH  18  19
ATOM     19  O   UNL     1       2.106   1.824  18.048  0.00  0.00    +0.000 OA
ATOM     20  H   UNL     1       1.806   1.782  17.127  0.00  0.00    +0.000 HD
ENDBRANCH  18  19
ENDBRANCH  11  18
ENDBRANCH   4   7
BRANCH   1  21
ATOM     21  S   UNL     1      -0.240  10.797  19.822  0.00  0.00    +0.000 S 
ATOM     22  O   UNL     1      -1.156  10.256  20.803  0.00  0.00    +0.000 OA
ATOM     23  O   UNL     1      -0.729  11.416  18.601  0.00  0.00    +0.000 OA
BRANCH  21  28
ATOM     24  C   UNL     1       3.326  15.065  17.694  0.00  0.00    +0.000 C 
ATOM     25  C   UNL     1       2.380  14.321  18.543  0.00  0.00    +0.000 A 
ATOM     26  C   UNL     1       2.334  13.037  19.026  0.00  0.00    +0.000 A 
ATOM     27  C   UNL     1       1.178  13.016  19.821  0.00  0.00    +0.000 A 
ATOM     28  N   UNL     1       0.733  11.947  20.586  0.00  0.00    +0.000 N 
ATOM     29  N   UNL     1       0.575  14.202  19.863  0.00  0.00    +0.000 NA
ATOM     30  O   UNL     1       1.307  15.015  19.011  0.00  0.00    +0.000 OA
ATOM     31  H   UNL     1       0.273  12.221  21.450  0.00  0.00    +0.000 HD
ENDBRANCH  21  28
ENDBRANCH   1  21
TORSDOF 5
ENDMDL
MODEL 7
REMARK VINA RESULT:      -8.0      1.321      1.347
REMARK  Name = 
REMARK  6 active torsions:
REMARK  status: ('A' for Active; 'I' for Inactive)
REMARK    1  A    between atoms: C_1  and  C_2
REMARK    2  A    between atoms: N_5  and  S_6
REMARK    3  A    between atoms: S_6  and  C_9
REMARK    4  A    between atoms: C_12  and  N_13
REMARK    5  A    between atoms: N_17  and  C_18
REMARK    6  A    between atoms: C_18  and  O_19
REMARK                            x       y       z     vdW  Elec       q    Type
REMARK                         _______ _______ _______ _____ _____    ______ ____
ROOT
ATOM      1  C   UNL     1       0.543   9.640  19.084  0.00  0.00    +0.000 A 
ATOM      2  C   UNL     1       1.048   9.418  17.812  0.00  0.00    +0.000 A 
ATOM      3  C   UNL     1       2.027   8.449  17.635  0.00  0.00    +0.000 A 
ATOM      4  C   UNL     1       2.505   7.692  18.713  0.00  0.00    +0.000 A 
ATOM      5  C   UNL     1       1.975   7.903  19.984  0.00  0.00    +0.000 A 
ATOM      6  C   UNL     1       0.997   8.892  20.166  0.00  0.00    +0.000 A 
ENDROOT
BRANCH   4   7
ATOM      7  N   UNL     1       3.700   6.996  18.538  0.00  0.00    +0.000 NA
ATOM      8  C   UNL     1       3.732   5.855  17.935  0.00  0.00    +0.000 C 
ATOM      9  C   UNL     1       2.641   4.827  17.607  0.00  0.00    +0.000 C 
ATOM     10  O   UNL     1       1.448   4.969  17.754  0.00  0.00    +0.000 OA
ATOM     11  N   UNL     1       3.326   3.674  17.161  0.00  0.00    +0.000 N 
ATOM     12  C   UNL     1       4.652   4.076  16.846  0.00  0.00    +0.000 A 
ATOM     13  C   UNL     1       5.523   3.461  15.964  0.00  0.00    +0.000 A 
ATOM     14  C   UNL     1       6.709   4.138  15.640  0.00  0.00    +0.000 A 
ATOM     15  C   UNL     1       7.023   5.383  16.223  0.00  0.00    +0.000 A 
ATOM     16  C   UNL     1       6.131   5.994  17.102  0.00  0.00    +0.000 A 
ATOM     17  C   UNL     1       4.951   5.326  17.355  0.00  0.00    +0.000 A 
BRANCH  11  18
ATOM     18  C   UNL     1       3.205   2.596  18.123  0.00  0.00    +0.000 C 
BRANCH  18  19
ATOM     19  O   UNL     1       1.983   1.908  17.961  0.00  0.00    +0.000 OA
ATOM     20  H   UNL     1       1.296   2.592  17.996  0.00  0.00    +0.000 HD
ENDBRANCH  18  19
ENDBRANCH  11  18
ENDBRANCH   4   7
BRANCH   1  21
ATOM     21  S   UNL     1      -0.651  10.931  19.325  0.00  0.00    +0.000 S 
ATOM     22  O   UNL     1      -0.530  11.430  20.678  0.00  0.00    +0.000 OA
ATOM     23  O   UNL     1      -1.919  10.427  18.821  0.00  0.00    +0.000 OA
BRANCH  21  28
ATOM     24  C   UNL     1       2.290  16.038  20.184  0.00  0.00    +0.000 C 
ATOM     25  C   UNL     1       1.793  14.789  19.582  0.00  0.00    +0.000 A 
ATOM     26  C   UNL     1       0.551  14.220  19.447  0.00  0.00    +0.000 A 
ATOM     27  C   UNL     1       0.794  13.047  18.717  0.00  0.00    +0.000 A 
ATOM     28  N   UNL     1      -0.167  12.153  18.265  0.00  0.00    +0.000 N 
ATOM     29  N   UNL     1       2.077  12.917  18.387  0.00  0.00    +0.000 NA
ATOM     30  O   UNL     1       2.718  13.994  18.981  0.00  0.00    +0.000 OA
ATOM     31  H   UNL     1       0.058  11.723  17.372  0.00  0.00    +0.000 HD
ENDBRANCH  21  28
ENDBRANCH   1  21
TORSDOF 5
ENDMDL
MODEL 8
REMARK VINA RESULT:      -8.0      1.460      1.638
REMARK  Name = 
REMARK  6 active torsions:
REMARK  status: ('A' for Active; 'I' for Inactive)
REMARK    1  A    between atoms: C_1  and  C_2
REMARK    2  A    between atoms: N_5  and  S_6
REMARK    3  A    between atoms: S_6  and  C_9
REMARK    4  A    between atoms: C_12  and  N_13
REMARK    5  A    between atoms: N_17  and  C_18
REMARK    6  A    between atoms: C_18  and  O_19
REMARK                            x       y       z     vdW  Elec       q    Type
REMARK                         _______ _______ _______ _____ _____    ______ ____
ROOT
ATOM      1  C   UNL     1       0.694   9.563  19.353  0.00  0.00    +0.000 A 
ATOM      2  C   UNL     1       1.191   9.524  18.060  0.00  0.00    +0.000 A 
ATOM      3  C   UNL     1       2.146   8.569  17.733  0.00  0.00    +0.000 A 
ATOM      4  C   UNL     1       2.608   7.647  18.682  0.00  0.00    +0.000 A 
ATOM      5  C   UNL     1       2.084   7.676  19.973  0.00  0.00    +0.000 A 
ATOM      6  C   UNL     1       1.131   8.649  20.308  0.00  0.00    +0.000 A 
ENDROOT
BRANCH   4   7
ATOM      7  N   UNL     1       3.784   6.956  18.398  0.00  0.00    +0.000 NA
ATOM      8  C   UNL     1       3.766   5.810  17.806  0.00  0.00    +0.000 C 
ATOM      9  C   UNL     1       2.656   4.772  17.596  0.00  0.00    +0.000 C 
ATOM     10  O   UNL     1       1.482   4.907  17.858  0.00  0.00    +0.000 OA
ATOM     11  N   UNL     1       3.303   3.618  17.097  0.00  0.00    +0.000 N 
ATOM     12  C   UNL     1       4.589   4.026  16.649  0.00  0.00    +0.000 A 
ATOM     13  C   UNL     1       5.374   3.407  15.692  0.00  0.00    +0.000 A 
ATOM     14  C   UNL     1       6.517   4.089  15.247  0.00  0.00    +0.000 A 
ATOM     15  C   UNL     1       6.877   5.342  15.785  0.00  0.00    +0.000 A 
ATOM     16  C   UNL     1       6.071   5.956  16.741  0.00  0.00    +0.000 A 
ATOM     17  C   UNL     1       4.927   5.283  17.114  0.00  0.00    +0.000 A 
BRANCH  11  18
ATOM     18  C   UNL     1       3.285   2.550  18.076  0.00  0.00    +0.000 C 
BRANCH  18  19
ATOM     19  O   UNL     1       2.070   1.832  18.019  0.00  0.00    +0.000 OA
ATOM     20  H   UNL     1       2.268   0.963  18.404  0.00  0.00    +0.000 HD
ENDBRANCH  18  19
ENDBRANCH  11  18
ENDBRANCH   4   7
BRANCH   1  21
ATOM     21  S   UNL     1      -0.468  10.830  19.793  0.00  0.00    +0.000 S 
ATOM     22  O   UNL     1      -1.769  10.471  19.275  0.00  0.00    +0.000 OA
ATOM     23  O   UNL     1       0.151  12.101  19.451  0.00  0.00    +0.000 OA
BRANCH  21  28
ATOM     24  C   UNL     1      -1.438  15.025  23.908  0.00  0.00    +0.000 C 
ATOM     25  C   UNL     1      -1.422  13.737  23.194  0.00  0.00    +0.000 A 
ATOM     26  C   UNL     1      -0.457  13.026  22.524  0.00  0.00    +0.000 A 
ATOM     27  C   UNL     1      -1.113  11.849  22.134  0.00  0.00    +0.000 A 
ATOM     28  N   UNL     1      -0.535  10.771  21.480  0.00  0.00    +0.000 N 
ATOM     29  N   UNL     1      -2.373  11.810  22.564  0.00  0.00    +0.000 NA
ATOM     30  O   UNL     1      -2.584  13.029  23.189  0.00  0.00    +0.000 OA
ATOM     31  H   UNL     1      -0.924   9.870  21.746  0.00  0.00    +0.000 HD
ENDBRANCH  21  28
ENDBRANCH   1  21
TORSDOF 5
ENDMDL
MODEL 9
REMARK VINA RESULT:      -7.9      2.935      8.789
REMARK  Name = 
REMARK  6 active torsions:
REMARK  status: ('A' for Active; 'I' for Inactive)
REMARK    1  A    between atoms: C_1  and  C_2
REMARK    2  A    between atoms: N_5  and  S_6
REMARK    3  A    between atoms: S_6  and  C_9
REMARK    4  A    between atoms: C_12  and  N_13
REMARK    5  A    between atoms: N_17  and  C_18
REMARK    6  A    between atoms: C_18  and  O_19
REMARK                            x       y       z     vdW  Elec       q    Type
REMARK                         _______ _______ _______ _____ _____    ______ ____
ROOT
ATOM      1  C   UNL     1       2.980   4.882  18.228  0.00  0.00    +0.000 A 
ATOM      2  C   UNL     1       2.179   4.628  19.331  0.00  0.00    +0.000 A 
ATOM      3  C   UNL     1       1.678   5.698  20.061  0.00  0.00    +0.000 A 
ATOM      4  C   UNL     1       1.960   7.023  19.699  0.00  0.00    +0.000 A 
ATOM      5  C   UNL     1       2.744   7.270  18.573  0.00  0.00    +0.000 A 
ATOM      6  C   UNL     1       3.264   6.190  17.846  0.00  0.00    +0.000 A 
ENDROOT
BRANCH   4   7
ATOM      7  N   UNL     1       1.721   8.019  20.643  0.00  0.00    +0.000 NA
ATOM      8  C   UNL     1       1.046   9.078  20.348  0.00  0.00    +0.000 C 
ATOM      9  C   UNL     1       0.670   9.726  19.009  0.00  0.00    +0.000 C 
ATOM     10  O   UNL     1       0.846   9.258  17.906  0.00  0.00    +0.000 OA
ATOM     11  N   UNL     1       0.140  10.995  19.335  0.00  0.00    +0.000 N 
ATOM     12  C   UNL     1      -0.170  10.970  20.722  0.00  0.00    +0.000 A 
ATOM     13  C   UNL     1      -1.104  11.750  21.382  0.00  0.00    +0.000 A 
ATOM     14  C   UNL     1      -1.403  11.421  22.713  0.00  0.00    +0.000 A 
ATOM     15  C   UNL     1      -0.746  10.360  23.370  0.00  0.00    +0.000 A 
ATOM     16  C   UNL     1       0.184   9.578  22.689  0.00  0.00    +0.000 A 
ATOM     17  C   UNL     1       0.413   9.895  21.366  0.00  0.00    +0.000 A 
BRANCH  11  18
ATOM     18  C   UNL     1       1.032  12.054  18.907  0.00  0.00    +0.000 C 
BRANCH  18  19
ATOM     19  O   UNL     1       2.037  11.555  18.049  0.00  0.00    +0.000 OA
ATOM     20  H   UNL     1       2.866  11.940  18.373  0.00  0.00    +0.000 HD
ENDBRANCH  18  19
ENDBRANCH  11  18
ENDBRANCH   4   7
BRANCH   1  21
ATOM     21  S   UNL     1       3.686   3.516  17.342  0.00  0.00    +0.000 S 
ATOM     22  O   UNL     1       3.954   3.932  15.982  0.00  0.00    +0.000 OA
ATOM     23  O   UNL     1       2.850   2.359  17.622  0.00  0.00    +0.000 OA
BRANCH  21  28
ATOM     24  C   UNL     1       8.309   7.074  18.543  0.00  0.00    +0.000 C 
ATOM     25  C   UNL     1       7.292   6.012  18.641  0.00  0.00    +0.000 A 
ATOM     26  C   UNL     1       6.792   5.083  17.763  0.00  0.00    +0.000 A 
ATOM     27  C   UNL     1       5.883   4.344  18.535  0.00  0.00    +0.000 A 
ATOM     28  N   UNL     1       5.163   3.236  18.110  0.00  0.00    +0.000 N 
ATOM     29  N   UNL     1       5.850   4.753  19.802  0.00  0.00    +0.000 NA
ATOM     30  O   UNL     1       6.704   5.844  19.856  0.00  0.00    +0.000 OA
ATOM     31  H   UNL     1       5.012   2.540  18.836  0.00  0.00    +0.000 HD
ENDBRANCH  21  28
ENDBRANCH   1  21
TORSDOF 5
ENDMDL
