MODEL 1
REMARK VINA RESULT:      -8.4      0.000      0.000
REMARK  Name = 
REMARK  5 active torsions:
REMARK  status: ('A' for Active; 'I' for Inactive)
REMARK    1  A    between atoms: C_1  and  N_2
REMARK    2  A    between atoms: C_5  and  O_6
REMARK    3  A    between atoms: O_6  and  C_7
REMARK    4  A    between atoms: C_10  and  C_11
REMARK    5  A    between atoms: N_13  and  C_14
REMARK                            x       y       z     vdW  Elec       q    Type
REMARK                         _______ _______ _______ _____ _____    ______ ____
ROOT
ATOM      1  C   UNL     1       2.878   2.384  16.914  0.00  0.00    +0.000 C 
ATOM      2  N   UNL     1       3.260   3.517  17.739  0.00  0.00    +0.000 N 
ATOM      3  C   UNL     1       4.405   4.262  17.441  0.00  0.00    +0.000 C 
ATOM      4  O   UNL     1       5.027   4.224  16.392  0.00  0.00    +0.000 OA
ATOM      5  C   UNL     1       4.761   5.110  18.650  0.00  0.00    +0.000 C 
ATOM      6  C   UNL     1       3.476   5.058  19.481  0.00  0.00    +0.000 C 
ATOM      7  C   UNL     1       2.820   3.695  19.134  0.00  0.00    +0.000 C 
ATOM      8  C   UNL     1       1.281   3.649  19.272  0.00  0.00    +0.000 C 
ATOM      9  C   UNL     1       0.831   3.753  20.728  0.00  0.00    +0.000 C 
ATOM     10  N   UNL     1       1.398   2.675  21.536  0.00  0.00    +0.000 NA
ATOM     11  C   UNL     1       2.856   2.669  21.488  0.00  0.00    +0.000 C 
ATOM     12  C   UNL     1       3.378   2.564  20.050  0.00  0.00    +0.000 C 
ATOM     13  H   UNL     1       1.038   1.777  21.211  0.00  0.00    +0.000 HD
ENDROOT
BRANCH   6  14
ATOM     14  C   UNL     1       2.639   6.313  19.260  0.00  0.00    +0.000 C 
ATOM     15  O   UNL     1       2.392   6.642  18.102  0.00  0.00    +0.000 OA
ATOM     16  N   UNL     1       2.234   7.004  20.390  0.00  0.00    +0.000 N 
ATOM     17  H   UNL     1       2.530   6.657  21.296  0.00  0.00    +0.000 HD
BRANCH  16  18
ATOM     18  C   UNL     1       1.578   8.261  20.416  0.00  0.00    +0.000 A 
ATOM     19  C   UNL     1       1.465   9.106  19.304  0.00  0.00    +0.000 A 
ATOM     20  C   UNL     1       0.874  10.368  19.420  0.00  0.00    +0.000 A 
ATOM     21  C   UNL     1       0.380  10.802  20.645  0.00  0.00    +0.000 A 
ATOM     22  C   UNL     1       0.454   9.962  21.752  0.00  0.00    +0.000 A 
ATOM     23  C   UNL     1       1.046   8.696  21.637  0.00  0.00    +0.000 A 
ENDBRANCH  16  18
ENDBRANCH   6  14
BRANCH   5  24
ATOM     24  O   UNL     1       5.801   4.406  19.351  0.00  0.00    +0.000 OA
BRANCH  24  25
ATOM     25  C   UNL     1       7.041   4.915  19.271  0.00  0.00    +0.000 C 
ATOM     26  N   UNL     1       7.635   4.482  18.136  0.00  0.00    +0.000 N 
ATOM     27  O   UNL     1       7.583   5.643  20.084  0.00  0.00    +0.000 OA
ATOM     28  H   UNL     1       7.112   3.948  17.461  0.00  0.00    +0.000 HD
ATOM     29  H   UNL     1       8.558   4.821  17.912  0.00  0.00    +0.000 HD
ENDBRANCH  24  25
ENDBRANCH   5  24
TORSDOF 4
ENDMDL
MODEL 2
REMARK VINA RESULT:      -8.2      0.368      1.020
REMARK  Name = 
REMARK  5 active torsions:
REMARK  status: ('A' for Active; 'I' for Inactive)
REMARK    1  A    between atoms: C_1  and  N_2
REMARK    2  A    between atoms: C_5  and  O_6
REMARK    3  A    between atoms: O_6  and  C_7
REMARK    4  A    between atoms: C_10  and  C_11
REMARK    5  A    between atoms: N_13  and  C_14
REMARK                            x       y       z     vdW  Elec       q    Type
REMARK                         _______ _______ _______ _____ _____    ______ ____
ROOT
ATOM      1  C   UNL     1       2.911   2.305  17.009  0.00  0.00    +0.000 C 
ATOM      2  N   UNL     1       3.263   3.478  17.791  0.00  0.00    +0.000 N 
ATOM      3  C   UNL     1       4.346   4.282  17.422  0.00  0.00    +0.000 C 
ATOM      4  O   UNL     1       4.918   4.255  16.344  0.00  0.00    +0.000 OA
ATOM      5  C   UNL     1       4.707   5.177  18.594  0.00  0.00    +0.000 C 
ATOM      6  C   UNL     1       3.469   5.069  19.488  0.00  0.00    +0.000 C 
ATOM      7  C   UNL     1       2.880   3.662  19.201  0.00  0.00    +0.000 C 
ATOM      8  C   UNL     1       1.355   3.529  19.416  0.00  0.00    +0.000 C 
ATOM      9  C   UNL     1       0.969   3.641  20.889  0.00  0.00    +0.000 C 
ATOM     10  N   UNL     1       1.637   2.617  21.691  0.00  0.00    +0.000 NA
ATOM     11  C   UNL     1       3.090   2.696  21.572  0.00  0.00    +0.000 C 
ATOM     12  C   UNL     1       3.547   2.588  20.113  0.00  0.00    +0.000 C 
ATOM     13  H   UNL     1       1.317   1.692  21.403  0.00  0.00    +0.000 HD
ENDROOT
BRANCH   6  14
ATOM     14  C   UNL     1       2.549   6.267  19.281  0.00  0.00    +0.000 C 
ATOM     15  O   UNL     1       2.214   6.544  18.131  0.00  0.00    +0.000 OA
ATOM     16  N   UNL     1       2.172   6.971  20.413  0.00  0.00    +0.000 N 
ATOM     17  H   UNL     1       2.542   6.672  21.309  0.00  0.00    +0.000 HD
BRANCH  16  18
ATOM     18  C   UNL     1       1.448   8.190  20.443  0.00  0.00    +0.000 A 
ATOM     19  C   UNL     1       0.627   8.585  21.507  0.00  0.00    +0.000 A 
ATOM     20  C   UNL     1      -0.122   9.764  21.437  0.00  0.00    +0.000 A 
ATOM     21  C   UNL     1      -0.056  10.570  20.306  0.00  0.00    +0.000 A 
ATOM     22  C   UNL     1       0.781  10.210  19.253  0.00  0.00    +0.000 A 
ATOM     23  C   UNL     1       1.532   9.029  19.324  0.00  0.00    +0.000 A 
ENDBRANCH  16  18
ENDBRANCH   6  14
BRANCH   5  24
ATOM     24  O   UNL     1       5.819   4.553  19.257  0.00  0.00    +0.000 OA
BRANCH  24  25
ATOM     25  C   UNL     1       6.967   5.249  19.311  0.00  0.00    +0.000 C 
ATOM     26  N   UNL     1       7.278   5.703  18.076  0.00  0.00    +0.000 N 
ATOM     27  O   UNL     1       7.652   5.448  20.299  0.00  0.00    +0.000 OA
ATOM     28  H   UNL     1       6.633   5.579  17.312  0.00  0.00    +0.000 HD
ATOM     29  H   UNL     1       8.092   6.289  17.966  0.00  0.00    +0.000 HD
ENDBRANCH  24  25
ENDBRANCH   5  24
TORSDOF 4
ENDMDL
MODEL 3
REMARK VINA RESULT:      -8.0      1.419      1.689
REMARK  Name = 
REMARK  5 active torsions:
REMARK  status: ('A' for Active; 'I' for Inactive)
REMARK    1  A    between atoms: C_1  and  N_2
REMARK    2  A    between atoms: C_5  and  O_6
REMARK    3  A    between atoms: O_6  and  C_7
REMARK    4  A    between atoms: C_10  and  C_11
REMARK    5  A    between atoms: N_13  and  C_14
REMARK                            x       y       z     vdW  Elec       q    Type
REMARK                         _______ _______ _______ _____ _____    ______ ____
ROOT
ATOM      1  C   UNL     1       4.808   4.000  15.449  0.00  0.00    +0.000 C 
ATOM      2  N   UNL     1       4.761   4.795  16.663  0.00  0.00    +0.000 N 
ATOM      3  C   UNL     1       5.773   5.716  16.952  0.00  0.00    +0.000 C 
ATOM      4  O   UNL     1       6.611   6.124  16.164  0.00  0.00    +0.000 OA
ATOM      5  C   UNL     1       5.669   6.107  18.415  0.00  0.00    +0.000 C 
ATOM      6  C   UNL     1       4.267   5.623  18.790  0.00  0.00    +0.000 C 
ATOM      7  C   UNL     1       3.989   4.413  17.858  0.00  0.00    +0.000 C 
ATOM      8  C   UNL     1       2.500   4.155  17.536  0.00  0.00    +0.000 C 
ATOM      9  C   UNL     1       1.720   3.682  18.761  0.00  0.00    +0.000 C 
ATOM     10  N   UNL     1       2.291   2.453  19.310  0.00  0.00    +0.000 NA
ATOM     11  C   UNL     1       3.694   2.621  19.675  0.00  0.00    +0.000 C 
ATOM     12  C   UNL     1       4.538   3.096  18.486  0.00  0.00    +0.000 C 
ATOM     13  H   UNL     1       2.199   1.698  18.630  0.00  0.00    +0.000 HD
ENDROOT
BRANCH   6  14
ATOM     14  C   UNL     1       3.270   6.776  18.753  0.00  0.00    +0.000 C 
ATOM     15  O   UNL     1       3.216   7.456  17.730  0.00  0.00    +0.000 OA
ATOM     16  N   UNL     1       2.509   6.985  19.891  0.00  0.00    +0.000 N 
ATOM     17  H   UNL     1       2.667   6.381  20.691  0.00  0.00    +0.000 HD
BRANCH  16  18
ATOM     18  C   UNL     1       1.633   8.074  20.129  0.00  0.00    +0.000 A 
ATOM     19  C   UNL     1       1.348   9.068  19.183  0.00  0.00    +0.000 A 
ATOM     20  C   UNL     1       0.536  10.158  19.510  0.00  0.00    +0.000 A 
ATOM     21  C   UNL     1      -0.010  10.269  20.784  0.00  0.00    +0.000 A 
ATOM     22  C   UNL     1       0.236   9.273  21.726  0.00  0.00    +0.000 A 
ATOM     23  C   UNL     1       1.048   8.180  21.398  0.00  0.00    +0.000 A 
ENDBRANCH  16  18
ENDBRANCH   6  14
BRANCH   5  24
ATOM     24  O   UNL     1       6.642   5.315  19.119  0.00  0.00    +0.000 OA
BRANCH  24  25
ATOM     25  C   UNL     1       7.821   5.898  19.392  0.00  0.00    +0.000 C 
ATOM     26  N   UNL     1       8.431   5.233  20.398  0.00  0.00    +0.000 N 
ATOM     27  O   UNL     1       8.289   6.883  18.848  0.00  0.00    +0.000 OA
ATOM     28  H   UNL     1       8.036   4.377  20.755  0.00  0.00    +0.000 HD
ATOM     29  H   UNL     1       9.354   5.525  20.683  0.00  0.00    +0.000 HD
ENDBRANCH  24  25
ENDBRANCH   5  24
TORSDOF 4
ENDMDL
MODEL 4
REMARK VINA RESULT:      -7.8      1.768      2.262
REMARK  Name = 
REMARK  5 active torsions:
REMARK  status: ('A' for Active; 'I' for Inactive)
REMARK    1  A    between atoms: C_1  and  N_2
REMARK    2  A    between atoms: C_5  and  O_6
REMARK    3  A    between atoms: O_6  and  C_7
REMARK    4  A    between atoms: C_10  and  C_11
REMARK    5  A    between atoms: N_13  and  C_14
REMARK                            x       y       z     vdW  Elec       q    Type
REMARK                         _______ _______ _______ _____ _____    ______ ____
ROOT
ATOM      1  C   UNL     1       4.590   4.887  15.448  0.00  0.00    +0.000 C 
ATOM      2  N   UNL     1       4.518   5.093  16.884  0.00  0.00    +0.000 N 
ATOM      3  C   UNL     1       5.479   5.867  17.542  0.00  0.00    +0.000 C 
ATOM      4  O   UNL     1       6.277   6.619  17.006  0.00  0.00    +0.000 OA
ATOM      5  C   UNL     1       5.379   5.599  19.033  0.00  0.00    +0.000 C 
ATOM      6  C   UNL     1       4.014   4.916  19.157  0.00  0.00    +0.000 C 
ATOM      7  C   UNL     1       3.792   4.197  17.800  0.00  0.00    +0.000 C 
ATOM      8  C   UNL     1       2.315   4.008  17.387  0.00  0.00    +0.000 C 
ATOM      9  C   UNL     1       1.587   3.016  18.292  0.00  0.00    +0.000 C 
ATOM     10  N   UNL     1       2.239   1.708  18.277  0.00  0.00    +0.000 NA
ATOM     11  C   UNL     1       3.636   1.793  18.691  0.00  0.00    +0.000 C 
ATOM     12  C   UNL     1       4.429   2.774  17.820  0.00  0.00    +0.000 C 
ATOM     13  H   UNL     1       2.180   1.305  17.341  0.00  0.00    +0.000 HD
ENDROOT
BRANCH   6  14
ATOM     14  C   UNL     1       2.951   5.915  19.601  0.00  0.00    +0.000 C 
ATOM     15  O   UNL     1       2.146   5.555  20.458  0.00  0.00    +0.000 OA
ATOM     16  N   UNL     1       2.960   7.156  18.985  0.00  0.00    +0.000 N 
ATOM     17  H   UNL     1       3.651   7.328  18.263  0.00  0.00    +0.000 HD
BRANCH  16  18
ATOM     18  C   UNL     1       1.986   8.176  19.136  0.00  0.00    +0.000 A 
ATOM     19  C   UNL     1       1.399   8.520  20.360  0.00  0.00    +0.000 A 
ATOM     20  C   UNL     1       0.387   9.483  20.425  0.00  0.00    +0.000 A 
ATOM     21  C   UNL     1      -0.048  10.123  19.269  0.00  0.00    +0.000 A 
ATOM     22  C   UNL     1       0.549   9.817  18.049  0.00  0.00    +0.000 A 
ATOM     23  C   UNL     1       1.563   8.852  17.984  0.00  0.00    +0.000 A 
ENDBRANCH  16  18
ENDBRANCH   6  14
BRANCH   5  24
ATOM     24  O   UNL     1       6.409   4.645  19.346  0.00  0.00    +0.000 OA
BRANCH  24  25
ATOM     25  C   UNL     1       7.647   4.917  18.902  0.00  0.00    +0.000 C 
ATOM     26  N   UNL     1       8.133   5.998  19.552  0.00  0.00    +0.000 N 
ATOM     27  O   UNL     1       8.259   4.314  18.038  0.00  0.00    +0.000 OA
ATOM     28  H   UNL     1       7.616   6.408  20.314  0.00  0.00    +0.000 HD
ATOM     29  H   UNL     1       9.078   6.295  19.360  0.00  0.00    +0.000 HD
ENDBRANCH  24  25
ENDBRANCH   5  24
TORSDOF 4
ENDMDL
MODEL 5
REMARK VINA RESULT:      -7.7      1.630      2.236
REMARK  Name = 
REMARK  5 active torsions:
REMARK  status: ('A' for Active; 'I' for Inactive)
REMARK    1  A    between atoms: C_1  and  N_2
REMARK    2  A    between atoms: C_5  and  O_6
REMARK    3  A    between atoms: O_6  and  C_7
REMARK    4  A    between atoms: C_10  and  C_11
REMARK    5  A    between atoms: N_13  and  C_14
REMARK                            x       y       z     vdW  Elec       q    Type
REMARK                         _______ _______ _______ _____ _____    ______ ____
ROOT
ATOM      1  C   UNL     1       5.339   3.887  15.162  0.00  0.00    +0.000 C 
ATOM      2  N   UNL     1       5.212   4.669  16.380  0.00  0.00    +0.000 N 
ATOM      3  C   UNL     1       6.258   5.490  16.812  0.00  0.00    +0.000 C 
ATOM      4  O   UNL     1       7.220   5.829  16.142  0.00  0.00    +0.000 OA
ATOM      5  C   UNL     1       6.009   5.871  18.261  0.00  0.00    +0.000 C 
ATOM      6  C   UNL     1       4.534   5.511  18.450  0.00  0.00    +0.000 C 
ATOM      7  C   UNL     1       4.268   4.343  17.463  0.00  0.00    +0.000 C 
ATOM      8  C   UNL     1       2.812   4.226  16.955  0.00  0.00    +0.000 C 
ATOM      9  C   UNL     1       1.848   3.810  18.064  0.00  0.00    +0.000 C 
ATOM     10  N   UNL     1       2.235   2.528  18.650  0.00  0.00    +0.000 NA
ATOM     11  C   UNL     1       3.592   2.564  19.187  0.00  0.00    +0.000 C 
ATOM     12  C   UNL     1       4.615   2.974  18.122  0.00  0.00    +0.000 C 
ATOM     13  H   UNL     1       2.162   1.793  17.946  0.00  0.00    +0.000 HD
ENDROOT
BRANCH   6  14
ATOM     14  C   UNL     1       3.655   6.751  18.319  0.00  0.00    +0.000 C 
ATOM     15  O   UNL     1       3.899   7.533  17.402  0.00  0.00    +0.000 OA
ATOM     16  N   UNL     1       2.654   6.914  19.261  0.00  0.00    +0.000 N 
ATOM     17  H   UNL     1       2.571   6.220  19.997  0.00  0.00    +0.000 HD
BRANCH  16  18
ATOM     18  C   UNL     1       1.822   8.051  19.416  0.00  0.00    +0.000 A 
ATOM     19  C   UNL     1       1.347   8.510  20.651  0.00  0.00    +0.000 A 
ATOM     20  C   UNL     1       0.465   9.592  20.725  0.00  0.00    +0.000 A 
ATOM     21  C   UNL     1       0.049  10.238  19.565  0.00  0.00    +0.000 A 
ATOM     22  C   UNL     1       0.538   9.817  18.331  0.00  0.00    +0.000 A 
ATOM     23  C   UNL     1       1.423   8.732  18.258  0.00  0.00    +0.000 A 
ENDBRANCH  16  18
ENDBRANCH   6  14
BRANCH   5  24
ATOM     24  O   UNL     1       6.813   4.985  19.059  0.00  0.00    +0.000 OA
BRANCH  24  25
ATOM     25  C   UNL     1       7.800   5.541  19.781  0.00  0.00    +0.000 C 
ATOM     26  N   UNL     1       8.357   6.554  19.079  0.00  0.00    +0.000 N 
ATOM     27  O   UNL     1       8.172   5.200  20.890  0.00  0.00    +0.000 OA
ATOM     28  H   UNL     1       7.956   6.845  18.202  0.00  0.00    +0.000 HD
ATOM     29  H   UNL     1       9.083   7.103  19.514  0.00  0.00    +0.000 HD
ENDBRANCH  24  25
ENDBRANCH   5  24
TORSDOF 4
ENDMDL
MODEL 6
REMARK VINA RESULT:      -7.3      1.082      1.524
REMARK  Name = 
REMARK  5 active torsions:
REMARK  status: ('A' for Active; 'I' for Inactive)
REMARK    1  A    between atoms: C_1  and  N_2
REMARK    2  A    between atoms: C_5  and  O_6
REMARK    3  A    between atoms: O_6  and  C_7
REMARK    4  A    between atoms: C_10  and  C_11
REMARK    5  A    between atoms: N_13  and  C_14
REMARK                            x       y       z     vdW  Elec       q    Type
REMARK                         _______ _______ _______ _____ _____    ______ ____
ROOT
ATOM      1  C   UNL     1       2.679   3.148  16.777  0.00  0.00    +0.000 C 
ATOM      2  N   UNL     1       3.092   4.067  17.823  0.00  0.00    +0.000 N 
ATOM      3  C   UNL     1       4.120   4.988  17.598  0.00  0.00    +0.000 C 
ATOM      4  O   UNL     1       4.578   5.291  16.508  0.00  0.00    +0.000 OA
ATOM      5  C   UNL     1       4.586   5.532  18.937  0.00  0.00    +0.000 C 
ATOM      6  C   UNL     1       3.448   5.123  19.876  0.00  0.00    +0.000 C 
ATOM      7  C   UNL     1       2.853   3.829  19.257  0.00  0.00    +0.000 C 
ATOM      8  C   UNL     1       1.361   3.576  19.568  0.00  0.00    +0.000 C 
ATOM      9  C   UNL     1       1.127   3.251  21.042  0.00  0.00    +0.000 C 
ATOM     10  N   UNL     1       1.889   2.073  21.453  0.00  0.00    +0.000 NA
ATOM     11  C   UNL     1       3.320   2.245  21.224  0.00  0.00    +0.000 C 
ATOM     12  C   UNL     1       3.627   2.572  19.758  0.00  0.00    +0.000 C 
ATOM     13  H   UNL     1       1.554   1.253  20.945  0.00  0.00    +0.000 HD
ENDROOT
BRANCH   6  14
ATOM     14  C   UNL     1       2.494   6.290  20.107  0.00  0.00    +0.000 C 
ATOM     15  O   UNL     1       1.700   6.206  21.042  0.00  0.00    +0.000 OA
ATOM     16  N   UNL     1       2.583   7.356  19.228  0.00  0.00    +0.000 N 
ATOM     17  H   UNL     1       3.254   7.298  18.470  0.00  0.00    +0.000 HD
BRANCH  16  18
ATOM     18  C   UNL     1       1.708   8.471  19.167  0.00  0.00    +0.000 A 
ATOM     19  C   UNL     1       1.112   9.057  20.291  0.00  0.00    +0.000 A 
ATOM     20  C   UNL     1       0.196  10.105  20.153  0.00  0.00    +0.000 A 
ATOM     21  C   UNL     1      -0.132  10.588  18.891  0.00  0.00    +0.000 A 
ATOM     22  C   UNL     1       0.477  10.039  17.765  0.00  0.00    +0.000 A 
ATOM     23  C   UNL     1       1.396   8.990  17.904  0.00  0.00    +0.000 A 
ENDBRANCH  16  18
ENDBRANCH   6  14
BRANCH   5  24
ATOM     24  O   UNL     1       5.770   4.794  19.287  0.00  0.00    +0.000 OA
BRANCH  24  25
ATOM     25  C   UNL     1       6.917   5.487  19.370  0.00  0.00    +0.000 C 
ATOM     26  N   UNL     1       7.081   6.227  18.250  0.00  0.00    +0.000 N 
ATOM     27  O   UNL     1       7.717   5.464  20.289  0.00  0.00    +0.000 OA
ATOM     28  H   UNL     1       6.348   6.272  17.559  0.00  0.00    +0.000 HD
ATOM     29  H   UNL     1       7.877   6.843  18.188  0.00  0.00    +0.000 HD
ENDBRANCH  24  25
ENDBRANCH   5  24
TORSDOF 4
ENDMDL
MODEL 7
REMARK VINA RESULT:      -6.8      2.553      4.441
REMARK  Name = 
REMARK  5 active torsions:
REMARK  status: ('A' for Active; 'I' for Inactive)
REMARK    1  A    between atoms: C_1  and  N_2
REMARK    2  A    between atoms: C_5  and  O_6
REMARK    3  A    between atoms: O_6  and  C_7
REMARK    4  A    between atoms: C_10  and  C_11
REMARK    5  A    between atoms: N_13  and  C_14
REMARK                            x       y       z     vdW  Elec       q    Type
REMARK                         _______ _______ _______ _____ _____    ______ ____
ROOT
ATOM      1  C   UNL     1       5.373   3.844  19.877  0.00  0.00    +0.000 C 
ATOM      2  N   UNL     1       4.210   4.495  19.299  0.00  0.00    +0.000 N 
ATOM      3  C   UNL     1       2.918   4.092  19.652  0.00  0.00    +0.000 C 
ATOM      4  O   UNL     1       2.628   3.386  20.604  0.00  0.00    +0.000 OA
ATOM      5  C   UNL     1       1.939   4.660  18.639  0.00  0.00    +0.000 C 
ATOM      6  C   UNL     1       2.772   5.736  17.939  0.00  0.00    +0.000 C 
ATOM      7  C   UNL     1       4.240   5.238  18.027  0.00  0.00    +0.000 C 
ATOM      8  C   UNL     1       5.315   6.349  18.023  0.00  0.00    +0.000 C 
ATOM      9  C   UNL     1       5.398   7.065  16.677  0.00  0.00    +0.000 C 
ATOM     10  N   UNL     1       5.702   6.128  15.597  0.00  0.00    +0.000 NA
ATOM     11  C   UNL     1       4.710   5.061  15.508  0.00  0.00    +0.000 C 
ATOM     12  C   UNL     1       4.576   4.297  16.831  0.00  0.00    +0.000 C 
ATOM     13  H   UNL     1       6.629   5.726  15.741  0.00  0.00    +0.000 HD
ENDROOT
BRANCH   6  14
ATOM     14  C   UNL     1       2.466   7.114  18.515  0.00  0.00    +0.000 C 
ATOM     15  O   UNL     1       2.520   7.252  19.736  0.00  0.00    +0.000 OA
ATOM     16  N   UNL     1       2.130   8.110  17.614  0.00  0.00    +0.000 N 
ATOM     17  H   UNL     1       2.082   7.870  16.629  0.00  0.00    +0.000 HD
BRANCH  16  18
ATOM     18  C   UNL     1       1.672   9.414  17.934  0.00  0.00    +0.000 A 
ATOM     19  C   UNL     1       2.496  10.546  17.962  0.00  0.00    +0.000 A 
ATOM     20  C   UNL     1       1.996  11.789  18.363  0.00  0.00    +0.000 A 
ATOM     21  C   UNL     1       0.662  11.921  18.733  0.00  0.00    +0.000 A 
ATOM     22  C   UNL     1      -0.180  10.813  18.678  0.00  0.00    +0.000 A 
ATOM     23  C   UNL     1       0.322   9.568  18.276  0.00  0.00    +0.000 A 
ENDBRANCH  16  18
ENDBRANCH   6  14
BRANCH   5  24
ATOM     24  O   UNL     1       1.659   3.603  17.705  0.00  0.00    +0.000 OA
BRANCH  24  25
ATOM     25  C   UNL     1       1.293   2.417  18.218  0.00  0.00    +0.000 C 
ATOM     26  N   UNL     1       2.297   1.526  18.057  0.00  0.00    +0.000 N 
ATOM     27  O   UNL     1       0.226   2.147  18.740  0.00  0.00    +0.000 OA
ATOM     28  H   UNL     1       3.188   1.825  17.693  0.00  0.00    +0.000 HD
ATOM     29  H   UNL     1       2.189   0.599  18.439  0.00  0.00    +0.000 HD
ENDBRANCH  24  25
ENDBRANCH   5  24
TORSDOF 4
ENDMDL
MODEL 8
REMARK VINA RESULT:      -6.7      3.455      7.185
REMARK  Name = 
REMARK  5 active torsions:
REMARK  status: ('A' for Active; 'I' for Inactive)
REMARK    1  A    between atoms: C_1  and  N_2
REMARK    2  A    between atoms: C_5  and  O_6
REMARK    3  A    between atoms: O_6  and  C_7
REMARK    4  A    between atoms: C_10  and  C_11
REMARK    5  A    between atoms: N_13  and  C_14
REMARK                            x       y       z     vdW  Elec       q    Type
REMARK                         _______ _______ _______ _____ _____    ______ ____
ROOT
ATOM      1  C   UNL     1       3.076   7.156  18.880  0.00  0.00    +0.000 C 
ATOM      2  N   UNL     1       3.707   6.062  18.162  0.00  0.00    +0.000 N 
ATOM      3  C   UNL     1       2.979   4.918  17.823  0.00  0.00    +0.000 C 
ATOM      4  O   UNL     1       1.764   4.814  17.849  0.00  0.00    +0.000 OA
ATOM      5  C   UNL     1       3.954   3.819  17.438  0.00  0.00    +0.000 C 
ATOM      6  C   UNL     1       5.256   4.594  17.213  0.00  0.00    +0.000 C 
ATOM      7  C   UNL     1       5.162   5.830  18.148  0.00  0.00    +0.000 C 
ATOM      8  C   UNL     1       5.950   7.074  17.678  0.00  0.00    +0.000 C 
ATOM      9  C   UNL     1       7.460   6.856  17.740  0.00  0.00    +0.000 C 
ATOM     10  N   UNL     1       7.892   6.524  19.096  0.00  0.00    +0.000 NA
ATOM     11  C   UNL     1       7.218   5.334  19.605  0.00  0.00    +0.000 C 
ATOM     12  C   UNL     1       5.693   5.486  19.572  0.00  0.00    +0.000 C 
ATOM     13  H   UNL     1       7.713   7.314  19.717  0.00  0.00    +0.000 HD
ENDROOT
BRANCH   6  14
ATOM     14  C   UNL     1       5.477   4.856  15.728  0.00  0.00    +0.000 C 
ATOM     15  O   UNL     1       4.863   5.787  15.211  0.00  0.00    +0.000 OA
ATOM     16  N   UNL     1       6.346   4.006  15.063  0.00  0.00    +0.000 N 
ATOM     17  H   UNL     1       6.768   3.247  15.587  0.00  0.00    +0.000 HD
BRANCH  16  18
ATOM     18  C   UNL     1       6.587   3.975  13.666  0.00  0.00    +0.000 A 
ATOM     19  C   UNL     1       7.474   4.836  13.008  0.00  0.00    +0.000 A 
ATOM     20  C   UNL     1       7.606   4.804  11.616  0.00  0.00    +0.000 A 
ATOM     21  C   UNL     1       6.860   3.906  10.862  0.00  0.00    +0.000 A 
ATOM     22  C   UNL     1       5.998   3.019  11.503  0.00  0.00    +0.000 A 
ATOM     23  C   UNL     1       5.867   3.051  12.898  0.00  0.00    +0.000 A 
ENDBRANCH  16  18
ENDBRANCH   6  14
BRANCH   5  24
ATOM     24  O   UNL     1       4.102   2.981  18.597  0.00  0.00    +0.000 OA
BRANCH  24  25
ATOM     25  C   UNL     1       3.374   1.853  18.631  0.00  0.00    +0.000 C 
ATOM     26  N   UNL     1       4.135   0.811  18.227  0.00  0.00    +0.000 N 
ATOM     27  O   UNL     1       2.203   1.752  18.955  0.00  0.00    +0.000 OA
ATOM     28  H   UNL     1       5.118   0.939  18.050  0.00  0.00    +0.000 HD
ATOM     29  H   UNL     1       3.737  -0.116  18.248  0.00  0.00    +0.000 HD
ENDBRANCH  24  25
ENDBRANCH   5  24
TORSDOF 4
ENDMDL
MODEL 9
REMARK VINA RESULT:      -6.6      9.562     11.374
REMARK  Name = 
REMARK  5 active torsions:
REMARK  status: ('A' for Active; 'I' for Inactive)
REMARK    1  A    between atoms: C_1  and  N_2
REMARK    2  A    between atoms: C_5  and  O_6
REMARK    3  A    between atoms: O_6  and  C_7
REMARK    4  A    between atoms: C_10  and  C_11
REMARK    5  A    between atoms: N_13  and  C_14
REMARK                            x       y       z     vdW  Elec       q    Type
REMARK                         _______ _______ _______ _____ _____    ______ ____
ROOT
ATOM      1  C   UNL     1       7.694  12.545  17.039  0.00  0.00    +0.000 C 
ATOM      2  N   UNL     1       8.345  13.452  17.968  0.00  0.00    +0.000 N 
ATOM      3  C   UNL     1       7.881  14.761  18.130  0.00  0.00    +0.000 C 
ATOM      4  O   UNL     1       6.805  15.188  17.745  0.00  0.00    +0.000 OA
ATOM      5  C   UNL     1       8.949  15.569  18.846  0.00  0.00    +0.000 C 
ATOM      6  C   UNL     1       9.865  14.481  19.412  0.00  0.00    +0.000 C 
ATOM      7  C   UNL     1       9.733  13.285  18.431  0.00  0.00    +0.000 C 
ATOM      8  C   UNL     1       9.980  11.892  19.053  0.00  0.00    +0.000 C 
ATOM      9  C   UNL     1      11.438  11.692  19.460  0.00  0.00    +0.000 C 
ATOM     10  N   UNL     1      12.333  11.850  18.315  0.00  0.00    +0.000 NA
ATOM     11  C   UNL     1      12.188  13.159  17.688  0.00  0.00    +0.000 C 
ATOM     12  C   UNL     1      10.743  13.425  17.252  0.00  0.00    +0.000 C 
ATOM     13  H   UNL     1      12.147  11.116  17.630  0.00  0.00    +0.000 HD
ENDROOT
BRANCH   6  14
ATOM     14  C   UNL     1       9.547  14.220  20.880  0.00  0.00    +0.000 C 
ATOM     15  O   UNL     1      10.419  14.470  21.711  0.00  0.00    +0.000 OA
ATOM     16  N   UNL     1       8.298  13.697  21.168  0.00  0.00    +0.000 N 
ATOM     17  H   UNL     1       7.673  13.495  20.395  0.00  0.00    +0.000 HD
BRANCH  16  18
ATOM     18  C   UNL     1       7.846  13.246  22.434  0.00  0.00    +0.000 A 
ATOM     19  C   UNL     1       8.255  12.043  23.026  0.00  0.00    +0.000 A 
ATOM     20  C   UNL     1       7.710  11.621  24.243  0.00  0.00    +0.000 A 
ATOM     21  C   UNL     1       6.754  12.396  24.891  0.00  0.00    +0.000 A 
ATOM     22  C   UNL     1       6.362  13.611  24.333  0.00  0.00    +0.000 A 
ATOM     23  C   UNL     1       6.909  14.034  23.114  0.00  0.00    +0.000 A 
ENDBRANCH  16  18
ENDBRANCH   6  14
BRANCH   5  24
ATOM     24  O   UNL     1       9.660  16.297  17.829  0.00  0.00    +0.000 OA
BRANCH  24  25
ATOM     25  C   UNL     1       9.465  17.625  17.781  0.00  0.00    +0.000 C 
ATOM     26  N   UNL     1      10.472  18.204  17.088  0.00  0.00    +0.000 N 
ATOM     27  O   UNL     1       8.545  18.244  18.285  0.00  0.00    +0.000 OA
ATOM     28  H   UNL     1      11.162  17.636  16.624  0.00  0.00    +0.000 HD
ATOM     29  H   UNL     1      10.437  19.199  16.924  0.00  0.00    +0.000 HD
ENDBRANCH  24  25
ENDBRANCH   5  24
TORSDOF 4
ENDMDL
