MODEL 1
REMARK VINA RESULT:      -9.0      0.000      0.000
REMARK  Name = 
REMARK  3 active torsions:
REMARK  status: ('A' for Active; 'I' for Inactive)
REMARK    1  A    between atoms: C_2  and  C_3
REMARK    2  A    between atoms: C_4  and  C_5
REMARK    3  A    between atoms: N_11  and  N_12
REMARK                            x       y       z     vdW  Elec       q    Type
REMARK                         _______ _______ _______ _____ _____    ______ ____
ROOT
ATOM      1  O   UNL     1       7.643   6.445  18.586  0.00  0.00    +0.000 OA
ATOM      2  C   UNL     1       7.404   7.308  17.745  0.00  0.00    +0.000 C 
ATOM      3  N   UNL     1       6.477   7.170  16.744  0.00  0.00    +0.000 N 
ATOM      4  H   UNL     1       6.106   7.993  16.268  0.00  0.00    +0.000 HD
ENDROOT
BRANCH   3   5
ATOM      5  N   UNL     1       5.549   6.118  16.871  0.00  0.00    +0.000 N 
ATOM      6  C   UNL     1       5.863   4.862  16.398  0.00  0.00    +0.000 A 
ATOM      7  N   UNL     1       5.034   3.864  16.382  0.00  0.00    +0.000 NA
ATOM      8  C   UNL     1       3.819   4.043  17.069  0.00  0.00    +0.000 A 
ATOM      9  C   UNL     1       3.028   2.925  17.337  0.00  0.00    +0.000 A 
ATOM     10  C   UNL     1       1.998   3.003  18.278  0.00  0.00    +0.000 A 
ATOM     11  C   UNL     1       1.731   4.207  18.931  0.00  0.00    +0.000 A 
ATOM     12  C   UNL     1       2.426   5.362  18.576  0.00  0.00    +0.000 A 
ATOM     13  C   UNL     1       3.452   5.269  17.634  0.00  0.00    +0.000 A 
ATOM     14  C   UNL     1       4.275   6.442  17.297  0.00  0.00    +0.000 A 
ATOM     15  O   UNL     1       3.839   7.585  17.370  0.00  0.00    +0.000 OA
ENDBRANCH   3   5
BRANCH   2  16
ATOM     16  C   UNL     1       8.113   8.618  17.736  0.00  0.00    +0.000 C 
ATOM     17  C   UNL     1       8.631   9.083  18.884  0.00  0.00    +0.000 C 
BRANCH  17  18
ATOM     18  C   UNL     1       9.369  10.344  19.035  0.00  0.00    +0.000 A 
ATOM     19  C   UNL     1       9.760  10.849  20.278  0.00  0.00    +0.000 A 
ATOM     20  C   UNL     1      10.508  12.021  20.374  0.00  0.00    +0.000 A 
ATOM     21  C   UNL     1      10.882  12.706  19.219  0.00  0.00    +0.000 A 
ATOM     22  C   UNL     1      10.515  12.212  17.970  0.00  0.00    +0.000 A 
ATOM     23  C   UNL     1       9.764  11.033  17.880  0.00  0.00    +0.000 A 
ENDBRANCH  17  18
ENDBRANCH   2  16
TORSDOF 3
ENDMDL
MODEL 2
REMARK VINA RESULT:      -8.9      0.098      1.028
REMARK  Name = 
REMARK  3 active torsions:
REMARK  status: ('A' for Active; 'I' for Inactive)
REMARK    1  A    between atoms: C_2  and  C_3
REMARK    2  A    between atoms: C_4  and  C_5
REMARK    3  A    between atoms: N_11  and  N_12
REMARK                            x       y       z     vdW  Elec       q    Type
REMARK                         _______ _______ _______ _____ _____    ______ ____
ROOT
ATOM      1  O   UNL     1       7.633   6.477  18.586  0.00  0.00    +0.000 OA
ATOM      2  C   UNL     1       7.392   7.337  17.741  0.00  0.00    +0.000 C 
ATOM      3  N   UNL     1       6.467   7.190  16.739  0.00  0.00    +0.000 N 
ATOM      4  H   UNL     1       6.093   8.010  16.259  0.00  0.00    +0.000 HD
ENDROOT
BRANCH   3   5
ATOM      5  N   UNL     1       5.543   6.135  16.869  0.00  0.00    +0.000 N 
ATOM      6  C   UNL     1       5.851   4.886  16.374  0.00  0.00    +0.000 A 
ATOM      7  N   UNL     1       5.024   3.886  16.360  0.00  0.00    +0.000 NA
ATOM      8  C   UNL     1       3.821   4.054  17.070  0.00  0.00    +0.000 A 
ATOM      9  C   UNL     1       3.037   2.930  17.337  0.00  0.00    +0.000 A 
ATOM     10  C   UNL     1       2.023   2.995  18.296  0.00  0.00    +0.000 A 
ATOM     11  C   UNL     1       1.765   4.190  18.969  0.00  0.00    +0.000 A 
ATOM     12  C   UNL     1       2.451   5.351  18.616  0.00  0.00    +0.000 A 
ATOM     13  C   UNL     1       3.462   5.272  17.656  0.00  0.00    +0.000 A 
ATOM     14  C   UNL     1       4.276   6.451  17.320  0.00  0.00    +0.000 A 
ATOM     15  O   UNL     1       3.839   7.592  17.415  0.00  0.00    +0.000 OA
ENDBRANCH   3   5
BRANCH   2  16
ATOM     16  C   UNL     1       8.095   8.649  17.728  0.00  0.00    +0.000 C 
ATOM     17  C   UNL     1       8.684   9.080  18.855  0.00  0.00    +0.000 C 
BRANCH  17  18
ATOM     18  C   UNL     1       9.427  10.340  18.998  0.00  0.00    +0.000 A 
ATOM     19  C   UNL     1       9.896  11.071  17.904  0.00  0.00    +0.000 A 
ATOM     20  C   UNL     1      10.548  12.291  18.080  0.00  0.00    +0.000 A 
ATOM     21  C   UNL     1      10.737  12.800  19.364  0.00  0.00    +0.000 A 
ATOM     22  C   UNL     1      10.266  12.093  20.467  0.00  0.00    +0.000 A 
ATOM     23  C   UNL     1       9.610  10.870  20.283  0.00  0.00    +0.000 A 
ENDBRANCH  17  18
ENDBRANCH   2  16
TORSDOF 3
ENDMDL
MODEL 3
REMARK VINA RESULT:      -8.4      1.367      1.460
REMARK  Name = 
REMARK  3 active torsions:
REMARK  status: ('A' for Active; 'I' for Inactive)
REMARK    1  A    between atoms: C_2  and  C_3
REMARK    2  A    between atoms: C_4  and  C_5
REMARK    3  A    between atoms: N_11  and  N_12
REMARK                            x       y       z     vdW  Elec       q    Type
REMARK                         _______ _______ _______ _____ _____    ______ ____
ROOT
ATOM      1  O   UNL     1       7.846   6.506  16.758  0.00  0.00    +0.000 OA
ATOM      2  C   UNL     1       7.344   7.425  17.403  0.00  0.00    +0.000 C 
ATOM      3  N   UNL     1       6.140   7.339  18.052  0.00  0.00    +0.000 N 
ATOM      4  H   UNL     1       5.909   7.995  18.799  0.00  0.00    +0.000 HD
ENDROOT
BRANCH   3   5
ATOM      5  N   UNL     1       5.603   6.050  18.240  0.00  0.00    +0.000 N 
ATOM      6  C   UNL     1       6.132   5.218  19.205  0.00  0.00    +0.000 A 
ATOM      7  N   UNL     1       5.768   3.985  19.378  0.00  0.00    +0.000 NA
ATOM      8  C   UNL     1       4.636   3.555  18.662  0.00  0.00    +0.000 A 
ATOM      9  C   UNL     1       4.028   2.352  19.026  0.00  0.00    +0.000 A 
ATOM     10  C   UNL     1       2.743   2.050  18.571  0.00  0.00    +0.000 A 
ATOM     11  C   UNL     1       2.070   2.932  17.724  0.00  0.00    +0.000 A 
ATOM     12  C   UNL     1       2.717   4.072  17.248  0.00  0.00    +0.000 A 
ATOM     13  C   UNL     1       4.002   4.361  17.711  0.00  0.00    +0.000 A 
ATOM     14  C   UNL     1       4.687   5.600  17.309  0.00  0.00    +0.000 A 
ATOM     15  O   UNL     1       4.466   6.146  16.234  0.00  0.00    +0.000 OA
ENDBRANCH   3   5
BRANCH   2  16
ATOM     16  C   UNL     1       8.015   8.746  17.546  0.00  0.00    +0.000 C 
ATOM     17  C   UNL     1       8.609   9.050  18.711  0.00  0.00    +0.000 C 
BRANCH  17  18
ATOM     18  C   UNL     1       9.323  10.301  19.001  0.00  0.00    +0.000 A 
ATOM     19  C   UNL     1       9.549  10.760  20.301  0.00  0.00    +0.000 A 
ATOM     20  C   UNL     1      10.281  11.923  20.535  0.00  0.00    +0.000 A 
ATOM     21  C   UNL     1      10.802  12.646  19.463  0.00  0.00    +0.000 A 
ATOM     22  C   UNL     1      10.600  12.198  18.160  0.00  0.00    +0.000 A 
ATOM     23  C   UNL     1       9.866  11.028  17.932  0.00  0.00    +0.000 A 
ENDBRANCH  17  18
ENDBRANCH   2  16
TORSDOF 3
ENDMDL
MODEL 4
REMARK VINA RESULT:      -8.1      1.439      1.903
REMARK  Name = 
REMARK  3 active torsions:
REMARK  status: ('A' for Active; 'I' for Inactive)
REMARK    1  A    between atoms: C_2  and  C_3
REMARK    2  A    between atoms: C_4  and  C_5
REMARK    3  A    between atoms: N_11  and  N_12
REMARK                            x       y       z     vdW  Elec       q    Type
REMARK                         _______ _______ _______ _____ _____    ______ ____
ROOT
ATOM      1  O   UNL     1       8.196   6.252  17.645  0.00  0.00    +0.000 OA
ATOM      2  C   UNL     1       7.439   7.216  17.739  0.00  0.00    +0.000 C 
ATOM      3  N   UNL     1       6.076   7.116  17.832  0.00  0.00    +0.000 N 
ATOM      4  H   UNL     1       5.526   7.894  18.200  0.00  0.00    +0.000 HD
ENDROOT
BRANCH   3   5
ATOM      5  N   UNL     1       5.545   5.848  18.139  0.00  0.00    +0.000 N 
ATOM      6  C   UNL     1       5.932   5.201  19.293  0.00  0.00    +0.000 A 
ATOM      7  N   UNL     1       5.573   3.994  19.604  0.00  0.00    +0.000 NA
ATOM      8  C   UNL     1       4.579   3.405  18.800  0.00  0.00    +0.000 A 
ATOM      9  C   UNL     1       3.948   2.246  19.254  0.00  0.00    +0.000 A 
ATOM     10  C   UNL     1       2.758   1.817  18.661  0.00  0.00    +0.000 A 
ATOM     11  C   UNL     1       2.209   2.525  17.592  0.00  0.00    +0.000 A 
ATOM     12  C   UNL     1       2.898   3.607  17.045  0.00  0.00    +0.000 A 
ATOM     13  C   UNL     1       4.086   4.024  17.647  0.00  0.00    +0.000 A 
ATOM     14  C   UNL     1       4.798   5.217  17.162  0.00  0.00    +0.000 A 
ATOM     15  O   UNL     1       4.740   5.581  15.993  0.00  0.00    +0.000 OA
ENDBRANCH   3   5
BRANCH   2  16
ATOM     16  C   UNL     1       7.947   8.616  17.765  0.00  0.00    +0.000 C 
ATOM     17  C   UNL     1       8.724   9.005  18.788  0.00  0.00    +0.000 C 
BRANCH  17  18
ATOM     18  C   UNL     1       9.314  10.342  18.948  0.00  0.00    +0.000 A 
ATOM     19  C   UNL     1       9.644  11.159  17.864  0.00  0.00    +0.000 A 
ATOM     20  C   UNL     1      10.148  12.443  18.059  0.00  0.00    +0.000 A 
ATOM     21  C   UNL     1      10.327  12.932  19.352  0.00  0.00    +0.000 A 
ATOM     22  C   UNL     1       9.991  12.139  20.446  0.00  0.00    +0.000 A 
ATOM     23  C   UNL     1       9.483  10.851  20.243  0.00  0.00    +0.000 A 
ENDBRANCH  17  18
ENDBRANCH   2  16
TORSDOF 3
ENDMDL
MODEL 5
REMARK VINA RESULT:      -8.1      1.546      1.870
REMARK  Name = 
REMARK  3 active torsions:
REMARK  status: ('A' for Active; 'I' for Inactive)
REMARK    1  A    between atoms: C_2  and  C_3
REMARK    2  A    between atoms: C_4  and  C_5
REMARK    3  A    between atoms: N_11  and  N_12
REMARK                            x       y       z     vdW  Elec       q    Type
REMARK                         _______ _______ _______ _____ _____    ______ ____
ROOT
ATOM      1  O   UNL     1       8.269   6.836  18.724  0.00  0.00    +0.000 OA
ATOM      2  C   UNL     1       7.629   7.518  17.926  0.00  0.00    +0.000 C 
ATOM      3  N   UNL     1       6.517   7.077  17.258  0.00  0.00    +0.000 N 
ATOM      4  H   UNL     1       5.862   7.746  16.850  0.00  0.00    +0.000 HD
ENDROOT
BRANCH   3   5
ATOM      5  N   UNL     1       5.906   5.901  17.735  0.00  0.00    +0.000 N 
ATOM      6  C   UNL     1       6.227   5.418  18.986  0.00  0.00    +0.000 A 
ATOM      7  N   UNL     1       5.791   4.293  19.463  0.00  0.00    +0.000 NA
ATOM      8  C   UNL     1       4.785   3.643  18.726  0.00  0.00    +0.000 A 
ATOM      9  C   UNL     1       4.077   2.602  19.328  0.00  0.00    +0.000 A 
ATOM     10  C   UNL     1       2.879   2.152  18.768  0.00  0.00    +0.000 A 
ATOM     11  C   UNL     1       2.398   2.716  17.586  0.00  0.00    +0.000 A 
ATOM     12  C   UNL     1       3.162   3.663  16.905  0.00  0.00    +0.000 A 
ATOM     13  C   UNL     1       4.357   4.104  17.476  0.00  0.00    +0.000 A 
ATOM     14  C   UNL     1       5.149   5.169  16.841  0.00  0.00    +0.000 A 
ATOM     15  O   UNL     1       5.140   5.352  15.629  0.00  0.00    +0.000 OA
ENDBRANCH   3   5
BRANCH   2  16
ATOM     16  C   UNL     1       8.011   8.921  17.606  0.00  0.00    +0.000 C 
ATOM     17  C   UNL     1       8.837   9.575  18.439  0.00  0.00    +0.000 C 
BRANCH  17  18
ATOM     18  C   UNL     1       9.318  10.951  18.254  0.00  0.00    +0.000 A 
ATOM     19  C   UNL     1      10.657  11.315  18.416  0.00  0.00    +0.000 A 
ATOM     20  C   UNL     1      11.081  12.620  18.176  0.00  0.00    +0.000 A 
ATOM     21  C   UNL     1      10.165  13.586  17.764  0.00  0.00    +0.000 A 
ATOM     22  C   UNL     1       8.828  13.241  17.583  0.00  0.00    +0.000 A 
ATOM     23  C   UNL     1       8.408  11.928  17.824  0.00  0.00    +0.000 A 
ENDBRANCH  17  18
ENDBRANCH   2  16
TORSDOF 3
ENDMDL
MODEL 6
REMARK VINA RESULT:      -8.0      0.882      1.098
REMARK  Name = 
REMARK  3 active torsions:
REMARK  status: ('A' for Active; 'I' for Inactive)
REMARK    1  A    between atoms: C_2  and  C_3
REMARK    2  A    between atoms: C_4  and  C_5
REMARK    3  A    between atoms: N_11  and  N_12
REMARK                            x       y       z     vdW  Elec       q    Type
REMARK                         _______ _______ _______ _____ _____    ______ ____
ROOT
ATOM      1  O   UNL     1       7.849   6.138  19.082  0.00  0.00    +0.000 OA
ATOM      2  C   UNL     1       7.767   7.084  18.302  0.00  0.00    +0.000 C 
ATOM      3  N   UNL     1       6.953   7.103  17.200  0.00  0.00    +0.000 N 
ATOM      4  H   UNL     1       6.696   7.990  16.764  0.00  0.00    +0.000 HD
ENDROOT
BRANCH   3   5
ATOM      5  N   UNL     1       5.944   6.121  17.131  0.00  0.00    +0.000 N 
ATOM      6  C   UNL     1       6.237   4.869  16.635  0.00  0.00    +0.000 A 
ATOM      7  N   UNL     1       5.351   3.940  16.443  0.00  0.00    +0.000 NA
ATOM      8  C   UNL     1       4.064   4.180  16.958  0.00  0.00    +0.000 A 
ATOM      9  C   UNL     1       3.167   3.114  17.044  0.00  0.00    +0.000 A 
ATOM     10  C   UNL     1       2.017   3.227  17.830  0.00  0.00    +0.000 A 
ATOM     11  C   UNL     1       1.741   4.415  18.508  0.00  0.00    +0.000 A 
ATOM     12  C   UNL     1       2.560   5.529  18.323  0.00  0.00    +0.000 A 
ATOM     13  C   UNL     1       3.705   5.402  17.535  0.00  0.00    +0.000 A 
ATOM     14  C   UNL     1       4.648   6.522  17.388  0.00  0.00    +0.000 A 
ATOM     15  O   UNL     1       4.286   7.691  17.464  0.00  0.00    +0.000 OA
ENDBRANCH   3   5
BRANCH   2  16
ATOM     16  C   UNL     1       8.562   8.329  18.488  0.00  0.00    +0.000 C 
ATOM     17  C   UNL     1       8.182   9.444  17.844  0.00  0.00    +0.000 C 
BRANCH  17  18
ATOM     18  C   UNL     1       8.850  10.750  17.936  0.00  0.00    +0.000 A 
ATOM     19  C   UNL     1      10.212  10.886  18.216  0.00  0.00    +0.000 A 
ATOM     20  C   UNL     1      10.819  12.141  18.239  0.00  0.00    +0.000 A 
ATOM     21  C   UNL     1      10.066  13.284  17.977  0.00  0.00    +0.000 A 
ATOM     22  C   UNL     1       8.710  13.169  17.683  0.00  0.00    +0.000 A 
ATOM     23  C   UNL     1       8.106  11.906  17.660  0.00  0.00    +0.000 A 
ENDBRANCH  17  18
ENDBRANCH   2  16
TORSDOF 3
ENDMDL
MODEL 7
REMARK VINA RESULT:      -8.0      0.956      1.390
REMARK  Name = 
REMARK  3 active torsions:
REMARK  status: ('A' for Active; 'I' for Inactive)
REMARK    1  A    between atoms: C_2  and  C_3
REMARK    2  A    between atoms: C_4  and  C_5
REMARK    3  A    between atoms: N_11  and  N_12
REMARK                            x       y       z     vdW  Elec       q    Type
REMARK                         _______ _______ _______ _____ _____    ______ ____
ROOT
ATOM      1  O   UNL     1       7.732   5.291  17.785  0.00  0.00    +0.000 OA
ATOM      2  C   UNL     1       7.312   6.446  17.801  0.00  0.00    +0.000 C 
ATOM      3  N   UNL     1       6.020   6.798  17.508  0.00  0.00    +0.000 N 
ATOM      4  H   UNL     1       5.648   7.697  17.815  0.00  0.00    +0.000 HD
ENDROOT
BRANCH   3   5
ATOM      5  N   UNL     1       5.064   5.764  17.485  0.00  0.00    +0.000 N 
ATOM      6  C   UNL     1       5.335   4.591  16.813  0.00  0.00    +0.000 A 
ATOM      7  N   UNL     1       4.477   3.630  16.656  0.00  0.00    +0.000 NA
ATOM      8  C   UNL     1       3.278   3.729  17.385  0.00  0.00    +0.000 A 
ATOM      9  C   UNL     1       2.460   2.603  17.488  0.00  0.00    +0.000 A 
ATOM     10  C   UNL     1       1.446   2.559  18.448  0.00  0.00    +0.000 A 
ATOM     11  C   UNL     1       1.223   3.650  19.289  0.00  0.00    +0.000 A 
ATOM     12  C   UNL     1       1.946   4.829  19.107  0.00  0.00    +0.000 A 
ATOM     13  C   UNL     1       2.955   4.860  18.143  0.00  0.00    +0.000 A 
ATOM     14  C   UNL     1       3.806   6.049  17.980  0.00  0.00    +0.000 A 
ATOM     15  O   UNL     1       3.404   7.178  18.240  0.00  0.00    +0.000 OA
ENDBRANCH   3   5
BRANCH   2  16
ATOM     16  C   UNL     1       8.188   7.598  18.153  0.00  0.00    +0.000 C 
ATOM     17  C   UNL     1       7.769   8.842  17.870  0.00  0.00    +0.000 C 
BRANCH  17  18
ATOM     18  C   UNL     1       8.507  10.077  18.168  0.00  0.00    +0.000 A 
ATOM     19  C   UNL     1       8.286  11.275  17.484  0.00  0.00    +0.000 A 
ATOM     20  C   UNL     1       8.968  12.439  17.836  0.00  0.00    +0.000 A 
ATOM     21  C   UNL     1       9.883  12.420  18.886  0.00  0.00    +0.000 A 
ATOM     22  C   UNL     1      10.108  11.239  19.589  0.00  0.00    +0.000 A 
ATOM     23  C   UNL     1       9.419  10.074  19.233  0.00  0.00    +0.000 A 
ENDBRANCH  17  18
ENDBRANCH   2  16
TORSDOF 3
ENDMDL
MODEL 8
REMARK VINA RESULT:      -7.9      1.084      1.150
REMARK  Name = 
REMARK  3 active torsions:
REMARK  status: ('A' for Active; 'I' for Inactive)
REMARK    1  A    between atoms: C_2  and  C_3
REMARK    2  A    between atoms: C_4  and  C_5
REMARK    3  A    between atoms: N_11  and  N_12
REMARK                            x       y       z     vdW  Elec       q    Type
REMARK                         _______ _______ _______ _____ _____    ______ ____
ROOT
ATOM      1  O   UNL     1       8.301   7.014  18.914  0.00  0.00    +0.000 OA
ATOM      2  C   UNL     1       7.855   7.740  18.028  0.00  0.00    +0.000 C 
ATOM      3  N   UNL     1       6.834   7.384  17.185  0.00  0.00    +0.000 N 
ATOM      4  H   UNL     1       6.308   8.100  16.681  0.00  0.00    +0.000 HD
ENDROOT
BRANCH   3   5
ATOM      5  N   UNL     1       6.063   6.262  17.549  0.00  0.00    +0.000 N 
ATOM      6  C   UNL     1       6.685   5.072  17.859  0.00  0.00    +0.000 A 
ATOM      7  N   UNL     1       6.053   3.966  18.106  0.00  0.00    +0.000 NA
ATOM      8  C   UNL     1       4.656   4.057  18.252  0.00  0.00    +0.000 A 
ATOM      9  C   UNL     1       3.967   2.976  18.804  0.00  0.00    +0.000 A 
ATOM     10  C   UNL     1       2.657   3.138  19.259  0.00  0.00    +0.000 A 
ATOM     11  C   UNL     1       2.016   4.372  19.137  0.00  0.00    +0.000 A 
ATOM     12  C   UNL     1       2.646   5.421  18.468  0.00  0.00    +0.000 A 
ATOM     13  C   UNL     1       3.956   5.245  18.018  0.00  0.00    +0.000 A 
ATOM     14  C   UNL     1       4.694   6.353  17.391  0.00  0.00    +0.000 A 
ATOM     15  O   UNL     1       4.126   7.245  16.772  0.00  0.00    +0.000 OA
ENDBRANCH   3   5
BRANCH   2  16
ATOM     16  C   UNL     1       8.393   9.106  17.784  0.00  0.00    +0.000 C 
ATOM     17  C   UNL     1       9.014   9.748  18.786  0.00  0.00    +0.000 C 
BRANCH  17  18
ATOM     18  C   UNL     1       9.610  11.088  18.698  0.00  0.00    +0.000 A 
ATOM     19  C   UNL     1      10.795  11.435  19.353  0.00  0.00    +0.000 A 
ATOM     20  C   UNL     1      11.357  12.700  19.198  0.00  0.00    +0.000 A 
ATOM     21  C   UNL     1      10.739  13.642  18.378  0.00  0.00    +0.000 A 
ATOM     22  C   UNL     1       9.566  13.312  17.705  0.00  0.00    +0.000 A 
ATOM     23  C   UNL     1       9.006  12.038  17.863  0.00  0.00    +0.000 A 
ENDBRANCH  17  18
ENDBRANCH   2  16
TORSDOF 3
ENDMDL
MODEL 9
REMARK VINA RESULT:      -7.8      1.507      1.837
REMARK  Name = 
REMARK  3 active torsions:
REMARK  status: ('A' for Active; 'I' for Inactive)
REMARK    1  A    between atoms: C_2  and  C_3
REMARK    2  A    between atoms: C_4  and  C_5
REMARK    3  A    between atoms: N_11  and  N_12
REMARK                            x       y       z     vdW  Elec       q    Type
REMARK                         _______ _______ _______ _____ _____    ______ ____
ROOT
ATOM      1  O   UNL     1       7.639   5.546  17.207  0.00  0.00    +0.000 OA
ATOM      2  C   UNL     1       7.309   6.509  17.896  0.00  0.00    +0.000 C 
ATOM      3  N   UNL     1       6.083   6.639  18.495  0.00  0.00    +0.000 N 
ATOM      4  H   UNL     1       5.957   7.283  19.278  0.00  0.00    +0.000 HD
ENDROOT
BRANCH   3   5
ATOM      5  N   UNL     1       5.282   5.483  18.575  0.00  0.00    +0.000 N 
ATOM      6  C   UNL     1       5.713   4.396  19.305  0.00  0.00    +0.000 A 
ATOM      7  N   UNL     1       5.090   3.259  19.351  0.00  0.00    +0.000 NA
ATOM      8  C   UNL     1       3.807   3.219  18.774  0.00  0.00    +0.000 A 
ATOM      9  C   UNL     1       2.981   2.129  19.050  0.00  0.00    +0.000 A 
ATOM     10  C   UNL     1       1.613   2.198  18.772  0.00  0.00    +0.000 A 
ATOM     11  C   UNL     1       1.070   3.343  18.188  0.00  0.00    +0.000 A 
ATOM     12  C   UNL     1       1.905   4.384  17.787  0.00  0.00    +0.000 A 
ATOM     13  C   UNL     1       3.270   4.302  18.070  0.00  0.00    +0.000 A 
ATOM     14  C   UNL     1       4.175   5.418  17.751  0.00  0.00    +0.000 A 
ATOM     15  O   UNL     1       3.959   6.185  16.820  0.00  0.00    +0.000 OA
ENDBRANCH   3   5
BRANCH   2  16
ATOM     16  C   UNL     1       8.232   7.648  18.153  0.00  0.00    +0.000 C 
ATOM     17  C   UNL     1       7.796   8.899  17.932  0.00  0.00    +0.000 C 
BRANCH  17  18
ATOM     18  C   UNL     1       8.578  10.124  18.152  0.00  0.00    +0.000 A 
ATOM     19  C   UNL     1       8.285  11.333  17.518  0.00  0.00    +0.000 A 
ATOM     20  C   UNL     1       9.016  12.486  17.797  0.00  0.00    +0.000 A 
ATOM     21  C   UNL     1      10.056  12.445  18.725  0.00  0.00    +0.000 A 
ATOM     22  C   UNL     1      10.355  11.252  19.378  0.00  0.00    +0.000 A 
ATOM     23  C   UNL     1       9.616  10.098  19.094  0.00  0.00    +0.000 A 
ENDBRANCH  17  18
ENDBRANCH   2  16
TORSDOF 3
ENDMDL
