MODEL 1
REMARK VINA RESULT:      -6.3      0.000      0.000
REMARK  Name = 
REMARK  5 active torsions:
REMARK  status: ('A' for Active; 'I' for Inactive)
REMARK    1  A    between atoms: N_1  and  C_2
REMARK    2  A    between atoms: C_2  and  C_3
REMARK    3  A    between atoms: C_3  and  C_4
REMARK    4  A    between atoms: C_4  and  O_5
REMARK    5  A    between atoms: C_7  and  C_8
REMARK                            x       y       z     vdW  Elec       q    Type
REMARK                         _______ _______ _______ _____ _____    ______ ____
ROOT
ATOM      1  C   UNL     1       5.120   5.727  17.565  0.00  0.00    +0.000 C 
ATOM      2  C   UNL     1       3.851   6.550  17.932  0.00  0.00    +0.000 C 
ATOM      3  C   UNL     1       2.961   5.294  17.709  0.00  0.00    +0.000 C 
ATOM      4  C   UNL     1       4.177   4.628  17.006  0.00  0.00    +0.000 C 
ENDROOT
BRANCH   3   5
ATOM      5  C   UNL     1       2.322   4.527  18.953  0.00  0.00    +0.000 A 
ATOM      6  C   UNL     1       2.706   4.769  20.286  0.00  0.00    +0.000 A 
ATOM      7  C   UNL     1       2.200   4.015  21.349  0.00  0.00    +0.000 A 
ATOM      8  C   UNL     1       1.271   3.007  21.111  0.00  0.00    +0.000 A 
ATOM      9  C   UNL     1       0.823   2.778  19.818  0.00  0.00    +0.000 A 
ATOM     10  C   UNL     1       1.333   3.538  18.762  0.00  0.00    +0.000 A 
ENDBRANCH   3   5
BRANCH   1  11
ATOM     11  C   UNL     1       5.954   6.391  16.451  0.00  0.00    +0.000 C 
BRANCH  11  12
ATOM     12  N   UNL     1       7.383   6.361  16.767  0.00  0.00    +0.000 NA
ATOM     13  H   UNL     1       7.840   5.637  16.217  0.00  0.00    +0.000 HD
ATOM     14  H   UNL     1       7.519   6.100  17.745  0.00  0.00    +0.000 HD
ENDBRANCH  11  12
ENDBRANCH   1  11
BRANCH   1  15
ATOM     15  C   UNL     1       6.015   5.345  18.758  0.00  0.00    +0.000 C 
BRANCH  15  16
ATOM     16  O   UNL     1       6.632   4.074  18.595  0.00  0.00    +0.000 OA
ATOM     17  H   UNL     1       6.741   3.898  17.648  0.00  0.00    +0.000 HD
ENDBRANCH  15  16
ENDBRANCH   1  15
TORSDOF 5
ENDMDL
MODEL 2
REMARK VINA RESULT:      -6.2      2.604      5.223
REMARK  Name = 
REMARK  5 active torsions:
REMARK  status: ('A' for Active; 'I' for Inactive)
REMARK    1  A    between atoms: N_1  and  C_2
REMARK    2  A    between atoms: C_2  and  C_3
REMARK    3  A    between atoms: C_3  and  C_4
REMARK    4  A    between atoms: C_4  and  O_5
REMARK    5  A    between atoms: C_7  and  C_8
REMARK                            x       y       z     vdW  Elec       q    Type
REMARK                         _______ _______ _______ _____ _____    ______ ____
ROOT
ATOM      1  C   UNL     1       3.364   3.672  18.222  0.00  0.00    +0.000 C 
ATOM      2  C   UNL     1       4.378   3.539  17.049  0.00  0.00    +0.000 C 
ATOM      3  C   UNL     1       4.546   5.085  17.005  0.00  0.00    +0.000 C 
ATOM      4  C   UNL     1       3.280   5.189  17.902  0.00  0.00    +0.000 C 
ENDROOT
BRANCH   3   5
ATOM      5  C   UNL     1       5.884   5.767  17.543  0.00  0.00    +0.000 A 
ATOM      6  C   UNL     1       6.665   5.217  18.578  0.00  0.00    +0.000 A 
ATOM      7  C   UNL     1       7.780   5.884  19.096  0.00  0.00    +0.000 A 
ATOM      8  C   UNL     1       8.162   7.116  18.574  0.00  0.00    +0.000 A 
ATOM      9  C   UNL     1       7.453   7.662  17.514  0.00  0.00    +0.000 A 
ATOM     10  C   UNL     1       6.342   6.988  17.002  0.00  0.00    +0.000 A 
ENDBRANCH   3   5
BRANCH   1  11
ATOM     11  C   UNL     1       2.032   2.950  17.937  0.00  0.00    +0.000 C 
BRANCH  11  12
ATOM     12  N   UNL     1       2.006   1.622  18.551  0.00  0.00    +0.000 NA
ATOM     13  H   UNL     1       1.207   1.549  19.176  0.00  0.00    +0.000 HD
ATOM     14  H   UNL     1       2.834   1.490  19.134  0.00  0.00    +0.000 HD
ENDBRANCH  11  12
ENDBRANCH   1  11
BRANCH   1  15
ATOM     15  C   UNL     1       3.912   3.275  19.604  0.00  0.00    +0.000 C 
BRANCH  15  16
ATOM     16  O   UNL     1       4.927   2.282  19.527  0.00  0.00    +0.000 OA
ATOM     17  H   UNL     1       5.470   2.327  20.329  0.00  0.00    +0.000 HD
ENDBRANCH  15  16
ENDBRANCH   1  15
TORSDOF 5
ENDMDL
MODEL 3
REMARK VINA RESULT:      -6.2      0.887      1.548
REMARK  Name = 
REMARK  5 active torsions:
REMARK  status: ('A' for Active; 'I' for Inactive)
REMARK    1  A    between atoms: N_1  and  C_2
REMARK    2  A    between atoms: C_2  and  C_3
REMARK    3  A    between atoms: C_3  and  C_4
REMARK    4  A    between atoms: C_4  and  O_5
REMARK    5  A    between atoms: C_7  and  C_8
REMARK                            x       y       z     vdW  Elec       q    Type
REMARK                         _______ _______ _______ _____ _____    ______ ____
ROOT
ATOM      1  C   UNL     1       5.755   5.478  17.639  0.00  0.00    +0.000 C 
ATOM      2  C   UNL     1       4.436   6.299  17.552  0.00  0.00    +0.000 C 
ATOM      3  C   UNL     1       3.622   4.988  17.356  0.00  0.00    +0.000 C 
ATOM      4  C   UNL     1       4.969   4.262  17.081  0.00  0.00    +0.000 C 
ENDROOT
BRANCH   3   5
ATOM      5  C   UNL     1       2.710   4.420  18.535  0.00  0.00    +0.000 A 
ATOM      6  C   UNL     1       1.783   3.375  18.355  0.00  0.00    +0.000 A 
ATOM      7  C   UNL     1       0.928   2.962  19.382  0.00  0.00    +0.000 A 
ATOM      8  C   UNL     1       0.993   3.568  20.632  0.00  0.00    +0.000 A 
ATOM      9  C   UNL     1       1.933   4.561  20.865  0.00  0.00    +0.000 A 
ATOM     10  C   UNL     1       2.785   4.966  19.834  0.00  0.00    +0.000 A 
ENDBRANCH   3   5
BRANCH   1  11
ATOM     11  C   UNL     1       6.827   5.974  16.648  0.00  0.00    +0.000 C 
BRANCH  11  12
ATOM     12  N   UNL     1       7.539   4.855  16.030  0.00  0.00    +0.000 NA
ATOM     13  H   UNL     1       8.539   4.957  16.189  0.00  0.00    +0.000 HD
ATOM     14  H   UNL     1       7.411   4.876  15.017  0.00  0.00    +0.000 HD
ENDBRANCH  11  12
ENDBRANCH   1  11
BRANCH   1  15
ATOM     15  C   UNL     1       6.346   5.343  19.053  0.00  0.00    +0.000 C 
BRANCH  15  16
ATOM     16  O   UNL     1       7.724   4.991  19.041  0.00  0.00    +0.000 OA
ATOM     17  H   UNL     1       7.969   4.719  18.144  0.00  0.00    +0.000 HD
ENDBRANCH  15  16
ENDBRANCH   1  15
TORSDOF 5
ENDMDL
MODEL 4
REMARK VINA RESULT:      -6.1      1.761      2.364
REMARK  Name = 
REMARK  5 active torsions:
REMARK  status: ('A' for Active; 'I' for Inactive)
REMARK    1  A    between atoms: N_1  and  C_2
REMARK    2  A    between atoms: C_2  and  C_3
REMARK    3  A    between atoms: C_3  and  C_4
REMARK    4  A    between atoms: C_4  and  O_5
REMARK    5  A    between atoms: C_7  and  C_8
REMARK                            x       y       z     vdW  Elec       q    Type
REMARK                         _______ _______ _______ _____ _____    ______ ____
ROOT
ATOM      1  C   UNL     1       6.449   5.878  17.650  0.00  0.00    +0.000 C 
ATOM      2  C   UNL     1       5.945   5.508  19.075  0.00  0.00    +0.000 C 
ATOM      3  C   UNL     1       4.472   5.707  18.616  0.00  0.00    +0.000 C 
ATOM      4  C   UNL     1       5.024   6.414  17.346  0.00  0.00    +0.000 C 
ENDROOT
BRANCH   3   5
ATOM      5  C   UNL     1       3.518   4.447  18.398  0.00  0.00    +0.000 A 
ATOM      6  C   UNL     1       2.115   4.549  18.325  0.00  0.00    +0.000 A 
ATOM      7  C   UNL     1       1.297   3.418  18.230  0.00  0.00    +0.000 A 
ATOM      8  C   UNL     1       1.863   2.148  18.179  0.00  0.00    +0.000 A 
ATOM      9  C   UNL     1       3.243   2.011  18.188  0.00  0.00    +0.000 A 
ATOM     10  C   UNL     1       4.053   3.146  18.282  0.00  0.00    +0.000 A 
ENDBRANCH   3   5
BRANCH   1  11
ATOM     11  C   UNL     1       7.497   7.007  17.667  0.00  0.00    +0.000 C 
BRANCH  11  12
ATOM     12  N   UNL     1       8.320   6.950  18.876  0.00  0.00    +0.000 NA
ATOM     13  H   UNL     1       7.725   7.024  19.698  0.00  0.00    +0.000 HD
ATOM     14  H   UNL     1       8.948   7.755  18.910  0.00  0.00    +0.000 HD
ENDBRANCH  11  12
ENDBRANCH   1  11
BRANCH   1  15
ATOM     15  C   UNL     1       6.946   4.690  16.807  0.00  0.00    +0.000 C 
BRANCH  15  16
ATOM     16  O   UNL     1       8.142   4.115  17.321  0.00  0.00    +0.000 OA
ATOM     17  H   UNL     1       8.316   4.488  18.199  0.00  0.00    +0.000 HD
ENDBRANCH  15  16
ENDBRANCH   1  15
TORSDOF 5
ENDMDL
MODEL 5
REMARK VINA RESULT:      -6.1      0.735      1.476
REMARK  Name = 
REMARK  5 active torsions:
REMARK  status: ('A' for Active; 'I' for Inactive)
REMARK    1  A    between atoms: N_1  and  C_2
REMARK    2  A    between atoms: C_2  and  C_3
REMARK    3  A    between atoms: C_3  and  C_4
REMARK    4  A    between atoms: C_4  and  O_5
REMARK    5  A    between atoms: C_7  and  C_8
REMARK                            x       y       z     vdW  Elec       q    Type
REMARK                         _______ _______ _______ _____ _____    ______ ____
ROOT
ATOM      1  C   UNL     1       5.212   5.638  17.600  0.00  0.00    +0.000 C 
ATOM      2  C   UNL     1       3.937   6.440  17.993  0.00  0.00    +0.000 C 
ATOM      3  C   UNL     1       3.049   5.202  17.676  0.00  0.00    +0.000 C 
ATOM      4  C   UNL     1       4.278   4.577  16.957  0.00  0.00    +0.000 C 
ENDROOT
BRANCH   3   5
ATOM      5  C   UNL     1       2.386   4.361  18.859  0.00  0.00    +0.000 A 
ATOM      6  C   UNL     1       1.439   3.342  18.641  0.00  0.00    +0.000 A 
ATOM      7  C   UNL     1       0.802   2.687  19.700  0.00  0.00    +0.000 A 
ATOM      8  C   UNL     1       1.115   3.016  21.015  0.00  0.00    +0.000 A 
ATOM      9  C   UNL     1       2.086   3.974  21.270  0.00  0.00    +0.000 A 
ATOM     10  C   UNL     1       2.718   4.622  20.206  0.00  0.00    +0.000 A 
ENDBRANCH   3   5
BRANCH   1  11
ATOM     11  C   UNL     1       6.067   6.367  16.546  0.00  0.00    +0.000 C 
BRANCH  11  12
ATOM     12  N   UNL     1       5.274   6.718  15.368  0.00  0.00    +0.000 NA
ATOM     13  H   UNL     1       5.873   7.152  14.669  0.00  0.00    +0.000 HD
ATOM     14  H   UNL     1       4.575   7.421  15.614  0.00  0.00    +0.000 HD
ENDBRANCH  11  12
ENDBRANCH   1  11
BRANCH   1  15
ATOM     15  C   UNL     1       6.083   5.182  18.784  0.00  0.00    +0.000 C 
BRANCH  15  16
ATOM     16  O   UNL     1       5.989   3.783  19.027  0.00  0.00    +0.000 OA
ATOM     17  H   UNL     1       5.548   3.643  19.879  0.00  0.00    +0.000 HD
ENDBRANCH  15  16
ENDBRANCH   1  15
TORSDOF 5
ENDMDL
MODEL 6
REMARK VINA RESULT:      -6.1      0.870      1.217
REMARK  Name = 
REMARK  5 active torsions:
REMARK  status: ('A' for Active; 'I' for Inactive)
REMARK    1  A    between atoms: N_1  and  C_2
REMARK    2  A    between atoms: C_2  and  C_3
REMARK    3  A    between atoms: C_3  and  C_4
REMARK    4  A    between atoms: C_4  and  O_5
REMARK    5  A    between atoms: C_7  and  C_8
REMARK                            x       y       z     vdW  Elec       q    Type
REMARK                         _______ _______ _______ _____ _____    ______ ____
ROOT
ATOM      1  C   UNL     1       5.103   5.512  17.368  0.00  0.00    +0.000 C 
ATOM      2  C   UNL     1       3.730   6.139  17.749  0.00  0.00    +0.000 C 
ATOM      3  C   UNL     1       3.055   4.740  17.659  0.00  0.00    +0.000 C 
ATOM      4  C   UNL     1       4.335   4.233  16.936  0.00  0.00    +0.000 C 
ENDROOT
BRANCH   3   5
ATOM      5  C   UNL     1       2.610   3.973  18.985  0.00  0.00    +0.000 A 
ATOM      6  C   UNL     1       1.305   4.040  19.511  0.00  0.00    +0.000 A 
ATOM      7  C   UNL     1       0.967   3.436  20.726  0.00  0.00    +0.000 A 
ATOM      8  C   UNL     1       1.922   2.722  21.442  0.00  0.00    +0.000 A 
ATOM      9  C   UNL     1       3.203   2.583  20.927  0.00  0.00    +0.000 A 
ATOM     10  C   UNL     1       3.532   3.188  19.711  0.00  0.00    +0.000 A 
ENDBRANCH   3   5
BRANCH   1  11
ATOM     11  C   UNL     1       5.764   6.219  16.169  0.00  0.00    +0.000 C 
BRANCH  11  12
ATOM     12  N   UNL     1       7.209   5.990  16.147  0.00  0.00    +0.000 NA
ATOM     13  H   UNL     1       7.588   6.102  17.084  0.00  0.00    +0.000 HD
ATOM     14  H   UNL     1       7.666   6.698  15.571  0.00  0.00    +0.000 HD
ENDBRANCH  11  12
ENDBRANCH   1  11
BRANCH   1  15
ATOM     15  C   UNL     1       6.100   5.372  18.533  0.00  0.00    +0.000 C 
BRANCH  15  16
ATOM     16  O   UNL     1       6.805   4.137  18.506  0.00  0.00    +0.000 OA
ATOM     17  H   UNL     1       7.142   3.951  19.396  0.00  0.00    +0.000 HD
ENDBRANCH  15  16
ENDBRANCH   1  15
TORSDOF 5
ENDMDL
MODEL 7
REMARK VINA RESULT:      -6.1      2.912      5.402
REMARK  Name = 
REMARK  5 active torsions:
REMARK  status: ('A' for Active; 'I' for Inactive)
REMARK    1  A    between atoms: N_1  and  C_2
REMARK    2  A    between atoms: C_2  and  C_3
REMARK    3  A    between atoms: C_3  and  C_4
REMARK    4  A    between atoms: C_4  and  O_5
REMARK    5  A    between atoms: C_7  and  C_8
REMARK                            x       y       z     vdW  Elec       q    Type
REMARK                         _______ _______ _______ _____ _____    ______ ____
ROOT
ATOM      1  C   UNL     1       2.235   4.051  19.331  0.00  0.00    +0.000 C 
ATOM      2  C   UNL     1       1.930   4.621  17.914  0.00  0.00    +0.000 C 
ATOM      3  C   UNL     1       3.166   5.560  18.016  0.00  0.00    +0.000 C 
ATOM      4  C   UNL     1       3.212   5.240  19.537  0.00  0.00    +0.000 C 
ENDROOT
BRANCH   3   5
ATOM      5  C   UNL     1       4.480   5.258  17.163  0.00  0.00    +0.000 A 
ATOM      6  C   UNL     1       4.660   4.076  16.419  0.00  0.00    +0.000 A 
ATOM      7  C   UNL     1       5.860   3.794  15.759  0.00  0.00    +0.000 A 
ATOM      8  C   UNL     1       6.913   4.703  15.803  0.00  0.00    +0.000 A 
ATOM      9  C   UNL     1       6.753   5.906  16.477  0.00  0.00    +0.000 A 
ATOM     10  C   UNL     1       5.549   6.180  17.132  0.00  0.00    +0.000 A 
ENDBRANCH   3   5
BRANCH   1  11
ATOM     11  C   UNL     1       1.020   4.134  20.276  0.00  0.00    +0.000 C 
BRANCH  11  12
ATOM     12  N   UNL     1       0.825   2.879  21.003  0.00  0.00    +0.000 NA
ATOM     13  H   UNL     1       0.733   3.072  21.998  0.00  0.00    +0.000 HD
ATOM     14  H   UNL     1       1.652   2.288  20.906  0.00  0.00    +0.000 HD
ENDBRANCH  11  12
ENDBRANCH   1  11
BRANCH   1  15
ATOM     15  C   UNL     1       2.838   2.635  19.346  0.00  0.00    +0.000 C 
BRANCH  15  16
ATOM     16  O   UNL     1       2.180   1.749  18.448  0.00  0.00    +0.000 OA
ATOM     17  H   UNL     1       1.483   2.236  17.983  0.00  0.00    +0.000 HD
ENDBRANCH  15  16
ENDBRANCH   1  15
TORSDOF 5
ENDMDL
MODEL 8
REMARK VINA RESULT:      -6.0      1.214      2.042
REMARK  Name = 
REMARK  5 active torsions:
REMARK  status: ('A' for Active; 'I' for Inactive)
REMARK    1  A    between atoms: N_1  and  C_2
REMARK    2  A    between atoms: C_2  and  C_3
REMARK    3  A    between atoms: C_3  and  C_4
REMARK    4  A    between atoms: C_4  and  O_5
REMARK    5  A    between atoms: C_7  and  C_8
REMARK                            x       y       z     vdW  Elec       q    Type
REMARK                         _______ _______ _______ _____ _____    ______ ____
ROOT
ATOM      1  C   UNL     1       5.577   5.430  17.298  0.00  0.00    +0.000 C 
ATOM      2  C   UNL     1       5.759   4.745  18.684  0.00  0.00    +0.000 C 
ATOM      3  C   UNL     1       4.408   5.346  19.168  0.00  0.00    +0.000 C 
ATOM      4  C   UNL     1       4.451   6.289  17.933  0.00  0.00    +0.000 C 
ENDROOT
BRANCH   3   5
ATOM      5  C   UNL     1       3.124   4.414  19.334  0.00  0.00    +0.000 A 
ATOM      6  C   UNL     1       2.850   3.324  18.486  0.00  0.00    +0.000 A 
ATOM      7  C   UNL     1       1.669   2.583  18.594  0.00  0.00    +0.000 A 
ATOM      8  C   UNL     1       0.733   2.897  19.575  0.00  0.00    +0.000 A 
ATOM      9  C   UNL     1       0.995   3.927  20.467  0.00  0.00    +0.000 A 
ATOM     10  C   UNL     1       2.178   4.661  20.353  0.00  0.00    +0.000 A 
ENDBRANCH   3   5
BRANCH   1  11
ATOM     11  C   UNL     1       6.796   6.284  16.896  0.00  0.00    +0.000 C 
BRANCH  11  12
ATOM     12  N   UNL     1       7.454   5.744  15.705  0.00  0.00    +0.000 NA
ATOM     13  H   UNL     1       6.975   6.075  14.870  0.00  0.00    +0.000 HD
ATOM     14  H   UNL     1       7.372   4.726  15.692  0.00  0.00    +0.000 HD
ENDBRANCH  11  12
ENDBRANCH   1  11
BRANCH   1  15
ATOM     15  C   UNL     1       5.177   4.483  16.153  0.00  0.00    +0.000 C 
BRANCH  15  16
ATOM     16  O   UNL     1       5.841   3.226  16.223  0.00  0.00    +0.000 OA
ATOM     17  H   UNL     1       6.401   3.212  17.014  0.00  0.00    +0.000 HD
ENDBRANCH  15  16
ENDBRANCH   1  15
TORSDOF 5
ENDMDL
MODEL 9
REMARK VINA RESULT:      -6.0      2.835      5.231
REMARK  Name = 
REMARK  5 active torsions:
REMARK  status: ('A' for Active; 'I' for Inactive)
REMARK    1  A    between atoms: N_1  and  C_2
REMARK    2  A    between atoms: C_2  and  C_3
REMARK    3  A    between atoms: C_3  and  C_4
REMARK    4  A    between atoms: C_4  and  O_5
REMARK    5  A    between atoms: C_7  and  C_8
REMARK                            x       y       z     vdW  Elec       q    Type
REMARK                         _______ _______ _______ _____ _____    ______ ____
ROOT
ATOM      1  C   UNL     1       2.150   3.401  19.740  0.00  0.00    +0.000 C 
ATOM      2  C   UNL     1       1.506   4.007  18.459  0.00  0.00    +0.000 C 
ATOM      3  C   UNL     1       2.492   5.209  18.520  0.00  0.00    +0.000 C 
ATOM      4  C   UNL     1       2.846   4.770  19.969  0.00  0.00    +0.000 C 
ENDROOT
BRANCH   3   5
ATOM      5  C   UNL     1       3.691   5.322  17.474  0.00  0.00    +0.000 A 
ATOM      6  C   UNL     1       4.295   6.546  17.127  0.00  0.00    +0.000 A 
ATOM      7  C   UNL     1       5.279   6.629  16.136  0.00  0.00    +0.000 A 
ATOM      8  C   UNL     1       5.707   5.480  15.478  0.00  0.00    +0.000 A 
ATOM      9  C   UNL     1       5.177   4.248  15.834  0.00  0.00    +0.000 A 
ATOM     10  C   UNL     1       4.197   4.175  16.826  0.00  0.00    +0.000 A 
ENDBRANCH   3   5
BRANCH   1  11
ATOM     11  C   UNL     1       1.112   3.093  20.836  0.00  0.00    +0.000 C 
BRANCH  11  12
ATOM     12  N   UNL     1       1.756   2.624  22.063  0.00  0.00    +0.000 NA
ATOM     13  H   UNL     1       1.176   2.857  22.865  0.00  0.00    +0.000 HD
ATOM     14  H   UNL     1       2.641   3.115  22.203  0.00  0.00    +0.000 HD
ENDBRANCH  11  12
ENDBRANCH   1  11
BRANCH   1  15
ATOM     15  C   UNL     1       3.059   2.183  19.496  0.00  0.00    +0.000 C 
BRANCH  15  16
ATOM     16  O   UNL     1       2.634   1.394  18.392  0.00  0.00    +0.000 OA
ATOM     17  H   UNL     1       3.416   1.049  17.935  0.00  0.00    +0.000 HD
ENDBRANCH  15  16
ENDBRANCH   1  15
TORSDOF 5
ENDMDL
