MODEL 1
REMARK VINA RESULT:      -7.8      0.000      0.000
REMARK  Name = 
REMARK  6 active torsions:
REMARK  status: ('A' for Active; 'I' for Inactive)
REMARK    1  A    between atoms: C_1  and  O_2
REMARK    2  A    between atoms: O_2  and  C_3
REMARK    3  A    between atoms: C_9  and  C_10
REMARK    4  A    between atoms: N_12  and  C_13
REMARK    5  A    between atoms: N_12  and  C_20
REMARK    6  A    between atoms: C_13  and  C_14
REMARK                            x       y       z     vdW  Elec       q    Type
REMARK                         _______ _______ _______ _____ _____    ______ ____
ROOT
ATOM      1  C   UNL     1       4.322   3.301  18.034  0.00  0.00    +0.000 C 
ATOM      2  O   UNL     1       4.569   2.602  17.043  0.00  0.00    +0.000 OA
ATOM      3  N   UNL     1       4.929   4.546  18.209  0.00  0.00    +0.000 N 
ENDROOT
BRANCH   1  10
ATOM      4  C   UNL     1       1.894   2.880  18.994  0.00  0.00    +0.000 A 
ATOM      5  C   UNL     1       1.229   2.955  20.162  0.00  0.00    +0.000 A 
ATOM      6  C   UNL     1       1.947   2.723  21.433  0.00  0.00    +0.000 A 
ATOM      7  O   UNL     1       1.446   2.966  22.526  0.00  0.00    +0.000 OA
ATOM      8  N   UNL     1       3.225   2.200  21.322  0.00  0.00    +0.000 N 
ATOM      9  C   UNL     1       3.917   2.212  20.118  0.00  0.00    +0.000 A 
ATOM     10  C   UNL     1       3.323   2.617  18.966  0.00  0.00    +0.000 A 
ATOM     11  H   UNL     1       3.739   2.079  22.185  0.00  0.00    +0.000 HD
BRANCH   4  13
ATOM     12  C   UNL     1       0.993   4.282  17.198  0.00  0.00    +0.000 C 
ATOM     13  O   UNL     1       1.356   3.032  17.754  0.00  0.00    +0.000 OA
ENDBRANCH   4  13
ENDBRANCH   1  10
BRANCH   3  14
ATOM     14  C   UNL     1       5.865   5.052  17.130  0.00  0.00    +0.000 C 
ATOM     15  C   UNL     1       5.824   6.534  16.647  0.00  0.00    +0.000 C 
ATOM     16  C   UNL     1       6.517   7.544  17.580  0.00  0.00    +0.000 C 
ATOM     17  C   UNL     1       7.884   7.090  18.089  0.00  0.00    +0.000 C 
ATOM     18  C   UNL     1       7.858   5.653  18.558  0.00  0.00    +0.000 C 
ATOM     19  C   UNL     1       7.357   4.787  17.422  0.00  0.00    +0.000 C 
ENDBRANCH   3  14
BRANCH   3  20
ATOM     20  C   UNL     1       4.504   5.505  19.264  0.00  0.00    +0.000 C 
BRANCH  20  21
ATOM     21  C   UNL     1       3.153   6.249  19.218  0.00  0.00    +0.000 A 
ATOM     22  C   UNL     1       2.984   7.051  18.073  0.00  0.00    +0.000 A 
ATOM     23  C   UNL     1       2.292   8.254  18.159  0.00  0.00    +0.000 A 
ATOM     24  C   UNL     1       1.658   8.600  19.345  0.00  0.00    +0.000 A 
ATOM     25  C   UNL     1       1.568   7.662  20.375  0.00  0.00    +0.000 A 
ATOM     26  C   UNL     1       2.263   6.453  20.296  0.00  0.00    +0.000 A 
ENDBRANCH  20  21
ENDBRANCH   3  20
TORSDOF 5
ENDMDL
MODEL 2
REMARK VINA RESULT:      -7.2      1.953      4.046
REMARK  Name = 
REMARK  6 active torsions:
REMARK  status: ('A' for Active; 'I' for Inactive)
REMARK    1  A    between atoms: C_1  and  O_2
REMARK    2  A    between atoms: O_2  and  C_3
REMARK    3  A    between atoms: C_9  and  C_10
REMARK    4  A    between atoms: N_12  and  C_13
REMARK    5  A    between atoms: N_12  and  C_20
REMARK    6  A    between atoms: C_13  and  C_14
REMARK                            x       y       z     vdW  Elec       q    Type
REMARK                         _______ _______ _______ _____ _____    ______ ____
ROOT
ATOM      1  C   UNL     1       3.233   6.581  17.949  0.00  0.00    +0.000 C 
ATOM      2  O   UNL     1       2.873   7.504  17.208  0.00  0.00    +0.000 OA
ATOM      3  N   UNL     1       4.554   6.129  17.951  0.00  0.00    +0.000 N 
ENDROOT
BRANCH   1  10
ATOM      4  C   UNL     1       1.891   6.303  20.212  0.00  0.00    +0.000 A 
ATOM      5  C   UNL     1       1.465   5.327  21.035  0.00  0.00    +0.000 A 
ATOM      6  C   UNL     1       1.132   3.996  20.486  0.00  0.00    +0.000 A 
ATOM      7  O   UNL     1       0.928   3.021  21.202  0.00  0.00    +0.000 OA
ATOM      8  N   UNL     1       1.050   3.912  19.106  0.00  0.00    +0.000 N 
ATOM      9  C   UNL     1       1.573   4.899  18.281  0.00  0.00    +0.000 A 
ATOM     10  C   UNL     1       2.071   6.055  18.791  0.00  0.00    +0.000 A 
ATOM     11  H   UNL     1       0.865   2.994  18.720  0.00  0.00    +0.000 HD
BRANCH   4  13
ATOM     12  C   UNL     1       1.252   8.633  20.620  0.00  0.00    +0.000 C 
ATOM     13  O   UNL     1       2.196   7.580  20.571  0.00  0.00    +0.000 OA
ENDBRANCH   4  13
ENDBRANCH   1  10
BRANCH   3  14
ATOM     14  C   UNL     1       5.558   6.829  17.058  0.00  0.00    +0.000 C 
ATOM     15  C   UNL     1       7.085   6.528  17.159  0.00  0.00    +0.000 C 
ATOM     16  C   UNL     1       7.539   5.224  16.476  0.00  0.00    +0.000 C 
ATOM     17  C   UNL     1       6.950   5.007  15.084  0.00  0.00    +0.000 C 
ATOM     18  C   UNL     1       5.466   5.299  15.053  0.00  0.00    +0.000 C 
ATOM     19  C   UNL     1       5.245   6.711  15.551  0.00  0.00    +0.000 C 
ENDBRANCH   3  14
BRANCH   3  20
ATOM     20  C   UNL     1       5.076   5.179  18.970  0.00  0.00    +0.000 C 
BRANCH  20  21
ATOM     21  C   UNL     1       4.883   3.652  18.861  0.00  0.00    +0.000 A 
ATOM     22  C   UNL     1       4.578   3.208  17.561  0.00  0.00    +0.000 A 
ATOM     23  C   UNL     1       3.714   2.134  17.373  0.00  0.00    +0.000 A 
ATOM     24  C   UNL     1       3.255   1.420  18.473  0.00  0.00    +0.000 A 
ATOM     25  C   UNL     1       3.804   1.671  19.732  0.00  0.00    +0.000 A 
ATOM     26  C   UNL     1       4.670   2.749  19.927  0.00  0.00    +0.000 A 
ENDBRANCH  20  21
ENDBRANCH   3  20
TORSDOF 5
ENDMDL
MODEL 3
REMARK VINA RESULT:      -6.9      1.939      5.338
REMARK  Name = 
REMARK  6 active torsions:
REMARK  status: ('A' for Active; 'I' for Inactive)
REMARK    1  A    between atoms: C_1  and  O_2
REMARK    2  A    between atoms: O_2  and  C_3
REMARK    3  A    between atoms: C_9  and  C_10
REMARK    4  A    between atoms: N_12  and  C_13
REMARK    5  A    between atoms: N_12  and  C_20
REMARK    6  A    between atoms: C_13  and  C_14
REMARK                            x       y       z     vdW  Elec       q    Type
REMARK                         _______ _______ _______ _____ _____    ______ ____
ROOT
ATOM      1  C   UNL     1       3.600   4.534  17.539  0.00  0.00    +0.000 C 
ATOM      2  O   UNL     1       3.313   3.499  16.926  0.00  0.00    +0.000 OA
ATOM      3  N   UNL     1       2.708   5.107  18.447  0.00  0.00    +0.000 N 
ENDROOT
BRANCH   1  10
ATOM      4  C   UNL     1       6.157   5.011  18.019  0.00  0.00    +0.000 A 
ATOM      5  C   UNL     1       7.014   6.048  18.062  0.00  0.00    +0.000 A 
ATOM      6  C   UNL     1       6.793   7.220  17.188  0.00  0.00    +0.000 A 
ATOM      7  O   UNL     1       7.420   8.266  17.319  0.00  0.00    +0.000 OA
ATOM      8  N   UNL     1       5.839   7.066  16.196  0.00  0.00    +0.000 N 
ATOM      9  C   UNL     1       4.916   6.029  16.224  0.00  0.00    +0.000 A 
ATOM     10  C   UNL     1       4.989   5.043  17.156  0.00  0.00    +0.000 A 
ATOM     11  H   UNL     1       5.651   7.878  15.621  0.00  0.00    +0.000 HD
BRANCH   4  13
ATOM     12  C   UNL     1       5.369   3.494  19.775  0.00  0.00    +0.000 C 
ATOM     13  O   UNL     1       6.257   3.858  18.735  0.00  0.00    +0.000 OA
ENDBRANCH   4  13
ENDBRANCH   1  10
BRANCH   3  14
ATOM     14  C   UNL     1       1.391   4.405  18.707  0.00  0.00    +0.000 C 
ATOM     15  C   UNL     1       1.220   2.876  18.455  0.00  0.00    +0.000 C 
ATOM     16  C   UNL     1       1.805   1.965  19.550  0.00  0.00    +0.000 C 
ATOM     17  C   UNL     1       1.473   2.405  20.974  0.00  0.00    +0.000 C 
ATOM     18  C   UNL     1       1.672   3.892  21.162  0.00  0.00    +0.000 C 
ATOM     19  C   UNL     1       0.838   4.621  20.132  0.00  0.00    +0.000 C 
ENDBRANCH   3  14
BRANCH   3  20
ATOM     20  C   UNL     1       3.094   6.219  19.359  0.00  0.00    +0.000 C 
BRANCH  20  21
ATOM     21  C   UNL     1       2.607   7.668  19.157  0.00  0.00    +0.000 A 
ATOM     22  C   UNL     1       1.888   8.185  20.252  0.00  0.00    +0.000 A 
ATOM     23  C   UNL     1       0.826   9.058  20.043  0.00  0.00    +0.000 A 
ATOM     24  C   UNL     1       0.560   9.521  18.760  0.00  0.00    +0.000 A 
ATOM     25  C   UNL     1       1.463   9.250  17.731  0.00  0.00    +0.000 A 
ATOM     26  C   UNL     1       2.530   8.372  17.934  0.00  0.00    +0.000 A 
ENDBRANCH  20  21
ENDBRANCH   3  20
TORSDOF 5
ENDMDL
MODEL 4
REMARK VINA RESULT:      -6.8      1.999      5.045
REMARK  Name = 
REMARK  6 active torsions:
REMARK  status: ('A' for Active; 'I' for Inactive)
REMARK    1  A    between atoms: C_1  and  O_2
REMARK    2  A    between atoms: O_2  and  C_3
REMARK    3  A    between atoms: C_9  and  C_10
REMARK    4  A    between atoms: N_12  and  C_13
REMARK    5  A    between atoms: N_12  and  C_20
REMARK    6  A    between atoms: C_13  and  C_14
REMARK                            x       y       z     vdW  Elec       q    Type
REMARK                         _______ _______ _______ _____ _____    ______ ____
ROOT
ATOM      1  C   UNL     1       3.758   4.514  18.111  0.00  0.00    +0.000 C 
ATOM      2  O   UNL     1       3.598   3.339  17.759  0.00  0.00    +0.000 OA
ATOM      3  N   UNL     1       2.725   5.235  18.713  0.00  0.00    +0.000 N 
ENDROOT
BRANCH   1  10
ATOM      4  C   UNL     1       5.897   4.711  16.569  0.00  0.00    +0.000 A 
ATOM      5  C   UNL     1       7.212   4.423  16.601  0.00  0.00    +0.000 A 
ATOM      6  C   UNL     1       7.938   4.450  17.888  0.00  0.00    +0.000 A 
ATOM      7  O   UNL     1       9.078   4.012  18.009  0.00  0.00    +0.000 OA
ATOM      8  N   UNL     1       7.261   5.011  18.957  0.00  0.00    +0.000 N 
ATOM      9  C   UNL     1       5.888   5.221  18.922  0.00  0.00    +0.000 A 
ATOM     10  C   UNL     1       5.169   5.007  17.790  0.00  0.00    +0.000 A 
ATOM     11  H   UNL     1       7.734   4.994  19.851  0.00  0.00    +0.000 HD
BRANCH   4  13
ATOM     12  C   UNL     1       5.523   4.303  14.182  0.00  0.00    +0.000 C 
ATOM     13  O   UNL     1       5.115   4.762  15.457  0.00  0.00    +0.000 OA
ENDBRANCH   4  13
ENDBRANCH   1  10
BRANCH   3  14
ATOM     14  C   UNL     1       1.410   4.531  18.975  0.00  0.00    +0.000 C 
ATOM     15  C   UNL     1       1.202   3.030  18.604  0.00  0.00    +0.000 C 
ATOM     16  C   UNL     1       1.821   2.023  19.590  0.00  0.00    +0.000 C 
ATOM     17  C   UNL     1       1.562   2.345  21.060  0.00  0.00    +0.000 C 
ATOM     18  C   UNL     1       1.795   3.808  21.362  0.00  0.00    +0.000 C 
ATOM     19  C   UNL     1       0.926   4.633  20.437  0.00  0.00    +0.000 C 
ENDBRANCH   3  14
BRANCH   3  20
ATOM     20  C   UNL     1       2.936   6.567  19.343  0.00  0.00    +0.000 C 
BRANCH  20  21
ATOM     21  C   UNL     1       1.931   7.727  19.196  0.00  0.00    +0.000 A 
ATOM     22  C   UNL     1       1.971   8.359  17.939  0.00  0.00    +0.000 A 
ATOM     23  C   UNL     1       1.751   9.729  17.837  0.00  0.00    +0.000 A 
ATOM     24  C   UNL     1       1.363  10.448  18.961  0.00  0.00    +0.000 A 
ATOM     25  C   UNL     1       1.025   9.765  20.130  0.00  0.00    +0.000 A 
ATOM     26  C   UNL     1       1.247   8.391  20.239  0.00  0.00    +0.000 A 
ENDBRANCH  20  21
ENDBRANCH   3  20
TORSDOF 5
ENDMDL
MODEL 5
REMARK VINA RESULT:      -6.8      2.027      5.150
REMARK  Name = 
REMARK  6 active torsions:
REMARK  status: ('A' for Active; 'I' for Inactive)
REMARK    1  A    between atoms: C_1  and  O_2
REMARK    2  A    between atoms: O_2  and  C_3
REMARK    3  A    between atoms: C_9  and  C_10
REMARK    4  A    between atoms: N_12  and  C_13
REMARK    5  A    between atoms: N_12  and  C_20
REMARK    6  A    between atoms: C_13  and  C_14
REMARK                            x       y       z     vdW  Elec       q    Type
REMARK                         _______ _______ _______ _____ _____    ______ ____
ROOT
ATOM      1  C   UNL     1       3.719   4.520  17.927  0.00  0.00    +0.000 C 
ATOM      2  O   UNL     1       3.524   3.457  17.325  0.00  0.00    +0.000 OA
ATOM      3  N   UNL     1       2.711   5.113  18.690  0.00  0.00    +0.000 N 
ENDROOT
BRANCH   1  10
ATOM      4  C   UNL     1       5.917   4.841  16.493  0.00  0.00    +0.000 A 
ATOM      5  C   UNL     1       7.231   4.551  16.554  0.00  0.00    +0.000 A 
ATOM      6  C   UNL     1       7.905   4.475  17.868  0.00  0.00    +0.000 A 
ATOM      7  O   UNL     1       9.040   4.030  17.999  0.00  0.00    +0.000 OA
ATOM      8  N   UNL     1       7.183   4.949  18.950  0.00  0.00    +0.000 N 
ATOM      9  C   UNL     1       5.812   5.160  18.878  0.00  0.00    +0.000 A 
ATOM     10  C   UNL     1       5.139   5.037  17.704  0.00  0.00    +0.000 A 
ATOM     11  H   UNL     1       7.620   4.860  19.858  0.00  0.00    +0.000 HD
BRANCH   4  13
ATOM     12  C   UNL     1       5.437   4.278  14.157  0.00  0.00    +0.000 C 
ATOM     13  O   UNL     1       5.180   4.980  15.358  0.00  0.00    +0.000 OA
ENDBRANCH   4  13
ENDBRANCH   1  10
BRANCH   3  14
ATOM     14  C   UNL     1       1.379   4.400  18.808  0.00  0.00    +0.000 C 
ATOM     15  C   UNL     1       1.229   2.891  18.442  0.00  0.00    +0.000 C 
ATOM     16  C   UNL     1       1.735   1.907  19.511  0.00  0.00    +0.000 C 
ATOM     17  C   UNL     1       1.302   2.251  20.935  0.00  0.00    +0.000 C 
ATOM     18  C   UNL     1       1.486   3.721  21.236  0.00  0.00    +0.000 C 
ATOM     19  C   UNL     1       0.726   4.521  20.201  0.00  0.00    +0.000 C 
ENDBRANCH   3  14
BRANCH   3  20
ATOM     20  C   UNL     1       2.964   6.265  19.598  0.00  0.00    +0.000 C 
BRANCH  20  21
ATOM     21  C   UNL     1       2.504   7.700  19.270  0.00  0.00    +0.000 A 
ATOM     22  C   UNL     1       1.775   8.315  20.306  0.00  0.00    +0.000 A 
ATOM     23  C   UNL     1       0.731   9.184  20.007  0.00  0.00    +0.000 A 
ATOM     24  C   UNL     1       0.494   9.545  18.686  0.00  0.00    +0.000 A 
ATOM     25  C   UNL     1       1.410   9.177  17.699  0.00  0.00    +0.000 A 
ATOM     26  C   UNL     1       2.459   8.303  17.993  0.00  0.00    +0.000 A 
ENDBRANCH  20  21
ENDBRANCH   3  20
TORSDOF 5
ENDMDL
MODEL 6
REMARK VINA RESULT:      -6.8      2.901      6.260
REMARK  Name = 
REMARK  6 active torsions:
REMARK  status: ('A' for Active; 'I' for Inactive)
REMARK    1  A    between atoms: C_1  and  O_2
REMARK    2  A    between atoms: O_2  and  C_3
REMARK    3  A    between atoms: C_9  and  C_10
REMARK    4  A    between atoms: N_12  and  C_13
REMARK    5  A    between atoms: N_12  and  C_20
REMARK    6  A    between atoms: C_13  and  C_14
REMARK                            x       y       z     vdW  Elec       q    Type
REMARK                         _______ _______ _______ _____ _____    ______ ____
ROOT
ATOM      1  C   UNL     1       2.224   6.959  19.771  0.00  0.00    +0.000 C 
ATOM      2  O   UNL     1       1.633   6.498  20.754  0.00  0.00    +0.000 OA
ATOM      3  N   UNL     1       3.122   6.182  19.037  0.00  0.00    +0.000 N 
ENDROOT
BRANCH   1  10
ATOM      4  C   UNL     1       1.047   9.236  20.421  0.00  0.00    +0.000 A 
ATOM      5  C   UNL     1       0.107  10.075  19.945  0.00  0.00    +0.000 A 
ATOM      6  C   UNL     1      -0.093  10.202  18.486  0.00  0.00    +0.000 A 
ATOM      7  O   UNL     1      -1.052  10.794  18.002  0.00  0.00    +0.000 OA
ATOM      8  N   UNL     1       0.877   9.619  17.687  0.00  0.00    +0.000 N 
ATOM      9  C   UNL     1       1.781   8.694  18.192  0.00  0.00    +0.000 A 
ATOM     10  C   UNL     1       1.841   8.417  19.521  0.00  0.00    +0.000 A 
ATOM     11  H   UNL     1       0.724   9.663  16.687  0.00  0.00    +0.000 HD
BRANCH   4  13
ATOM     12  C   UNL     1       0.504   9.374  22.807  0.00  0.00    +0.000 C 
ATOM     13  O   UNL     1       1.364   9.048  21.731  0.00  0.00    +0.000 OA
ENDBRANCH   4  13
ENDBRANCH   1  10
BRANCH   3  14
ATOM     14  C   UNL     1       3.322   4.735  19.439  0.00  0.00    +0.000 C 
ATOM     15  C   UNL     1       2.402   4.049  20.495  0.00  0.00    +0.000 C 
ATOM     16  C   UNL     1       1.024   3.606  19.970  0.00  0.00    +0.000 C 
ATOM     17  C   UNL     1       1.069   2.892  18.620  0.00  0.00    +0.000 C 
ATOM     18  C   UNL     1       1.963   3.610  17.635  0.00  0.00    +0.000 C 
ATOM     19  C   UNL     1       3.338   3.751  18.251  0.00  0.00    +0.000 C 
ENDBRANCH   3  14
BRANCH   3  20
ATOM     20  C   UNL     1       3.686   6.623  17.732  0.00  0.00    +0.000 C 
BRANCH  20  21
ATOM     21  C   UNL     1       5.143   6.337  17.315  0.00  0.00    +0.000 A 
ATOM     22  C   UNL     1       5.285   5.954  15.968  0.00  0.00    +0.000 A 
ATOM     23  C   UNL     1       6.250   5.022  15.603  0.00  0.00    +0.000 A 
ATOM     24  C   UNL     1       7.159   4.566  16.550  0.00  0.00    +0.000 A 
ATOM     25  C   UNL     1       7.209   5.179  17.804  0.00  0.00    +0.000 A 
ATOM     26  C   UNL     1       6.241   6.114  18.176  0.00  0.00    +0.000 A 
ENDBRANCH  20  21
ENDBRANCH   3  20
TORSDOF 5
ENDMDL
MODEL 7
REMARK VINA RESULT:      -6.7      3.088      5.151
REMARK  Name = 
REMARK  6 active torsions:
REMARK  status: ('A' for Active; 'I' for Inactive)
REMARK    1  A    between atoms: C_1  and  O_2
REMARK    2  A    between atoms: O_2  and  C_3
REMARK    3  A    between atoms: C_9  and  C_10
REMARK    4  A    between atoms: N_12  and  C_13
REMARK    5  A    between atoms: N_12  and  C_20
REMARK    6  A    between atoms: C_13  and  C_14
REMARK                            x       y       z     vdW  Elec       q    Type
REMARK                         _______ _______ _______ _____ _____    ______ ____
ROOT
ATOM      1  C   UNL     1       2.583   7.974  18.209  0.00  0.00    +0.000 C 
ATOM      2  O   UNL     1       2.789   8.882  17.394  0.00  0.00    +0.000 OA
ATOM      3  N   UNL     1       3.294   6.775  18.149  0.00  0.00    +0.000 N 
ENDROOT
BRANCH   1  10
ATOM      4  C   UNL     1       0.564   9.462  19.049  0.00  0.00    +0.000 A 
ATOM      5  C   UNL     1       0.237  10.249  20.091  0.00  0.00    +0.000 A 
ATOM      6  C   UNL     1       0.794   9.963  21.430  0.00  0.00    +0.000 A 
ATOM      7  O   UNL     1       0.690  10.748  22.367  0.00  0.00    +0.000 OA
ATOM      8  N   UNL     1       1.436   8.744  21.574  0.00  0.00    +0.000 N 
ATOM      9  C   UNL     1       1.834   7.994  20.475  0.00  0.00    +0.000 A 
ATOM     10  C   UNL     1       1.495   8.358  19.211  0.00  0.00    +0.000 A 
ATOM     11  H   UNL     1       1.858   8.560  22.475  0.00  0.00    +0.000 HD
BRANCH   4  13
ATOM     12  C   UNL     1      -1.208  10.018  17.450  0.00  0.00    +0.000 C 
ATOM     13  O   UNL     1       0.099   9.583  17.776  0.00  0.00    +0.000 OA
ENDBRANCH   4  13
ENDBRANCH   1  10
BRANCH   3  14
ATOM     14  C   UNL     1       4.367   6.623  17.089  0.00  0.00    +0.000 C 
ATOM     15  C   UNL     1       5.824   7.126  17.328  0.00  0.00    +0.000 C 
ATOM     16  C   UNL     1       6.698   6.205  18.199  0.00  0.00    +0.000 C 
ATOM     17  C   UNL     1       6.598   4.724  17.840  0.00  0.00    +0.000 C 
ATOM     18  C   UNL     1       5.164   4.292  17.637  0.00  0.00    +0.000 C 
ATOM     19  C   UNL     1       4.542   5.177  16.579  0.00  0.00    +0.000 C 
ENDBRANCH   3  14
BRANCH   3  20
ATOM     20  C   UNL     1       3.235   5.751  19.227  0.00  0.00    +0.000 C 
BRANCH  20  21
ATOM     21  C   UNL     1       2.077   4.740  19.354  0.00  0.00    +0.000 A 
ATOM     22  C   UNL     1       1.841   4.307  20.672  0.00  0.00    +0.000 A 
ATOM     23  C   UNL     1       1.432   3.000  20.917  0.00  0.00    +0.000 A 
ATOM     24  C   UNL     1       1.132   2.163  19.850  0.00  0.00    +0.000 A 
ATOM     25  C   UNL     1       1.069   2.691  18.559  0.00  0.00    +0.000 A 
ATOM     26  C   UNL     1       1.481   4.001  18.307  0.00  0.00    +0.000 A 
ENDBRANCH  20  21
ENDBRANCH   3  20
TORSDOF 5
ENDMDL
MODEL 8
REMARK VINA RESULT:      -6.6      2.817      4.939
REMARK  Name = 
REMARK  6 active torsions:
REMARK  status: ('A' for Active; 'I' for Inactive)
REMARK    1  A    between atoms: C_1  and  O_2
REMARK    2  A    between atoms: O_2  and  C_3
REMARK    3  A    between atoms: C_9  and  C_10
REMARK    4  A    between atoms: N_12  and  C_13
REMARK    5  A    between atoms: N_12  and  C_20
REMARK    6  A    between atoms: C_13  and  C_14
REMARK                            x       y       z     vdW  Elec       q    Type
REMARK                         _______ _______ _______ _____ _____    ______ ____
ROOT
ATOM      1  C   UNL     1       3.075   7.850  18.106  0.00  0.00    +0.000 C 
ATOM      2  O   UNL     1       3.108   8.791  17.304  0.00  0.00    +0.000 OA
ATOM      3  N   UNL     1       4.007   6.812  18.039  0.00  0.00    +0.000 N 
ENDROOT
BRANCH   1  10
ATOM      4  C   UNL     1       1.008   9.127  19.149  0.00  0.00    +0.000 A 
ATOM      5  C   UNL     1       0.614   9.647  20.327  0.00  0.00    +0.000 A 
ATOM      6  C   UNL     1       1.082   9.038  21.591  0.00  0.00    +0.000 A 
ATOM      7  O   UNL     1       0.918   9.577  22.681  0.00  0.00    +0.000 OA
ATOM      8  N   UNL     1       1.711   7.809  21.477  0.00  0.00    +0.000 N 
ATOM      9  C   UNL     1       2.179   7.338  20.258  0.00  0.00    +0.000 A 
ATOM     10  C   UNL     1       1.924   8.001  19.099  0.00  0.00    +0.000 A 
ATOM     11  H   UNL     1       2.073   7.407  22.333  0.00  0.00    +0.000 HD
BRANCH   4  13
ATOM     12  C   UNL     1      -0.677  10.011  17.605  0.00  0.00    +0.000 C 
ATOM     13  O   UNL     1       0.628   9.559  17.916  0.00  0.00    +0.000 OA
ENDBRANCH   4  13
ENDBRANCH   1  10
BRANCH   3  14
ATOM     14  C   UNL     1       5.098   6.886  16.990  0.00  0.00    +0.000 C 
ATOM     15  C   UNL     1       6.595   6.643  17.354  0.00  0.00    +0.000 C 
ATOM     16  C   UNL     1       6.994   5.165  17.519  0.00  0.00    +0.000 C 
ATOM     17  C   UNL     1       6.460   4.246  16.423  0.00  0.00    +0.000 C 
ATOM     18  C   UNL     1       5.003   4.517  16.125  0.00  0.00    +0.000 C 
ATOM     19  C   UNL     1       4.851   5.980  15.766  0.00  0.00    +0.000 C 
ENDBRANCH   3  14
BRANCH   3  20
ATOM     20  C   UNL     1       4.138   5.781  19.105  0.00  0.00    +0.000 C 
BRANCH  20  21
ATOM     21  C   UNL     1       3.371   4.444  19.070  0.00  0.00    +0.000 A 
ATOM     22  C   UNL     1       4.123   3.344  19.523  0.00  0.00    +0.000 A 
ATOM     23  C   UNL     1       3.953   2.092  18.941  0.00  0.00    +0.000 A 
ATOM     24  C   UNL     1       2.948   1.902  18.002  0.00  0.00    +0.000 A 
ATOM     25  C   UNL     1       2.009   2.913  17.785  0.00  0.00    +0.000 A 
ATOM     26  C   UNL     1       2.176   4.173  18.365  0.00  0.00    +0.000 A 
ENDBRANCH  20  21
ENDBRANCH   3  20
TORSDOF 5
ENDMDL
MODEL 9
REMARK VINA RESULT:      -6.6      2.639      6.110
REMARK  Name = 
REMARK  6 active torsions:
REMARK  status: ('A' for Active; 'I' for Inactive)
REMARK    1  A    between atoms: C_1  and  O_2
REMARK    2  A    between atoms: O_2  and  C_3
REMARK    3  A    between atoms: C_9  and  C_10
REMARK    4  A    between atoms: N_12  and  C_13
REMARK    5  A    between atoms: N_12  and  C_20
REMARK    6  A    between atoms: C_13  and  C_14
REMARK                            x       y       z     vdW  Elec       q    Type
REMARK                         _______ _______ _______ _____ _____    ______ ____
ROOT
ATOM      1  C   UNL     1       2.345   6.383  19.914  0.00  0.00    +0.000 C 
ATOM      2  O   UNL     1       1.653   6.007  20.868  0.00  0.00    +0.000 OA
ATOM      3  N   UNL     1       3.214   5.506  19.261  0.00  0.00    +0.000 N 
ENDROOT
BRANCH   1  10
ATOM      4  C   UNL     1       1.325   8.770  20.417  0.00  0.00    +0.000 A 
ATOM      5  C   UNL     1       0.502   9.672  19.850  0.00  0.00    +0.000 A 
ATOM      6  C   UNL     1       0.425   9.771  18.377  0.00  0.00    +0.000 A 
ATOM      7  O   UNL     1      -0.439  10.429  17.806  0.00  0.00    +0.000 OA
ATOM      8  N   UNL     1       1.397   9.084  17.670  0.00  0.00    +0.000 N 
ATOM      9  C   UNL     1       2.176   8.101  18.266  0.00  0.00    +0.000 A 
ATOM     10  C   UNL     1       2.110   7.860  19.601  0.00  0.00    +0.000 A 
ATOM     11  H   UNL     1       1.326   9.111  16.661  0.00  0.00    +0.000 HD
BRANCH   4  13
ATOM     12  C   UNL     1       0.846   9.327  22.755  0.00  0.00    +0.000 C 
ATOM     13  O   UNL     1       1.525   8.596  21.751  0.00  0.00    +0.000 OA
ENDBRANCH   4  13
ENDBRANCH   1  10
BRANCH   3  14
ATOM     14  C   UNL     1       3.257   4.061  19.715  0.00  0.00    +0.000 C 
ATOM     15  C   UNL     1       2.177   3.477  20.676  0.00  0.00    +0.000 C 
ATOM     16  C   UNL     1       0.835   3.121  20.011  0.00  0.00    +0.000 C 
ATOM     17  C   UNL     1       0.971   2.366  18.690  0.00  0.00    +0.000 C 
ATOM     18  C   UNL     1       2.020   2.987  17.795  0.00  0.00    +0.000 C 
ATOM     19  C   UNL     1       3.327   3.044  18.557  0.00  0.00    +0.000 C 
ENDBRANCH   3  14
BRANCH   3  20
ATOM     20  C   UNL     1       3.897   5.853  17.986  0.00  0.00    +0.000 C 
BRANCH  20  21
ATOM     21  C   UNL     1       5.432   5.876  17.842  0.00  0.00    +0.000 A 
ATOM     22  C   UNL     1       6.112   5.237  18.896  0.00  0.00    +0.000 A 
ATOM     23  C   UNL     1       7.335   5.728  19.339  0.00  0.00    +0.000 A 
ATOM     24  C   UNL     1       7.946   6.772  18.654  0.00  0.00    +0.000 A 
ATOM     25  C   UNL     1       7.418   7.193  17.432  0.00  0.00    +0.000 A 
ATOM     26  C   UNL     1       6.189   6.705  16.983  0.00  0.00    +0.000 A 
ENDBRANCH  20  21
ENDBRANCH   3  20
TORSDOF 5
ENDMDL
