MODEL 1
REMARK VINA RESULT:      -7.8      0.000      0.000
REMARK  Name = 
REMARK  10 active torsions:
REMARK  status: ('A' for Active; 'I' for Inactive)
REMARK    1  A    between atoms: C_1  and  C_2
REMARK    2  A    between atoms: C_2  and  O_3
REMARK    3  A    between atoms: O_3  and  C_4
REMARK    4  A    between atoms: C_4  and  C_6
REMARK    5  A    between atoms: C_6  and  C_7
REMARK    6  A    between atoms: C_7  and  C_8
REMARK    7  A    between atoms: C_8  and  N_9
REMARK    8  A    between atoms: N_20  and  C_21
REMARK    9  A    between atoms: C_24  and  O_25
REMARK   10  A    between atoms: O_25  and  C_26
REMARK                            x       y       z     vdW  Elec       q    Type
REMARK                         _______ _______ _______ _____ _____    ______ ____
ROOT
ATOM      1  N   UNL     1       6.498   5.838  17.553  0.00  0.00    +0.000 N 
ATOM      2  C   UNL     1       7.202   4.644  17.587  0.00  0.00    +0.000 A 
ATOM      3  O   UNL     1       8.327   4.454  17.145  0.00  0.00    +0.000 OA
ATOM      4  O   UNL     1       6.456   3.639  18.202  0.00  0.00    +0.000 OA
ATOM      5  C   UNL     1       5.313   4.316  18.585  0.00  0.00    +0.000 A 
ATOM      6  C   UNL     1       4.278   3.747  19.288  0.00  0.00    +0.000 A 
ATOM      7  C   UNL     1       3.212   4.540  19.670  0.00  0.00    +0.000 A 
ATOM      8  N   UNL     1       2.264   3.930  20.381  0.00  0.00    +0.000 NA
ATOM      9  C   UNL     1       1.251   4.683  20.797  0.00  0.00    +0.000 A 
ATOM     10  N   UNL     1       1.106   5.983  20.564  0.00  0.00    +0.000 NA
ATOM     11  C   UNL     1       2.069   6.609  19.855  0.00  0.00    +0.000 A 
ATOM     12  N   UNL     1       1.915   8.013  19.664  0.00  0.00    +0.000 N 
ATOM     13  C   UNL     1       3.184   5.916  19.333  0.00  0.00    +0.000 A 
ATOM     14  C   UNL     1       4.260   6.477  18.575  0.00  0.00    +0.000 A 
ATOM     15  C   UNL     1       5.308   5.645  18.223  0.00  0.00    +0.000 A 
ATOM     16  H   UNL     1       1.660   8.181  18.696  0.00  0.00    +0.000 HD
ENDROOT
BRANCH  12  17
ATOM     17  C   UNL     1       1.167   8.825  20.564  0.00  0.00    +0.000 A 
ATOM     18  C   UNL     1       1.408   8.761  21.945  0.00  0.00    +0.000 A 
ATOM     19  C   UNL     1       0.653   9.510  22.847  0.00  0.00    +0.000 A 
ATOM     20  C   UNL     1      -0.327  10.385  22.389  0.00  0.00    +0.000 A 
ATOM     21  C   UNL     1      -0.538  10.511  21.016  0.00  0.00    +0.000 A 
ATOM     22  C   UNL     1       0.214   9.742  20.107  0.00  0.00    +0.000 A 
BRANCH  20  23
ATOM     23  O   UNL     1      -1.046  10.999  23.375  0.00  0.00    +0.000 OA
ATOM     24  C   UNL     1      -1.939  12.025  22.965  0.00  0.00    +0.000 C 
ENDBRANCH  20  23
ENDBRANCH  12  17
BRANCH   1  25
ATOM     25  C   UNL     1       7.013   7.069  17.009  0.00  0.00    +0.000 C 
BRANCH  25  26
ATOM     26  C   UNL     1       7.929   7.824  17.979  0.00  0.00    +0.000 C 
BRANCH  26  27
ATOM     27  C   UNL     1       7.898   9.332  17.759  0.00  0.00    +0.000 C 
BRANCH  27  28
ATOM     28  C   UNL     1       8.990  10.023  18.534  0.00  0.00    +0.000 C 
ATOM     29  O   UNL     1       9.243   9.826  19.713  0.00  0.00    +0.000 OA
BRANCH  28  30
ATOM     30  O   UNL     1       9.544  10.996  17.757  0.00  0.00    +0.000 OA
BRANCH  30  32
ATOM     31  C   UNL     1      10.442  13.093  18.442  0.00  0.00    +0.000 C 
ATOM     32  C   UNL     1      10.723  11.609  18.296  0.00  0.00    +0.000 C 
ENDBRANCH  30  32
ENDBRANCH  28  30
ENDBRANCH  27  28
ENDBRANCH  26  27
ENDBRANCH  25  26
ENDBRANCH   1  25
TORSDOF 8
ENDMDL
MODEL 2
REMARK VINA RESULT:      -7.6      3.317      5.189
REMARK  Name = 
REMARK  10 active torsions:
REMARK  status: ('A' for Active; 'I' for Inactive)
REMARK    1  A    between atoms: C_1  and  C_2
REMARK    2  A    between atoms: C_2  and  O_3
REMARK    3  A    between atoms: O_3  and  C_4
REMARK    4  A    between atoms: C_4  and  C_6
REMARK    5  A    between atoms: C_6  and  C_7
REMARK    6  A    between atoms: C_7  and  C_8
REMARK    7  A    between atoms: C_8  and  N_9
REMARK    8  A    between atoms: N_20  and  C_21
REMARK    9  A    between atoms: C_24  and  O_25
REMARK   10  A    between atoms: O_25  and  C_26
REMARK                            x       y       z     vdW  Elec       q    Type
REMARK                         _______ _______ _______ _____ _____    ______ ____
ROOT
ATOM      1  N   UNL     1       3.727   5.928  18.348  0.00  0.00    +0.000 N 
ATOM      2  C   UNL     1       3.814   4.805  19.156  0.00  0.00    +0.000 A 
ATOM      3  O   UNL     1       4.559   3.849  18.988  0.00  0.00    +0.000 OA
ATOM      4  O   UNL     1       2.921   4.885  20.225  0.00  0.00    +0.000 OA
ATOM      5  C   UNL     1       2.357   6.133  20.041  0.00  0.00    +0.000 A 
ATOM      6  C   UNL     1       1.433   6.695  20.891  0.00  0.00    +0.000 A 
ATOM      7  C   UNL     1       0.985   7.978  20.640  0.00  0.00    +0.000 A 
ATOM      8  N   UNL     1       0.120   8.472  21.525  0.00  0.00    +0.000 NA
ATOM      9  C   UNL     1      -0.290   9.721  21.328  0.00  0.00    +0.000 A 
ATOM     10  N   UNL     1       0.086  10.510  20.327  0.00  0.00    +0.000 NA
ATOM     11  C   UNL     1       0.971  10.019  19.433  0.00  0.00    +0.000 A 
ATOM     12  N   UNL     1       1.397  10.904  18.401  0.00  0.00    +0.000 N 
ATOM     13  C   UNL     1       1.464   8.698  19.516  0.00  0.00    +0.000 A 
ATOM     14  C   UNL     1       2.402   8.079  18.632  0.00  0.00    +0.000 A 
ATOM     15  C   UNL     1       2.827   6.797  18.929  0.00  0.00    +0.000 A 
ATOM     16  H   UNL     1       0.970  10.612  17.528  0.00  0.00    +0.000 HD
ENDROOT
BRANCH  12  17
ATOM     17  C   UNL     1       1.378  12.320  18.557  0.00  0.00    +0.000 A 
ATOM     18  C   UNL     1       0.161  13.017  18.556  0.00  0.00    +0.000 A 
ATOM     19  C   UNL     1       0.122  14.407  18.658  0.00  0.00    +0.000 A 
ATOM     20  C   UNL     1       1.297  15.135  18.819  0.00  0.00    +0.000 A 
ATOM     21  C   UNL     1       2.513  14.454  18.888  0.00  0.00    +0.000 A 
ATOM     22  C   UNL     1       2.552  13.052  18.768  0.00  0.00    +0.000 A 
BRANCH  20  23
ATOM     23  O   UNL     1       1.130  16.490  18.828  0.00  0.00    +0.000 OA
ATOM     24  C   UNL     1       0.948  17.100  20.098  0.00  0.00    +0.000 C 
ENDBRANCH  20  23
ENDBRANCH  12  17
BRANCH   1  25
ATOM     25  C   UNL     1       4.543   6.156  17.183  0.00  0.00    +0.000 C 
BRANCH  25  26
ATOM     26  C   UNL     1       5.824   6.943  17.484  0.00  0.00    +0.000 C 
BRANCH  26  27
ATOM     27  C   UNL     1       7.029   6.413  16.716  0.00  0.00    +0.000 C 
BRANCH  27  28
ATOM     28  C   UNL     1       7.392   5.018  17.156  0.00  0.00    +0.000 C 
ATOM     29  O   UNL     1       7.627   4.686  18.308  0.00  0.00    +0.000 OA
BRANCH  28  30
ATOM     30  O   UNL     1       7.556   4.230  16.056  0.00  0.00    +0.000 OA
BRANCH  30  32
ATOM     31  C   UNL     1       6.018   3.923  14.263  0.00  0.00    +0.000 C 
ATOM     32  C   UNL     1       7.118   4.809  14.820  0.00  0.00    +0.000 C 
ENDBRANCH  30  32
ENDBRANCH  28  30
ENDBRANCH  27  28
ENDBRANCH  26  27
ENDBRANCH  25  26
ENDBRANCH   1  25
TORSDOF 8
ENDMDL
MODEL 3
REMARK VINA RESULT:      -7.4      3.330      5.098
REMARK  Name = 
REMARK  10 active torsions:
REMARK  status: ('A' for Active; 'I' for Inactive)
REMARK    1  A    between atoms: C_1  and  C_2
REMARK    2  A    between atoms: C_2  and  O_3
REMARK    3  A    between atoms: O_3  and  C_4
REMARK    4  A    between atoms: C_4  and  C_6
REMARK    5  A    between atoms: C_6  and  C_7
REMARK    6  A    between atoms: C_7  and  C_8
REMARK    7  A    between atoms: C_8  and  N_9
REMARK    8  A    between atoms: N_20  and  C_21
REMARK    9  A    between atoms: C_24  and  O_25
REMARK   10  A    between atoms: O_25  and  C_26
REMARK                            x       y       z     vdW  Elec       q    Type
REMARK                         _______ _______ _______ _____ _____    ______ ____
ROOT
ATOM      1  N   UNL     1       3.740   5.933  18.116  0.00  0.00    +0.000 N 
ATOM      2  C   UNL     1       3.899   4.816  18.924  0.00  0.00    +0.000 A 
ATOM      3  O   UNL     1       4.640   3.867  18.708  0.00  0.00    +0.000 OA
ATOM      4  O   UNL     1       3.086   4.896  20.054  0.00  0.00    +0.000 OA
ATOM      5  C   UNL     1       2.496   6.136  19.904  0.00  0.00    +0.000 A 
ATOM      6  C   UNL     1       1.631   6.695  20.816  0.00  0.00    +0.000 A 
ATOM      7  C   UNL     1       1.151   7.971  20.589  0.00  0.00    +0.000 A 
ATOM      8  N   UNL     1       0.349   8.463  21.533  0.00  0.00    +0.000 NA
ATOM      9  C   UNL     1      -0.090   9.705  21.357  0.00  0.00    +0.000 A 
ATOM     10  N   UNL     1       0.203  10.491  20.326  0.00  0.00    +0.000 NA
ATOM     11  C   UNL     1       1.025  10.002  19.373  0.00  0.00    +0.000 A 
ATOM     12  N   UNL     1       1.364  10.883  18.305  0.00  0.00    +0.000 N 
ATOM     13  C   UNL     1       1.538   8.687  19.428  0.00  0.00    +0.000 A 
ATOM     14  C   UNL     1       2.415   8.071  18.481  0.00  0.00    +0.000 A 
ATOM     15  C   UNL     1       2.875   6.796  18.756  0.00  0.00    +0.000 A 
ATOM     16  H   UNL     1       0.877  10.579  17.468  0.00  0.00    +0.000 HD
ENDROOT
BRANCH  12  17
ATOM     17  C   UNL     1       1.341  12.300  18.452  0.00  0.00    +0.000 A 
ATOM     18  C   UNL     1       2.540  13.025  18.526  0.00  0.00    +0.000 A 
ATOM     19  C   UNL     1       2.540  14.406  18.719  0.00  0.00    +0.000 A 
ATOM     20  C   UNL     1       1.341  15.108  18.789  0.00  0.00    +0.000 A 
ATOM     21  C   UNL     1       0.139  14.414  18.654  0.00  0.00    +0.000 A 
ATOM     22  C   UNL     1       0.139  13.017  18.475  0.00  0.00    +0.000 A 
BRANCH  20  23
ATOM     23  O   UNL     1       1.477  16.440  19.058  0.00  0.00    +0.000 OA
ATOM     24  C   UNL     1       2.133  16.779  20.272  0.00  0.00    +0.000 C 
ENDBRANCH  20  23
ENDBRANCH  12  17
BRANCH   1  25
ATOM     25  C   UNL     1       4.465   6.159  16.893  0.00  0.00    +0.000 C 
BRANCH  25  26
ATOM     26  C   UNL     1       5.637   7.134  17.054  0.00  0.00    +0.000 C 
BRANCH  26  27
ATOM     27  C   UNL     1       6.966   6.420  17.269  0.00  0.00    +0.000 C 
BRANCH  27  28
ATOM     28  C   UNL     1       7.118   5.247  16.334  0.00  0.00    +0.000 C 
ATOM     29  O   UNL     1       7.045   4.074  16.667  0.00  0.00    +0.000 OA
BRANCH  28  30
ATOM     30  O   UNL     1       7.490   5.700  15.103  0.00  0.00    +0.000 OA
BRANCH  30  32
ATOM     31  C   UNL     1       7.868   5.337  12.780  0.00  0.00    +0.000 C 
ATOM     32  C   UNL     1       7.107   4.863  14.005  0.00  0.00    +0.000 C 
ENDBRANCH  30  32
ENDBRANCH  28  30
ENDBRANCH  27  28
ENDBRANCH  26  27
ENDBRANCH  25  26
ENDBRANCH   1  25
TORSDOF 8
ENDMDL
MODEL 4
REMARK VINA RESULT:      -7.4      3.550      5.375
REMARK  Name = 
REMARK  10 active torsions:
REMARK  status: ('A' for Active; 'I' for Inactive)
REMARK    1  A    between atoms: C_1  and  C_2
REMARK    2  A    between atoms: C_2  and  O_3
REMARK    3  A    between atoms: O_3  and  C_4
REMARK    4  A    between atoms: C_4  and  C_6
REMARK    5  A    between atoms: C_6  and  C_7
REMARK    6  A    between atoms: C_7  and  C_8
REMARK    7  A    between atoms: C_8  and  N_9
REMARK    8  A    between atoms: N_20  and  C_21
REMARK    9  A    between atoms: C_24  and  O_25
REMARK   10  A    between atoms: O_25  and  C_26
REMARK                            x       y       z     vdW  Elec       q    Type
REMARK                         _______ _______ _______ _____ _____    ______ ____
ROOT
ATOM      1  N   UNL     1       6.384   5.402  16.687  0.00  0.00    +0.000 N 
ATOM      2  C   UNL     1       7.186   4.471  17.329  0.00  0.00    +0.000 A 
ATOM      3  O   UNL     1       8.259   4.040  16.928  0.00  0.00    +0.000 OA
ATOM      4  O   UNL     1       6.611   4.059  18.531  0.00  0.00    +0.000 OA
ATOM      5  C   UNL     1       5.473   4.839  18.594  0.00  0.00    +0.000 A 
ATOM      6  C   UNL     1       4.586   4.828  19.645  0.00  0.00    +0.000 A 
ATOM      7  C   UNL     1       3.513   5.699  19.626  0.00  0.00    +0.000 A 
ATOM      8  N   UNL     1       2.717   5.659  20.694  0.00  0.00    +0.000 NA
ATOM      9  C   UNL     1       1.704   6.520  20.718  0.00  0.00    +0.000 A 
ATOM     10  N   UNL     1       1.422   7.408  19.771  0.00  0.00    +0.000 NA
ATOM     11  C   UNL     1       2.231   7.461  18.692  0.00  0.00    +0.000 A 
ATOM     12  N   UNL     1       1.935   8.458  17.717  0.00  0.00    +0.000 N 
ATOM     13  C   UNL     1       3.326   6.583  18.534  0.00  0.00    +0.000 A 
ATOM     14  C   UNL     1       4.247   6.554  17.440  0.00  0.00    +0.000 A 
ATOM     15  C   UNL     1       5.308   5.670  17.508  0.00  0.00    +0.000 A 
ATOM     16  H   UNL     1       1.547   8.002  16.897  0.00  0.00    +0.000 HD
ENDROOT
BRANCH  12  17
ATOM     17  C   UNL     1       1.239   9.657  18.042  0.00  0.00    +0.000 A 
ATOM     18  C   UNL     1      -0.164   9.683  18.047  0.00  0.00    +0.000 A 
ATOM     19  C   UNL     1      -0.865  10.859  18.315  0.00  0.00    +0.000 A 
ATOM     20  C   UNL     1      -0.183  12.027  18.640  0.00  0.00    +0.000 A 
ATOM     21  C   UNL     1       1.210  12.005  18.704  0.00  0.00    +0.000 A 
ATOM     22  C   UNL     1       1.917  10.822  18.417  0.00  0.00    +0.000 A 
BRANCH  20  23
ATOM     23  O   UNL     1      -0.981  13.124  18.802  0.00  0.00    +0.000 OA
ATOM     24  C   UNL     1      -1.812  13.140  19.953  0.00  0.00    +0.000 C 
ENDBRANCH  20  23
ENDBRANCH  12  17
BRANCH   1  25
ATOM     25  C   UNL     1       6.720   6.040  15.440  0.00  0.00    +0.000 C 
BRANCH  25  26
ATOM     26  C   UNL     1       6.990   5.047  14.304  0.00  0.00    +0.000 C 
BRANCH  26  27
ATOM     27  C   UNL     1       5.829   4.083  14.082  0.00  0.00    +0.000 C 
BRANCH  27  28
ATOM     28  C   UNL     1       5.785   3.596  12.656  0.00  0.00    +0.000 C 
ATOM     29  O   UNL     1       6.728   3.102  12.056  0.00  0.00    +0.000 OA
BRANCH  28  30
ATOM     30  O   UNL     1       4.583   3.926  12.106  0.00  0.00    +0.000 OA
BRANCH  30  32
ATOM     31  C   UNL     1       3.231   3.736  10.154  0.00  0.00    +0.000 C 
ATOM     32  C   UNL     1       4.055   2.973  11.175  0.00  0.00    +0.000 C 
ENDBRANCH  30  32
ENDBRANCH  28  30
ENDBRANCH  27  28
ENDBRANCH  26  27
ENDBRANCH  25  26
ENDBRANCH   1  25
TORSDOF 8
ENDMDL
MODEL 5
REMARK VINA RESULT:      -7.3      3.060      4.670
REMARK  Name = 
REMARK  10 active torsions:
REMARK  status: ('A' for Active; 'I' for Inactive)
REMARK    1  A    between atoms: C_1  and  C_2
REMARK    2  A    between atoms: C_2  and  O_3
REMARK    3  A    between atoms: O_3  and  C_4
REMARK    4  A    between atoms: C_4  and  C_6
REMARK    5  A    between atoms: C_6  and  C_7
REMARK    6  A    between atoms: C_7  and  C_8
REMARK    7  A    between atoms: C_8  and  N_9
REMARK    8  A    between atoms: N_20  and  C_21
REMARK    9  A    between atoms: C_24  and  O_25
REMARK   10  A    between atoms: O_25  and  C_26
REMARK                            x       y       z     vdW  Elec       q    Type
REMARK                         _______ _______ _______ _____ _____    ______ ____
ROOT
ATOM      1  N   UNL     1       3.785   5.874  18.276  0.00  0.00    +0.000 N 
ATOM      2  C   UNL     1       3.942   4.760  19.086  0.00  0.00    +0.000 A 
ATOM      3  O   UNL     1       4.705   3.824  18.890  0.00  0.00    +0.000 OA
ATOM      4  O   UNL     1       3.096   4.822  20.194  0.00  0.00    +0.000 OA
ATOM      5  C   UNL     1       2.488   6.052  20.029  0.00  0.00    +0.000 A 
ATOM      6  C   UNL     1       1.589   6.593  20.917  0.00  0.00    +0.000 A 
ATOM      7  C   UNL     1       1.092   7.861  20.679  0.00  0.00    +0.000 A 
ATOM      8  N   UNL     1       0.255   8.337  21.600  0.00  0.00    +0.000 NA
ATOM      9  C   UNL     1      -0.200   9.572  21.415  0.00  0.00    +0.000 A 
ATOM     10  N   UNL     1       0.107  10.364  20.394  0.00  0.00    +0.000 NA
ATOM     11  C   UNL     1       0.964   9.892  19.463  0.00  0.00    +0.000 A 
ATOM     12  N   UNL     1       1.317  10.782  18.406  0.00  0.00    +0.000 N 
ATOM     13  C   UNL     1       1.498   8.587  19.531  0.00  0.00    +0.000 A 
ATOM     14  C   UNL     1       2.413   7.988  18.608  0.00  0.00    +0.000 A 
ATOM     15  C   UNL     1       2.887   6.721  18.893  0.00  0.00    +0.000 A 
ATOM     16  H   UNL     1       0.859  10.471  17.556  0.00  0.00    +0.000 HD
ENDROOT
BRANCH  12  17
ATOM     17  C   UNL     1       1.264  12.197  18.555  0.00  0.00    +0.000 A 
ATOM     18  C   UNL     1       0.035  12.871  18.497  0.00  0.00    +0.000 A 
ATOM     19  C   UNL     1      -0.035  14.261  18.591  0.00  0.00    +0.000 A 
ATOM     20  C   UNL     1       1.118  15.011  18.801  0.00  0.00    +0.000 A 
ATOM     21  C   UNL     1       2.342  14.355  18.926  0.00  0.00    +0.000 A 
ATOM     22  C   UNL     1       2.413  12.953  18.815  0.00  0.00    +0.000 A 
BRANCH  20  23
ATOM     23  O   UNL     1       0.925  16.363  18.796  0.00  0.00    +0.000 OA
ATOM     24  C   UNL     1       0.606  16.964  20.042  0.00  0.00    +0.000 C 
ENDBRANCH  20  23
ENDBRANCH  12  17
BRANCH   1  25
ATOM     25  C   UNL     1       4.540   6.117  17.074  0.00  0.00    +0.000 C 
BRANCH  25  26
ATOM     26  C   UNL     1       4.886   4.836  16.306  0.00  0.00    +0.000 C 
BRANCH  26  27
ATOM     27  C   UNL     1       6.333   4.814  15.828  0.00  0.00    +0.000 C 
BRANCH  27  28
ATOM     28  C   UNL     1       7.285   5.185  16.936  0.00  0.00    +0.000 C 
ATOM     29  O   UNL     1       7.597   4.454  17.865  0.00  0.00    +0.000 OA
BRANCH  28  30
ATOM     30  O   UNL     1       7.620   6.501  16.818  0.00  0.00    +0.000 OA
BRANCH  30  32
ATOM     31  C   UNL     1       7.989   8.658  17.758  0.00  0.00    +0.000 C 
ATOM     32  C   UNL     1       7.902   7.172  18.053  0.00  0.00    +0.000 C 
ENDBRANCH  30  32
ENDBRANCH  28  30
ENDBRANCH  27  28
ENDBRANCH  26  27
ENDBRANCH  25  26
ENDBRANCH   1  25
TORSDOF 8
ENDMDL
MODEL 6
REMARK VINA RESULT:      -7.2      3.664      5.291
REMARK  Name = 
REMARK  10 active torsions:
REMARK  status: ('A' for Active; 'I' for Inactive)
REMARK    1  A    between atoms: C_1  and  C_2
REMARK    2  A    between atoms: C_2  and  O_3
REMARK    3  A    between atoms: O_3  and  C_4
REMARK    4  A    between atoms: C_4  and  C_6
REMARK    5  A    between atoms: C_6  and  C_7
REMARK    6  A    between atoms: C_7  and  C_8
REMARK    7  A    between atoms: C_8  and  N_9
REMARK    8  A    between atoms: N_20  and  C_21
REMARK    9  A    between atoms: C_24  and  O_25
REMARK   10  A    between atoms: O_25  and  C_26
REMARK                            x       y       z     vdW  Elec       q    Type
REMARK                         _______ _______ _______ _____ _____    ______ ____
ROOT
ATOM      1  N   UNL     1       2.734   6.144  18.757  0.00  0.00    +0.000 N 
ATOM      2  C   UNL     1       2.723   5.103  19.674  0.00  0.00    +0.000 A 
ATOM      3  O   UNL     1       3.252   4.010  19.533  0.00  0.00    +0.000 OA
ATOM      4  O   UNL     1       2.010   5.453  20.820  0.00  0.00    +0.000 OA
ATOM      5  C   UNL     1       1.663   6.765  20.560  0.00  0.00    +0.000 A 
ATOM      6  C   UNL     1       0.979   7.571  21.440  0.00  0.00    +0.000 A 
ATOM      7  C   UNL     1       0.741   8.889  21.095  0.00  0.00    +0.000 A 
ATOM      8  N   UNL     1       0.107   9.621  22.011  0.00  0.00    +0.000 NA
ATOM      9  C   UNL     1      -0.092  10.902  21.719  0.00  0.00    +0.000 A 
ATOM     10  N   UNL     1       0.285  11.508  20.598  0.00  0.00    +0.000 NA
ATOM     11  C   UNL     1       0.937  10.775  19.672  0.00  0.00    +0.000 A 
ATOM     12  N   UNL     1       1.376  11.462  18.502  0.00  0.00    +0.000 N 
ATOM     13  C   UNL     1       1.189   9.396  19.849  0.00  0.00    +0.000 A 
ATOM     14  C   UNL     1       1.872   8.528  18.940  0.00  0.00    +0.000 A 
ATOM     15  C   UNL     1       2.092   7.221  19.333  0.00  0.00    +0.000 A 
ATOM     16  H   UNL     1       0.790  11.180  17.724  0.00  0.00    +0.000 HD
ENDROOT
BRANCH  12  17
ATOM     17  C   UNL     1       1.635  12.862  18.496  0.00  0.00    +0.000 A 
ATOM     18  C   UNL     1       0.596  13.777  18.722  0.00  0.00    +0.000 A 
ATOM     19  C   UNL     1       0.818  15.153  18.672  0.00  0.00    +0.000 A 
ATOM     20  C   UNL     1       2.097  15.652  18.448  0.00  0.00    +0.000 A 
ATOM     21  C   UNL     1       3.156  14.759  18.285  0.00  0.00    +0.000 A 
ATOM     22  C   UNL     1       2.928  13.370  18.320  0.00  0.00    +0.000 A 
BRANCH  20  23
ATOM     23  O   UNL     1       2.167  17.012  18.344  0.00  0.00    +0.000 OA
ATOM     24  C   UNL     1       0.995  17.676  17.894  0.00  0.00    +0.000 C 
ENDBRANCH  20  23
ENDBRANCH  12  17
BRANCH   1  25
ATOM     25  C   UNL     1       3.415   6.101  17.489  0.00  0.00    +0.000 C 
BRANCH  25  26
ATOM     26  C   UNL     1       4.681   6.964  17.450  0.00  0.00    +0.000 C 
BRANCH  26  27
ATOM     27  C   UNL     1       5.945   6.159  17.731  0.00  0.00    +0.000 C 
BRANCH  27  28
ATOM     28  C   UNL     1       7.041   6.499  16.753  0.00  0.00    +0.000 C 
ATOM     29  O   UNL     1       7.570   5.703  15.990  0.00  0.00    +0.000 OA
BRANCH  28  30
ATOM     30  O   UNL     1       7.443   7.785  16.958  0.00  0.00    +0.000 OA
BRANCH  30  32
ATOM     31  C   UNL     1       8.513   9.487  18.236  0.00  0.00    +0.000 C 
ATOM     32  C   UNL     1       8.169   8.010  18.174  0.00  0.00    +0.000 C 
ENDBRANCH  30  32
ENDBRANCH  28  30
ENDBRANCH  27  28
ENDBRANCH  26  27
ENDBRANCH  25  26
ENDBRANCH   1  25
TORSDOF 8
ENDMDL
MODEL 7
REMARK VINA RESULT:      -7.2      3.671      5.562
REMARK  Name = 
REMARK  10 active torsions:
REMARK  status: ('A' for Active; 'I' for Inactive)
REMARK    1  A    between atoms: C_1  and  C_2
REMARK    2  A    between atoms: C_2  and  O_3
REMARK    3  A    between atoms: O_3  and  C_4
REMARK    4  A    between atoms: C_4  and  C_6
REMARK    5  A    between atoms: C_6  and  C_7
REMARK    6  A    between atoms: C_7  and  C_8
REMARK    7  A    between atoms: C_8  and  N_9
REMARK    8  A    between atoms: N_20  and  C_21
REMARK    9  A    between atoms: C_24  and  O_25
REMARK   10  A    between atoms: O_25  and  C_26
REMARK                            x       y       z     vdW  Elec       q    Type
REMARK                         _______ _______ _______ _____ _____    ______ ____
ROOT
ATOM      1  N   UNL     1       4.431   5.919  18.282  0.00  0.00    +0.000 N 
ATOM      2  C   UNL     1       4.580   4.788  19.071  0.00  0.00    +0.000 A 
ATOM      3  O   UNL     1       5.433   3.921  18.940  0.00  0.00    +0.000 OA
ATOM      4  O   UNL     1       3.608   4.743  20.071  0.00  0.00    +0.000 OA
ATOM      5  C   UNL     1       2.928   5.929  19.871  0.00  0.00    +0.000 A 
ATOM      6  C   UNL     1       1.890   6.366  20.661  0.00  0.00    +0.000 A 
ATOM      7  C   UNL     1       1.325   7.601  20.402  0.00  0.00    +0.000 A 
ATOM      8  N   UNL     1       0.351   7.976  21.231  0.00  0.00    +0.000 NA
ATOM      9  C   UNL     1      -0.176   9.179  21.028  0.00  0.00    +0.000 A 
ATOM     10  N   UNL     1       0.185  10.032  20.076  0.00  0.00    +0.000 NA
ATOM     11  C   UNL     1       1.179   9.663  19.241  0.00  0.00    +0.000 A 
ATOM     12  N   UNL     1       1.582  10.617  18.261  0.00  0.00    +0.000 N 
ATOM     13  C   UNL     1       1.804   8.399  19.333  0.00  0.00    +0.000 A 
ATOM     14  C   UNL     1       2.865   7.908  18.509  0.00  0.00    +0.000 A 
ATOM     15  C   UNL     1       3.403   6.670  18.811  0.00  0.00    +0.000 A 
ATOM     16  H   UNL     1       1.253  10.305  17.353  0.00  0.00    +0.000 HD
ENDROOT
BRANCH  12  17
ATOM     17  C   UNL     1       1.399  12.017  18.444  0.00  0.00    +0.000 A 
ATOM     18  C   UNL     1       0.107  12.561  18.517  0.00  0.00    +0.000 A 
ATOM     19  C   UNL     1      -0.094  13.934  18.647  0.00  0.00    +0.000 A 
ATOM     20  C   UNL     1       0.991  14.798  18.763  0.00  0.00    +0.000 A 
ATOM     21  C   UNL     1       2.282  14.270  18.758  0.00  0.00    +0.000 A 
ATOM     22  C   UNL     1       2.485  12.885  18.611  0.00  0.00    +0.000 A 
BRANCH  20  23
ATOM     23  O   UNL     1       0.661  16.123  18.805  0.00  0.00    +0.000 OA
ATOM     24  C   UNL     1       0.865  16.789  20.043  0.00  0.00    +0.000 C 
ENDBRANCH  20  23
ENDBRANCH  12  17
BRANCH   1  25
ATOM     25  C   UNL     1       5.300   6.264  17.187  0.00  0.00    +0.000 C 
BRANCH  25  26
ATOM     26  C   UNL     1       4.926   5.569  15.873  0.00  0.00    +0.000 C 
BRANCH  26  27
ATOM     27  C   UNL     1       5.683   4.262  15.667  0.00  0.00    +0.000 C 
BRANCH  27  28
ATOM     28  C   UNL     1       6.651   4.364  14.516  0.00  0.00    +0.000 C 
ATOM     29  O   UNL     1       7.412   5.301  14.322  0.00  0.00    +0.000 OA
BRANCH  28  30
ATOM     30  O   UNL     1       6.439   3.326  13.658  0.00  0.00    +0.000 OA
BRANCH  30  32
ATOM     31  C   UNL     1       4.917   3.316  11.825  0.00  0.00    +0.000 C 
ATOM     32  C   UNL     1       6.317   3.692  12.277  0.00  0.00    +0.000 C 
ENDBRANCH  30  32
ENDBRANCH  28  30
ENDBRANCH  27  28
ENDBRANCH  26  27
ENDBRANCH  25  26
ENDBRANCH   1  25
TORSDOF 8
ENDMDL
MODEL 8
REMARK VINA RESULT:      -7.2      3.917      6.040
REMARK  Name = 
REMARK  10 active torsions:
REMARK  status: ('A' for Active; 'I' for Inactive)
REMARK    1  A    between atoms: C_1  and  C_2
REMARK    2  A    between atoms: C_2  and  O_3
REMARK    3  A    between atoms: O_3  and  C_4
REMARK    4  A    between atoms: C_4  and  C_6
REMARK    5  A    between atoms: C_6  and  C_7
REMARK    6  A    between atoms: C_7  and  C_8
REMARK    7  A    between atoms: C_8  and  N_9
REMARK    8  A    between atoms: N_20  and  C_21
REMARK    9  A    between atoms: C_24  and  O_25
REMARK   10  A    between atoms: O_25  and  C_26
REMARK                            x       y       z     vdW  Elec       q    Type
REMARK                         _______ _______ _______ _____ _____    ______ ____
ROOT
ATOM      1  N   UNL     1       2.855   6.448  18.905  0.00  0.00    +0.000 N 
ATOM      2  C   UNL     1       2.758   5.419  19.830  0.00  0.00    +0.000 A 
ATOM      3  O   UNL     1       3.296   4.323  19.751  0.00  0.00    +0.000 OA
ATOM      4  O   UNL     1       1.945   5.784  20.903  0.00  0.00    +0.000 OA
ATOM      5  C   UNL     1       1.626   7.093  20.597  0.00  0.00    +0.000 A 
ATOM      6  C   UNL     1       0.866   7.910  21.400  0.00  0.00    +0.000 A 
ATOM      7  C   UNL     1       0.664   9.224  21.020  0.00  0.00    +0.000 A 
ATOM      8  N   UNL     1      -0.049   9.967  21.865  0.00  0.00    +0.000 NA
ATOM      9  C   UNL     1      -0.219  11.245  21.541  0.00  0.00    +0.000 A 
ATOM     10  N   UNL     1       0.259  11.837  20.452  0.00  0.00    +0.000 NA
ATOM     11  C   UNL     1       0.991  11.091  19.597  0.00  0.00    +0.000 A 
ATOM     12  N   UNL     1       1.535  11.764  18.464  0.00  0.00    +0.000 N 
ATOM     13  C   UNL     1       1.223   9.715  19.813  0.00  0.00    +0.000 A 
ATOM     14  C   UNL     1       1.984   8.835  18.981  0.00  0.00    +0.000 A 
ATOM     15  C   UNL     1       2.165   7.533  19.408  0.00  0.00    +0.000 A 
ATOM     16  H   UNL     1       1.021  11.472  17.639  0.00  0.00    +0.000 HD
ENDROOT
BRANCH  12  17
ATOM     17  C   UNL     1       1.797  13.164  18.464  0.00  0.00    +0.000 A 
ATOM     18  C   UNL     1       0.759  14.079  18.698  0.00  0.00    +0.000 A 
ATOM     19  C   UNL     1       0.984  15.455  18.654  0.00  0.00    +0.000 A 
ATOM     20  C   UNL     1       2.263  15.953  18.429  0.00  0.00    +0.000 A 
ATOM     21  C   UNL     1       3.320  15.059  18.258  0.00  0.00    +0.000 A 
ATOM     22  C   UNL     1       3.090  13.670  18.286  0.00  0.00    +0.000 A 
BRANCH  20  23
ATOM     23  O   UNL     1       2.335  17.314  18.331  0.00  0.00    +0.000 OA
ATOM     24  C   UNL     1       1.128  17.992  18.013  0.00  0.00    +0.000 C 
ENDBRANCH  20  23
ENDBRANCH  12  17
BRANCH   1  25
ATOM     25  C   UNL     1       3.647   6.389  17.704  0.00  0.00    +0.000 C 
BRANCH  25  26
ATOM     26  C   UNL     1       5.155   6.334  17.975  0.00  0.00    +0.000 C 
BRANCH  26  27
ATOM     27  C   UNL     1       5.832   5.161  17.276  0.00  0.00    +0.000 C 
BRANCH  27  28
ATOM     28  C   UNL     1       7.039   5.610  16.493  0.00  0.00    +0.000 C 
ATOM     29  O   UNL     1       7.533   6.726  16.548  0.00  0.00    +0.000 OA
BRANCH  28  30
ATOM     30  O   UNL     1       7.395   4.630  15.615  0.00  0.00    +0.000 OA
BRANCH  30  32
ATOM     31  C   UNL     1       6.000   3.871  13.840  0.00  0.00    +0.000 C 
ATOM     32  C   UNL     1       7.054   4.885  14.246  0.00  0.00    +0.000 C 
ENDBRANCH  30  32
ENDBRANCH  28  30
ENDBRANCH  27  28
ENDBRANCH  26  27
ENDBRANCH  25  26
ENDBRANCH   1  25
TORSDOF 8
ENDMDL
MODEL 9
REMARK VINA RESULT:      -7.2      3.764      5.707
REMARK  Name = 
REMARK  10 active torsions:
REMARK  status: ('A' for Active; 'I' for Inactive)
REMARK    1  A    between atoms: C_1  and  C_2
REMARK    2  A    between atoms: C_2  and  O_3
REMARK    3  A    between atoms: O_3  and  C_4
REMARK    4  A    between atoms: C_4  and  C_6
REMARK    5  A    between atoms: C_6  and  C_7
REMARK    6  A    between atoms: C_7  and  C_8
REMARK    7  A    between atoms: C_8  and  N_9
REMARK    8  A    between atoms: N_20  and  C_21
REMARK    9  A    between atoms: C_24  and  O_25
REMARK   10  A    between atoms: O_25  and  C_26
REMARK                            x       y       z     vdW  Elec       q    Type
REMARK                         _______ _______ _______ _____ _____    ______ ____
ROOT
ATOM      1  N   UNL     1       3.930   5.877  18.209  0.00  0.00    +0.000 N 
ATOM      2  C   UNL     1       4.102   4.767  19.022  0.00  0.00    +0.000 A 
ATOM      3  O   UNL     1       4.890   3.850  18.837  0.00  0.00    +0.000 OA
ATOM      4  O   UNL     1       3.242   4.811  20.119  0.00  0.00    +0.000 OA
ATOM      5  C   UNL     1       2.608   6.026  19.945  0.00  0.00    +0.000 A 
ATOM      6  C   UNL     1       1.684   6.547  20.821  0.00  0.00    +0.000 A 
ATOM      7  C   UNL     1       1.161   7.803  20.575  0.00  0.00    +0.000 A 
ATOM      8  N   UNL     1       0.301   8.259  21.485  0.00  0.00    +0.000 NA
ATOM      9  C   UNL     1      -0.181   9.483  21.291  0.00  0.00    +0.000 A 
ATOM     10  N   UNL     1       0.121  10.281  20.273  0.00  0.00    +0.000 NA
ATOM     11  C   UNL     1       1.000   9.828  19.353  0.00  0.00    +0.000 A 
ATOM     12  N   UNL     1       1.344  10.724  18.300  0.00  0.00    +0.000 N 
ATOM     13  C   UNL     1       1.564   8.536  19.430  0.00  0.00    +0.000 A 
ATOM     14  C   UNL     1       2.503   7.958  18.519  0.00  0.00    +0.000 A 
ATOM     15  C   UNL     1       3.004   6.703  18.813  0.00  0.00    +0.000 A 
ATOM     16  H   UNL     1       0.904  10.401  17.444  0.00  0.00    +0.000 HD
ENDROOT
BRANCH  12  17
ATOM     17  C   UNL     1       1.256  12.138  18.445  0.00  0.00    +0.000 A 
ATOM     18  C   UNL     1       2.415  12.929  18.403  0.00  0.00    +0.000 A 
ATOM     19  C   UNL     1       2.356  14.309  18.592  0.00  0.00    +0.000 A 
ATOM     20  C   UNL     1       1.132  14.944  18.774  0.00  0.00    +0.000 A 
ATOM     21  C   UNL     1      -0.037  14.184  18.755  0.00  0.00    +0.000 A 
ATOM     22  C   UNL     1       0.024  12.789  18.580  0.00  0.00    +0.000 A 
BRANCH  20  23
ATOM     23  O   UNL     1       1.218  16.284  19.027  0.00  0.00    +0.000 OA
ATOM     24  C   UNL     1       1.949  17.061  18.089  0.00  0.00    +0.000 C 
ENDBRANCH  20  23
ENDBRANCH  12  17
BRANCH   1  25
ATOM     25  C   UNL     1       4.694   6.135  17.015  0.00  0.00    +0.000 C 
BRANCH  25  26
ATOM     26  C   UNL     1       4.853   4.903  16.118  0.00  0.00    +0.000 C 
BRANCH  26  27
ATOM     27  C   UNL     1       5.357   5.256  14.724  0.00  0.00    +0.000 C 
BRANCH  27  28
ATOM     28  C   UNL     1       6.732   4.689  14.477  0.00  0.00    +0.000 C 
ATOM     29  O   UNL     1       7.780   5.231  14.797  0.00  0.00    +0.000 OA
BRANCH  28  30
ATOM     30  O   UNL     1       6.623   3.563  13.718  0.00  0.00    +0.000 OA
BRANCH  30  32
ATOM     31  C   UNL     1       5.746   2.543  11.753  0.00  0.00    +0.000 C 
ATOM     32  C   UNL     1       6.402   3.789  12.320  0.00  0.00    +0.000 C 
ENDBRANCH  30  32
ENDBRANCH  28  30
ENDBRANCH  27  28
ENDBRANCH  26  27
ENDBRANCH  25  26
ENDBRANCH   1  25
TORSDOF 8
ENDMDL
