MODEL 1
REMARK VINA RESULT:      -6.7      0.000      0.000
REMARK  Name = 
REMARK  3 active torsions:
REMARK  status: ('A' for Active; 'I' for Inactive)
REMARK    1  A    between atoms: C_5  and  N_6
REMARK    2  A    between atoms: N_9  and  C_10
REMARK    3  A    between atoms: C_19  and  N_20
REMARK                            x       y       z     vdW  Elec       q    Type
REMARK                         _______ _______ _______ _____ _____    ______ ____
ROOT
ATOM      1  N   UNL     1       2.356   6.591  19.491  0.00  0.00    +0.000 N 
ATOM      2  C   UNL     1       1.520   7.149  20.560  0.00  0.00    +0.000 C 
ATOM      3  C   UNL     1       1.645   8.692  20.566  0.00  0.00    +0.000 C 
ATOM      4  N   UNL     1       1.374   9.251  19.228  0.00  0.00    +0.000 N 
ATOM      5  C   UNL     1       2.165   8.642  18.131  0.00  0.00    +0.000 C 
ATOM      6  C   UNL     1       2.023   7.100  18.147  0.00  0.00    +0.000 C 
ENDROOT
BRANCH   1  11
ATOM      7  N   UNL     1       5.112   1.855  19.806  0.00  0.00    +0.000 N 
ATOM      8  C   UNL     1       4.437   3.058  19.789  0.00  0.00    +0.000 A 
ATOM      9  N   UNL     1       5.118   4.140  19.417  0.00  0.00    +0.000 NA
ATOM     10  C   UNL     1       4.416   5.291  19.364  0.00  0.00    +0.000 A 
ATOM     11  C   UNL     1       3.073   5.426  19.669  0.00  0.00    +0.000 A 
ATOM     12  C   UNL     1       2.497   4.216  20.075  0.00  0.00    +0.000 A 
ATOM     13  N   UNL     1       3.156   3.047  20.159  0.00  0.00    +0.000 NA
ATOM     14  H   UNL     1       6.100   2.020  19.920  0.00  0.00    +0.000 HD
ATOM     15  H   UNL     1       4.661   1.220  20.450  0.00  0.00    +0.000 HD
BRANCH  12  16
ATOM     16  N   UNL     1       1.123   4.139  20.378  0.00  0.00    +0.000 N 
ATOM     17  H   UNL     1       0.650   3.688  19.602  0.00  0.00    +0.000 HD
ATOM     18  H   UNL     1       1.043   3.617  21.245  0.00  0.00    +0.000 HD
ENDBRANCH  12  16
ENDBRANCH   1  11
BRANCH   4  19
ATOM     19  C   UNL     1       0.565  10.359  19.029  0.00  0.00    +0.000 A 
ATOM     20  C   UNL     1      -0.821  10.232  19.256  0.00  0.00    +0.000 A 
ATOM     21  C   UNL     1      -1.710  11.307  19.160  0.00  0.00    +0.000 A 
ATOM     22  C   UNL     1      -1.236  12.567  18.839  0.00  0.00    +0.000 A 
ATOM     23  C   UNL     1       0.119  12.741  18.587  0.00  0.00    +0.000 A 
ATOM     24  C   UNL     1       1.005  11.653  18.656  0.00  0.00    +0.000 A 
ATOM     25 CL   UNL     1       2.628  12.009  18.144  0.00  0.00    +0.000 Cl
ENDBRANCH   4  19
TORSDOF 3
ENDMDL
MODEL 2
REMARK VINA RESULT:      -6.6      1.340      1.985
REMARK  Name = 
REMARK  3 active torsions:
REMARK  status: ('A' for Active; 'I' for Inactive)
REMARK    1  A    between atoms: C_5  and  N_6
REMARK    2  A    between atoms: N_9  and  C_10
REMARK    3  A    between atoms: C_19  and  N_20
REMARK                            x       y       z     vdW  Elec       q    Type
REMARK                         _______ _______ _______ _____ _____    ______ ____
ROOT
ATOM      1  N   UNL     1       2.581   7.120  19.389  0.00  0.00    +0.000 N 
ATOM      2  C   UNL     1       2.811   7.932  18.188  0.00  0.00    +0.000 C 
ATOM      3  C   UNL     1       1.500   8.650  17.788  0.00  0.00    +0.000 C 
ATOM      4  N   UNL     1       0.934   9.397  18.928  0.00  0.00    +0.000 N 
ATOM      5  C   UNL     1       0.765   8.599  20.167  0.00  0.00    +0.000 C 
ATOM      6  C   UNL     1       2.089   7.892  20.546  0.00  0.00    +0.000 C 
ENDROOT
BRANCH   1  11
ATOM      7  N   UNL     1       4.728   2.073  19.595  0.00  0.00    +0.000 N 
ATOM      8  C   UNL     1       4.211   3.352  19.604  0.00  0.00    +0.000 A 
ATOM      9  N   UNL     1       5.002   4.338  19.186  0.00  0.00    +0.000 NA
ATOM     10  C   UNL     1       4.449   5.569  19.161  0.00  0.00    +0.000 A 
ATOM     11  C   UNL     1       3.154   5.874  19.538  0.00  0.00    +0.000 A 
ATOM     12  C   UNL     1       2.452   4.748  19.987  0.00  0.00    +0.000 A 
ATOM     13  N   UNL     1       2.962   3.505  20.044  0.00  0.00    +0.000 NA
ATOM     14  H   UNL     1       5.734   2.111  19.653  0.00  0.00    +0.000 HD
ATOM     15  H   UNL     1       4.238   1.502  20.269  0.00  0.00    +0.000 HD
BRANCH  12  16
ATOM     16  N   UNL     1       1.099   4.846  20.365  0.00  0.00    +0.000 N 
ATOM     17  H   UNL     1       0.535   4.399  19.650  0.00  0.00    +0.000 HD
ATOM     18  H   UNL     1       1.015   4.397  21.271  0.00  0.00    +0.000 HD
ENDBRANCH  12  16
ENDBRANCH   1  11
BRANCH   4  19
ATOM     19  C   UNL     1       0.454  10.692  18.810  0.00  0.00    +0.000 A 
ATOM     20  C   UNL     1       1.319  11.763  19.116  0.00  0.00    +0.000 A 
ATOM     21  C   UNL     1       0.957  13.104  18.954  0.00  0.00    +0.000 A 
ATOM     22  C   UNL     1      -0.298  13.426  18.466  0.00  0.00    +0.000 A 
ATOM     23  C   UNL     1      -1.194  12.407  18.168  0.00  0.00    +0.000 A 
ATOM     24  C   UNL     1      -0.837  11.061  18.358  0.00  0.00    +0.000 A 
ATOM     25 CL   UNL     1      -2.130   9.928  18.103  0.00  0.00    +0.000 Cl
ENDBRANCH   4  19
TORSDOF 3
ENDMDL
MODEL 3
REMARK VINA RESULT:      -6.6      2.610      7.676
REMARK  Name = 
REMARK  3 active torsions:
REMARK  status: ('A' for Active; 'I' for Inactive)
REMARK    1  A    between atoms: C_5  and  N_6
REMARK    2  A    between atoms: N_9  and  C_10
REMARK    3  A    between atoms: C_19  and  N_20
REMARK                            x       y       z     vdW  Elec       q    Type
REMARK                         _______ _______ _______ _____ _____    ______ ____
ROOT
ATOM      1  N   UNL     1       0.987   9.686  19.101  0.00  0.00    +0.000 N 
ATOM      2  C   UNL     1       1.352   8.779  18.007  0.00  0.00    +0.000 C 
ATOM      3  C   UNL     1       2.497   7.844  18.467  0.00  0.00    +0.000 C 
ATOM      4  N   UNL     1       2.153   7.166  19.732  0.00  0.00    +0.000 N 
ATOM      5  C   UNL     1       1.714   8.072  20.821  0.00  0.00    +0.000 C 
ATOM      6  C   UNL     1       0.569   8.995  20.336  0.00  0.00    +0.000 C 
ENDROOT
BRANCH   1  11
ATOM      7  N   UNL     1      -0.390  14.972  18.570  0.00  0.00    +0.000 N 
ATOM      8  C   UNL     1      -0.027  13.644  18.640  0.00  0.00    +0.000 A 
ATOM      9  N   UNL     1       1.240  13.368  18.943  0.00  0.00    +0.000 NA
ATOM     10  C   UNL     1       1.550  12.059  19.051  0.00  0.00    +0.000 A 
ATOM     11  C   UNL     1       0.670  11.008  18.867  0.00  0.00    +0.000 A 
ATOM     12  C   UNL     1      -0.615  11.446  18.521  0.00  0.00    +0.000 A 
ATOM     13  N   UNL     1      -0.970  12.736  18.386  0.00  0.00    +0.000 NA
ATOM     14  H   UNL     1       0.420  15.538  18.367  0.00  0.00    +0.000 HD
ATOM     15  H   UNL     1      -1.198  15.074  17.972  0.00  0.00    +0.000 HD
BRANCH  12  16
ATOM     16  N   UNL     1      -1.666  10.526  18.343  0.00  0.00    +0.000 N 
ATOM     17  H   UNL     1      -2.499  10.904  18.782  0.00  0.00    +0.000 HD
ATOM     18  H   UNL     1      -1.774  10.394  17.342  0.00  0.00    +0.000 HD
ENDBRANCH  12  16
ENDBRANCH   1  11
BRANCH   4  19
ATOM     19  C   UNL     1       2.369   5.812  19.938  0.00  0.00    +0.000 A 
ATOM     20  C   UNL     1       1.356   5.054  20.560  0.00  0.00    +0.000 A 
ATOM     21  C   UNL     1       1.444   3.670  20.742  0.00  0.00    +0.000 A 
ATOM     22  C   UNL     1       2.560   2.984  20.292  0.00  0.00    +0.000 A 
ATOM     23  C   UNL     1       3.594   3.689  19.690  0.00  0.00    +0.000 A 
ATOM     24  C   UNL     1       3.515   5.083  19.534  0.00  0.00    +0.000 A 
ATOM     25 CL   UNL     1       4.963   5.825  18.922  0.00  0.00    +0.000 Cl
ENDBRANCH   4  19
TORSDOF 3
ENDMDL
MODEL 4
REMARK VINA RESULT:      -6.5      0.683      1.511
REMARK  Name = 
REMARK  3 active torsions:
REMARK  status: ('A' for Active; 'I' for Inactive)
REMARK    1  A    between atoms: C_5  and  N_6
REMARK    2  A    between atoms: N_9  and  C_10
REMARK    3  A    between atoms: C_19  and  N_20
REMARK                            x       y       z     vdW  Elec       q    Type
REMARK                         _______ _______ _______ _____ _____    ______ ____
ROOT
ATOM      1  N   UNL     1       2.373   6.214  19.340  0.00  0.00    +0.000 N 
ATOM      2  C   UNL     1       1.577   6.730  20.460  0.00  0.00    +0.000 C 
ATOM      3  C   UNL     1       1.766   8.262  20.570  0.00  0.00    +0.000 C 
ATOM      4  N   UNL     1       1.500   8.924  19.278  0.00  0.00    +0.000 N 
ATOM      5  C   UNL     1       2.249   8.361  18.129  0.00  0.00    +0.000 C 
ATOM      6  C   UNL     1       2.042   6.829  18.040  0.00  0.00    +0.000 C 
ENDROOT
BRANCH   1  11
ATOM      7  N   UNL     1       5.156   1.540  20.066  0.00  0.00    +0.000 N 
ATOM      8  C   UNL     1       4.441   2.694  19.823  0.00  0.00    +0.000 A 
ATOM      9  N   UNL     1       3.145   2.689  20.130  0.00  0.00    +0.000 NA
ATOM     10  C   UNL     1       2.485   3.849  19.925  0.00  0.00    +0.000 A 
ATOM     11  C   UNL     1       3.043   5.012  19.425  0.00  0.00    +0.000 A 
ATOM     12  C   UNL     1       4.401   4.859  19.116  0.00  0.00    +0.000 A 
ATOM     13  N   UNL     1       5.099   3.722  19.287  0.00  0.00    +0.000 NA
ATOM     14  H   UNL     1       4.534   0.746  20.065  0.00  0.00    +0.000 HD
ATOM     15  H   UNL     1       5.965   1.506  19.461  0.00  0.00    +0.000 HD
BRANCH  12  16
ATOM     16  N   UNL     1       5.159   5.948  18.643  0.00  0.00    +0.000 N 
ATOM     17  H   UNL     1       5.693   6.326  19.419  0.00  0.00    +0.000 HD
ATOM     18  H   UNL     1       5.747   5.593  17.896  0.00  0.00    +0.000 HD
ENDBRANCH  12  16
ENDBRANCH   1  11
BRANCH   4  19
ATOM     19  C   UNL     1       0.735  10.075  19.171  0.00  0.00    +0.000 A 
ATOM     20  C   UNL     1      -0.604  10.040  19.613  0.00  0.00    +0.000 A 
ATOM     21  C   UNL     1      -1.433  11.165  19.620  0.00  0.00    +0.000 A 
ATOM     22  C   UNL     1      -0.943  12.386  19.188  0.00  0.00    +0.000 A 
ATOM     23  C   UNL     1       0.364  12.469  18.724  0.00  0.00    +0.000 A 
ATOM     24  C   UNL     1       1.186  11.330  18.692  0.00  0.00    +0.000 A 
ATOM     25 CL   UNL     1       2.726  11.572  17.924  0.00  0.00    +0.000 Cl
ENDBRANCH   4  19
TORSDOF 3
ENDMDL
MODEL 5
REMARK VINA RESULT:      -6.4      2.769      3.633
REMARK  Name = 
REMARK  3 active torsions:
REMARK  status: ('A' for Active; 'I' for Inactive)
REMARK    1  A    between atoms: C_5  and  N_6
REMARK    2  A    between atoms: N_9  and  C_10
REMARK    3  A    between atoms: C_19  and  N_20
REMARK                            x       y       z     vdW  Elec       q    Type
REMARK                         _______ _______ _______ _____ _____    ______ ____
ROOT
ATOM      1  N   UNL     1       3.761   6.612  17.894  0.00  0.00    +0.000 N 
ATOM      2  C   UNL     1       3.444   8.014  17.594  0.00  0.00    +0.000 C 
ATOM      3  C   UNL     1       1.988   8.320  18.017  0.00  0.00    +0.000 C 
ATOM      4  N   UNL     1       1.748   7.928  19.419  0.00  0.00    +0.000 N 
ATOM      5  C   UNL     1       2.132   6.533  19.746  0.00  0.00    +0.000 C 
ATOM      6  C   UNL     1       3.592   6.254  19.315  0.00  0.00    +0.000 C 
ENDROOT
BRANCH   1  11
ATOM      7  N   UNL     1       6.514   3.654  14.180  0.00  0.00    +0.000 N 
ATOM      8  C   UNL     1       5.867   4.380  15.158  0.00  0.00    +0.000 A 
ATOM      9  N   UNL     1       6.232   5.650  15.323  0.00  0.00    +0.000 NA
ATOM     10  C   UNL     1       5.546   6.346  16.254  0.00  0.00    +0.000 A 
ATOM     11  C   UNL     1       4.522   5.845  17.036  0.00  0.00    +0.000 A 
ATOM     12  C   UNL     1       4.271   4.491  16.779  0.00  0.00    +0.000 A 
ATOM     13  N   UNL     1       4.935   3.751  15.874  0.00  0.00    +0.000 NA
ATOM     14  H   UNL     1       7.423   4.053  14.004  0.00  0.00    +0.000 HD
ATOM     15  H   UNL     1       6.466   2.668  14.399  0.00  0.00    +0.000 HD
BRANCH  12  16
ATOM     16  N   UNL     1       3.228   3.814  17.440  0.00  0.00    +0.000 N 
ATOM     17  H   UNL     1       2.467   4.469  17.591  0.00  0.00    +0.000 HD
ATOM     18  H   UNL     1       2.963   3.034  16.848  0.00  0.00    +0.000 HD
ENDBRANCH  12  16
ENDBRANCH   1  11
BRANCH   4  19
ATOM     19  C   UNL     1       1.077   8.742  20.319  0.00  0.00    +0.000 A 
ATOM     20  C   UNL     1       1.282   8.535  21.699  0.00  0.00    +0.000 A 
ATOM     21  C   UNL     1       0.715   9.351  22.683  0.00  0.00    +0.000 A 
ATOM     22  C   UNL     1      -0.082  10.422  22.317  0.00  0.00    +0.000 A 
ATOM     23  C   UNL     1      -0.330  10.656  20.970  0.00  0.00    +0.000 A 
ATOM     24  C   UNL     1       0.218   9.819  19.984  0.00  0.00    +0.000 A 
ATOM     25 CL   UNL     1      -0.332  10.147  18.368  0.00  0.00    +0.000 Cl
ENDBRANCH   4  19
TORSDOF 3
ENDMDL
MODEL 6
REMARK VINA RESULT:      -6.4      1.327      2.001
REMARK  Name = 
REMARK  3 active torsions:
REMARK  status: ('A' for Active; 'I' for Inactive)
REMARK    1  A    between atoms: C_5  and  N_6
REMARK    2  A    between atoms: N_9  and  C_10
REMARK    3  A    between atoms: C_19  and  N_20
REMARK                            x       y       z     vdW  Elec       q    Type
REMARK                         _______ _______ _______ _____ _____    ______ ____
ROOT
ATOM      1  N   UNL     1       2.328   6.181  19.564  0.00  0.00    +0.000 N 
ATOM      2  C   UNL     1       1.439   6.573  20.664  0.00  0.00    +0.000 C 
ATOM      3  C   UNL     1       1.608   8.084  20.955  0.00  0.00    +0.000 C 
ATOM      4  N   UNL     1       1.443   8.883  19.725  0.00  0.00    +0.000 N 
ATOM      5  C   UNL     1       2.287   8.446  18.586  0.00  0.00    +0.000 C 
ATOM      6  C   UNL     1       2.100   6.933  18.316  0.00  0.00    +0.000 C 
ENDROOT
BRANCH   1  11
ATOM      7  N   UNL     1       5.114   1.471  19.991  0.00  0.00    +0.000 N 
ATOM      8  C   UNL     1       4.397   2.638  19.823  0.00  0.00    +0.000 A 
ATOM      9  N   UNL     1       3.105   2.616  20.142  0.00  0.00    +0.000 NA
ATOM     10  C   UNL     1       2.444   3.786  20.011  0.00  0.00    +0.000 A 
ATOM     11  C   UNL     1       2.998   4.975  19.573  0.00  0.00    +0.000 A 
ATOM     12  C   UNL     1       4.353   4.840  19.242  0.00  0.00    +0.000 A 
ATOM     13  N   UNL     1       5.051   3.694  19.340  0.00  0.00    +0.000 NA
ATOM     14  H   UNL     1       4.491   0.679  19.952  0.00  0.00    +0.000 HD
ATOM     15  H   UNL     1       5.916   1.472  19.377  0.00  0.00    +0.000 HD
BRANCH  12  16
ATOM     16  N   UNL     1       5.107   5.954  18.824  0.00  0.00    +0.000 N 
ATOM     17  H   UNL     1       5.177   5.929  17.812  0.00  0.00    +0.000 HD
ATOM     18  H   UNL     1       4.624   6.779  19.165  0.00  0.00    +0.000 HD
ENDBRANCH  12  16
ENDBRANCH   1  11
BRANCH   4  19
ATOM     19  C   UNL     1       0.681  10.039  19.681  0.00  0.00    +0.000 A 
ATOM     20  C   UNL     1       0.813  10.976  20.728  0.00  0.00    +0.000 A 
ATOM     21  C   UNL     1       0.148  12.206  20.736  0.00  0.00    +0.000 A 
ATOM     22  C   UNL     1      -0.676  12.553  19.679  0.00  0.00    +0.000 A 
ATOM     23  C   UNL     1      -0.855  11.656  18.633  0.00  0.00    +0.000 A 
ATOM     24  C   UNL     1      -0.208  10.409  18.641  0.00  0.00    +0.000 A 
ATOM     25 CL   UNL     1      -0.675   9.344  17.348  0.00  0.00    +0.000 Cl
ENDBRANCH   4  19
TORSDOF 3
ENDMDL
MODEL 7
REMARK VINA RESULT:      -6.4      2.804      7.506
REMARK  Name = 
REMARK  3 active torsions:
REMARK  status: ('A' for Active; 'I' for Inactive)
REMARK    1  A    between atoms: C_5  and  N_6
REMARK    2  A    between atoms: N_9  and  C_10
REMARK    3  A    between atoms: C_19  and  N_20
REMARK                            x       y       z     vdW  Elec       q    Type
REMARK                         _______ _______ _______ _____ _____    ______ ____
ROOT
ATOM      1  N   UNL     1       1.066   9.591  19.425  0.00  0.00    +0.000 N 
ATOM      2  C   UNL     1       1.293   9.345  17.996  0.00  0.00    +0.000 C 
ATOM      3  C   UNL     1       2.560   8.475  17.813  0.00  0.00    +0.000 C 
ATOM      4  N   UNL     1       2.489   7.254  18.638  0.00  0.00    +0.000 N 
ATOM      5  C   UNL     1       2.190   7.492  20.071  0.00  0.00    +0.000 C 
ATOM      6  C   UNL     1       0.919   8.362  20.226  0.00  0.00    +0.000 C 
ENDROOT
BRANCH   1  11
ATOM      7  N   UNL     1      -0.837  14.262  21.591  0.00  0.00    +0.000 N 
ATOM      8  C   UNL     1      -0.336  13.123  20.995  0.00  0.00    +0.000 A 
ATOM      9  N   UNL     1       0.923  12.788  21.271  0.00  0.00    +0.000 NA
ATOM     10  C   UNL     1       1.366  11.642  20.711  0.00  0.00    +0.000 A 
ATOM     11  C   UNL     1       0.626  10.815  19.885  0.00  0.00    +0.000 A 
ATOM     12  C   UNL     1      -0.665  11.309  19.657  0.00  0.00    +0.000 A 
ATOM     13  N   UNL     1      -1.147  12.451  20.178  0.00  0.00    +0.000 NA
ATOM     14  H   UNL     1      -0.080  14.885  21.826  0.00  0.00    +0.000 HD
ATOM     15  H   UNL     1      -1.597  14.630  21.036  0.00  0.00    +0.000 HD
BRANCH  12  16
ATOM     16  N   UNL     1      -1.588  10.581  18.882  0.00  0.00    +0.000 N 
ATOM     17  H   UNL     1      -1.350  10.703  17.903  0.00  0.00    +0.000 HD
ATOM     18  H   UNL     1      -1.526   9.614  19.184  0.00  0.00    +0.000 HD
ENDBRANCH  12  16
ENDBRANCH   1  11
BRANCH   4  19
ATOM     19  C   UNL     1       2.827   6.001  18.151  0.00  0.00    +0.000 A 
ATOM     20  C   UNL     1       1.868   4.969  18.218  0.00  0.00    +0.000 A 
ATOM     21  C   UNL     1       2.083   3.695  17.684  0.00  0.00    +0.000 A 
ATOM     22  C   UNL     1       3.277   3.406  17.046  0.00  0.00    +0.000 A 
ATOM     23  C   UNL     1       4.262   4.383  16.970  0.00  0.00    +0.000 A 
ATOM     24  C   UNL     1       4.054   5.653  17.532  0.00  0.00    +0.000 A 
ATOM     25 CL   UNL     1       5.447   6.693  17.502  0.00  0.00    +0.000 Cl
ENDBRANCH   4  19
TORSDOF 3
ENDMDL
MODEL 8
REMARK VINA RESULT:      -6.4      2.715      7.839
REMARK  Name = 
REMARK  3 active torsions:
REMARK  status: ('A' for Active; 'I' for Inactive)
REMARK    1  A    between atoms: C_5  and  N_6
REMARK    2  A    between atoms: N_9  and  C_10
REMARK    3  A    between atoms: C_19  and  N_20
REMARK                            x       y       z     vdW  Elec       q    Type
REMARK                         _______ _______ _______ _____ _____    ______ ____
ROOT
ATOM      1  N   UNL     1       0.917  10.074  19.272  0.00  0.00    +0.000 N 
ATOM      2  C   UNL     1       1.156   9.272  18.066  0.00  0.00    +0.000 C 
ATOM      3  C   UNL     1       2.330   8.295  18.317  0.00  0.00    +0.000 C 
ATOM      4  N   UNL     1       2.108   7.502  19.541  0.00  0.00    +0.000 N 
ATOM      5  C   UNL     1       1.795   8.304  20.749  0.00  0.00    +0.000 C 
ATOM      6  C   UNL     1       0.619   9.271  20.473  0.00  0.00    +0.000 C 
ENDROOT
BRANCH   1  11
ATOM      7  N   UNL     1      -0.555  15.319  18.602  0.00  0.00    +0.000 N 
ATOM      8  C   UNL     1      -0.156  14.018  18.827  0.00  0.00    +0.000 A 
ATOM      9  N   UNL     1      -0.978  13.235  19.523  0.00  0.00    +0.000 NA
ATOM     10  C   UNL     1      -0.580  11.955  19.683  0.00  0.00    +0.000 A 
ATOM     11  C   UNL     1       0.595  11.413  19.195  0.00  0.00    +0.000 A 
ATOM     12  C   UNL     1       1.373  12.359  18.515  0.00  0.00    +0.000 A 
ATOM     13  N   UNL     1       1.029  13.647  18.342  0.00  0.00    +0.000 NA
ATOM     14  H   UNL     1      -1.207  15.605  19.317  0.00  0.00    +0.000 HD
ATOM     15  H   UNL     1       0.255  15.901  18.443  0.00  0.00    +0.000 HD
BRANCH  12  16
ATOM     16  N   UNL     1       2.584  11.987  17.900  0.00  0.00    +0.000 N 
ATOM     17  H   UNL     1       2.368  11.553  17.008  0.00  0.00    +0.000 HD
ATOM     18  H   UNL     1       3.136  12.833  17.802  0.00  0.00    +0.000 HD
ENDBRANCH  12  16
ENDBRANCH   1  11
BRANCH   4  19
ATOM     19  C   UNL     1       2.326   6.134  19.597  0.00  0.00    +0.000 A 
ATOM     20  C   UNL     1       1.497   5.351  20.427  0.00  0.00    +0.000 A 
ATOM     21  C   UNL     1       1.584   3.957  20.492  0.00  0.00    +0.000 A 
ATOM     22  C   UNL     1       2.511   3.286  19.712  0.00  0.00    +0.000 A 
ATOM     23  C   UNL     1       3.364   4.013  18.892  0.00  0.00    +0.000 A 
ATOM     24  C   UNL     1       3.293   5.416  18.849  0.00  0.00    +0.000 A 
ATOM     25 CL   UNL     1       4.542   6.175  17.909  0.00  0.00    +0.000 Cl
ENDBRANCH   4  19
TORSDOF 3
ENDMDL
MODEL 9
REMARK VINA RESULT:      -6.4      1.191      1.388
REMARK  Name = 
REMARK  3 active torsions:
REMARK  status: ('A' for Active; 'I' for Inactive)
REMARK    1  A    between atoms: C_5  and  N_6
REMARK    2  A    between atoms: N_9  and  C_10
REMARK    3  A    between atoms: C_19  and  N_20
REMARK                            x       y       z     vdW  Elec       q    Type
REMARK                         _______ _______ _______ _____ _____    ______ ____
ROOT
ATOM      1  N   UNL     1       2.246   6.839  19.592  0.00  0.00    +0.000 N 
ATOM      2  C   UNL     1       1.381   7.301  20.685  0.00  0.00    +0.000 C 
ATOM      3  C   UNL     1       1.510   8.835  20.837  0.00  0.00    +0.000 C 
ATOM      4  N   UNL     1       1.281   9.518  19.549  0.00  0.00    +0.000 N 
ATOM      5  C   UNL     1       2.102   9.007  18.423  0.00  0.00    +0.000 C 
ATOM      6  C   UNL     1       1.954   7.472  18.292  0.00  0.00    +0.000 C 
ENDROOT
BRANCH   1  11
ATOM      7  N   UNL     1       4.961   2.069  19.553  0.00  0.00    +0.000 N 
ATOM      8  C   UNL     1       4.297   3.276  19.626  0.00  0.00    +0.000 A 
ATOM      9  N   UNL     1       4.984   4.375  19.322  0.00  0.00    +0.000 NA
ATOM     10  C   UNL     1       4.292   5.533  19.356  0.00  0.00    +0.000 A 
ATOM     11  C   UNL     1       2.954   5.659  19.683  0.00  0.00    +0.000 A 
ATOM     12  C   UNL     1       2.370   4.429  20.011  0.00  0.00    +0.000 A 
ATOM     13  N   UNL     1       3.020   3.251  20.007  0.00  0.00    +0.000 NA
ATOM     14  H   UNL     1       5.952   2.217  19.668  0.00  0.00    +0.000 HD
ATOM     15  H   UNL     1       4.511   1.395  20.157  0.00  0.00    +0.000 HD
BRANCH  12  16
ATOM     16  N   UNL     1       0.999   4.343  20.322  0.00  0.00    +0.000 N 
ATOM     17  H   UNL     1       0.800   5.003  21.067  0.00  0.00    +0.000 HD
ATOM     18  H   UNL     1       0.491   4.548  19.468  0.00  0.00    +0.000 HD
ENDBRANCH  12  16
ENDBRANCH   1  11
BRANCH   4  19
ATOM     19  C   UNL     1       0.481  10.644  19.430  0.00  0.00    +0.000 A 
ATOM     20  C   UNL     1       0.705  11.727  20.305  0.00  0.00    +0.000 A 
ATOM     21  C   UNL     1       0.006  12.934  20.216  0.00  0.00    +0.000 A 
ATOM     22  C   UNL     1      -0.949  13.108  19.229  0.00  0.00    +0.000 A 
ATOM     23  C   UNL     1      -1.221  12.064  18.354  0.00  0.00    +0.000 A 
ATOM     24  C   UNL     1      -0.537  10.841  18.464  0.00  0.00    +0.000 A 
ATOM     25 CL   UNL     1      -1.119   9.590  17.407  0.00  0.00    +0.000 Cl
ENDBRANCH   4  19
TORSDOF 3
ENDMDL
