MODEL 1
REMARK VINA RESULT:      -7.2      0.000      0.000
REMARK  Name = 
REMARK  9 active torsions:
REMARK  status: ('A' for Active; 'I' for Inactive)
REMARK    1  A    between atoms: C_1  and  C_2
REMARK    2  A    between atoms: C_2  and  C_3
REMARK    3  A    between atoms: C_3  and  N_4
REMARK    4  A    between atoms: N_4  and  C_5
REMARK    5  A    between atoms: C_5  and  C_6
REMARK    6  A    between atoms: C_6  and  C_7
REMARK    7  A    between atoms: C_12  and  C_13
REMARK    8  A    between atoms: C_18  and  O_19
REMARK    9  A    between atoms: O_19  and  C_20
REMARK                            x       y       z     vdW  Elec       q    Type
REMARK                         _______ _______ _______ _____ _____    ______ ____
ROOT
ATOM      1  C   UNL     1       5.621   4.534  15.435  0.00  0.00    +0.000 A 
ATOM      2  C   UNL     1       6.956   4.788  15.749  0.00  0.00    +0.000 A 
ATOM      3  C   UNL     1       7.325   5.066  17.056  0.00  0.00    +0.000 A 
ATOM      4  C   UNL     1       6.374   5.105  18.081  0.00  0.00    +0.000 A 
ATOM      5 CL   UNL     1       7.033   5.377  19.695  0.00  0.00    +0.000 Cl
ATOM      6  C   UNL     1       4.992   4.868  17.791  0.00  0.00    +0.000 A 
ATOM      7  C   UNL     1       4.649   4.583  16.449  0.00  0.00    +0.000 A 
ENDROOT
BRANCH   6   8
ATOM      8  C   UNL     1       3.905   4.939  18.847  0.00  0.00    +0.000 A 
ATOM      9  C   UNL     1       3.259   6.171  19.095  0.00  0.00    +0.000 A 
ATOM     10  C   UNL     1       2.245   6.290  20.042  0.00  0.00    +0.000 A 
ATOM     11  C   UNL     1       1.839   5.182  20.770  0.00  0.00    +0.000 A 
ATOM     12  C   UNL     1       2.437   3.949  20.547  0.00  0.00    +0.000 A 
ATOM     13  C   UNL     1       3.467   3.797  19.589  0.00  0.00    +0.000 A 
BRANCH  13  14
ATOM     14  O   UNL     1       4.054   2.587  19.389  0.00  0.00    +0.000 OA
ATOM     15  C   UNL     1       3.580   1.573  18.576  0.00  0.00    +0.000 C 
ENDBRANCH  13  14
ENDBRANCH   6   8
BRANCH   1  16
ATOM     16  C   UNL     1       5.226   4.263  14.008  0.00  0.00    +0.000 C 
BRANCH  16  17
ATOM     17  C   UNL     1       6.306   3.411  13.346  0.00  0.00    +0.000 C 
BRANCH  17  18
ATOM     18  N   UNL     1       5.822   2.817  12.095  0.00  0.00    +0.000 NA
ATOM     19  H   UNL     1       6.634   2.683  11.448  0.00  0.00    +0.000 HD
BRANCH  18  20
ATOM     20  C   UNL     1       4.870   3.741  11.468  0.00  0.00    +0.000 C 
BRANCH  20  22
ATOM     21  C   UNL     1       3.004   3.811   9.802  0.00  0.00    +0.000 C 
ATOM     22  C   UNL     1       3.664   2.989  10.905  0.00  0.00    +0.000 C 
ENDBRANCH  20  22
ENDBRANCH  18  20
ENDBRANCH  17  18
ENDBRANCH  16  17
ENDBRANCH   1  16
TORSDOF 7
ENDMDL
MODEL 2
REMARK VINA RESULT:      -7.2      3.317      6.286
REMARK  Name = 
REMARK  9 active torsions:
REMARK  status: ('A' for Active; 'I' for Inactive)
REMARK    1  A    between atoms: C_1  and  C_2
REMARK    2  A    between atoms: C_2  and  C_3
REMARK    3  A    between atoms: C_3  and  N_4
REMARK    4  A    between atoms: N_4  and  C_5
REMARK    5  A    between atoms: C_5  and  C_6
REMARK    6  A    between atoms: C_6  and  C_7
REMARK    7  A    between atoms: C_12  and  C_13
REMARK    8  A    between atoms: C_18  and  O_19
REMARK    9  A    between atoms: O_19  and  C_20
REMARK                            x       y       z     vdW  Elec       q    Type
REMARK                         _______ _______ _______ _____ _____    ______ ____
ROOT
ATOM      1  C   UNL     1       2.541   4.832  20.629  0.00  0.00    +0.000 A 
ATOM      2  C   UNL     1       1.909   6.075  20.605  0.00  0.00    +0.000 A 
ATOM      3  C   UNL     1       2.240   7.008  19.634  0.00  0.00    +0.000 A 
ATOM      4  C   UNL     1       3.212   6.729  18.668  0.00  0.00    +0.000 A 
ATOM      5 CL   UNL     1       3.437   7.990  17.454  0.00  0.00    +0.000 Cl
ATOM      6  C   UNL     1       3.895   5.471  18.676  0.00  0.00    +0.000 A 
ATOM      7  C   UNL     1       3.531   4.539  19.676  0.00  0.00    +0.000 A 
ENDROOT
BRANCH   6   8
ATOM      8  C   UNL     1       4.991   5.121  17.686  0.00  0.00    +0.000 A 
ATOM      9  C   UNL     1       4.655   4.890  16.333  0.00  0.00    +0.000 A 
ATOM     10  C   UNL     1       5.621   4.579  15.381  0.00  0.00    +0.000 A 
ATOM     11  C   UNL     1       6.957   4.494  15.745  0.00  0.00    +0.000 A 
ATOM     12  C   UNL     1       7.332   4.728  17.061  0.00  0.00    +0.000 A 
ATOM     13  C   UNL     1       6.372   5.049  18.050  0.00  0.00    +0.000 A 
BRANCH  13  14
ATOM     14  O   UNL     1       6.751   5.264  19.338  0.00  0.00    +0.000 OA
ATOM     15  C   UNL     1       8.016   5.621  19.770  0.00  0.00    +0.000 C 
ENDBRANCH  13  14
ENDBRANCH   6   8
BRANCH   1  16
ATOM     16  C   UNL     1       2.197   3.839  21.706  0.00  0.00    +0.000 C 
BRANCH  16  17
ATOM     17  C   UNL     1       1.583   2.597  21.060  0.00  0.00    +0.000 C 
BRANCH  17  18
ATOM     18  N   UNL     1       0.396   2.941  20.270  0.00  0.00    +0.000 NA
ATOM     19  H   UNL     1      -0.434   2.447  20.676  0.00  0.00    +0.000 HD
BRANCH  18  20
ATOM     20  C   UNL     1       0.591   2.475  18.892  0.00  0.00    +0.000 C 
BRANCH  20  22
ATOM     21  C   UNL     1       2.637   2.076  17.508  0.00  0.00    +0.000 C 
ATOM     22  C   UNL     1       1.878   1.660  18.765  0.00  0.00    +0.000 C 
ENDBRANCH  20  22
ENDBRANCH  18  20
ENDBRANCH  17  18
ENDBRANCH  16  17
ENDBRANCH   1  16
TORSDOF 7
ENDMDL
MODEL 3
REMARK VINA RESULT:      -7.1      1.944      2.812
REMARK  Name = 
REMARK  9 active torsions:
REMARK  status: ('A' for Active; 'I' for Inactive)
REMARK    1  A    between atoms: C_1  and  C_2
REMARK    2  A    between atoms: C_2  and  C_3
REMARK    3  A    between atoms: C_3  and  N_4
REMARK    4  A    between atoms: N_4  and  C_5
REMARK    5  A    between atoms: C_5  and  C_6
REMARK    6  A    between atoms: C_6  and  C_7
REMARK    7  A    between atoms: C_12  and  C_13
REMARK    8  A    between atoms: C_18  and  O_19
REMARK    9  A    between atoms: O_19  and  C_20
REMARK                            x       y       z     vdW  Elec       q    Type
REMARK                         _______ _______ _______ _____ _____    ______ ____
ROOT
ATOM      1  C   UNL     1       6.517   4.731  15.215  0.00  0.00    +0.000 A 
ATOM      2  C   UNL     1       7.409   5.392  16.060  0.00  0.00    +0.000 A 
ATOM      3  C   UNL     1       7.121   5.526  17.410  0.00  0.00    +0.000 A 
ATOM      4  C   UNL     1       5.938   5.012  17.949  0.00  0.00    +0.000 A 
ATOM      5 CL   UNL     1       5.780   5.188  19.698  0.00  0.00    +0.000 Cl
ATOM      6  C   UNL     1       4.992   4.345  17.107  0.00  0.00    +0.000 A 
ATOM      7  C   UNL     1       5.316   4.221  15.736  0.00  0.00    +0.000 A 
ENDROOT
BRANCH   6   8
ATOM      8  C   UNL     1       3.669   3.804  17.618  0.00  0.00    +0.000 A 
ATOM      9  C   UNL     1       3.498   2.408  17.754  0.00  0.00    +0.000 A 
ATOM     10  C   UNL     1       2.311   1.859  18.231  0.00  0.00    +0.000 A 
ATOM     11  C   UNL     1       1.256   2.684  18.593  0.00  0.00    +0.000 A 
ATOM     12  C   UNL     1       1.389   4.063  18.488  0.00  0.00    +0.000 A 
ATOM     13  C   UNL     1       2.584   4.650  18.010  0.00  0.00    +0.000 A 
BRANCH  13  14
ATOM     14  O   UNL     1       2.696   6.000  17.900  0.00  0.00    +0.000 OA
ATOM     15  C   UNL     1       2.581   6.917  18.930  0.00  0.00    +0.000 C 
ENDBRANCH  13  14
ENDBRANCH   6   8
BRANCH   1  16
ATOM     16  C   UNL     1       6.824   4.617  13.746  0.00  0.00    +0.000 C 
BRANCH  16  17
ATOM     17  C   UNL     1       5.920   3.552  13.129  0.00  0.00    +0.000 C 
BRANCH  17  18
ATOM     18  N   UNL     1       6.479   3.042  11.872  0.00  0.00    +0.000 NA
ATOM     19  H   UNL     1       6.391   3.783  11.138  0.00  0.00    +0.000 HD
BRANCH  18  20
ATOM     20  C   UNL     1       5.706   1.868  11.450  0.00  0.00    +0.000 C 
BRANCH  20  22
ATOM     21  C   UNL     1       6.001  -0.615  11.359  0.00  0.00    +0.000 C 
ATOM     22  C   UNL     1       6.628   0.732  11.009  0.00  0.00    +0.000 C 
ENDBRANCH  20  22
ENDBRANCH  18  20
ENDBRANCH  17  18
ENDBRANCH  16  17
ENDBRANCH   1  16
TORSDOF 7
ENDMDL
MODEL 4
REMARK VINA RESULT:      -7.1      1.540      2.360
REMARK  Name = 
REMARK  9 active torsions:
REMARK  status: ('A' for Active; 'I' for Inactive)
REMARK    1  A    between atoms: C_1  and  C_2
REMARK    2  A    between atoms: C_2  and  C_3
REMARK    3  A    between atoms: C_3  and  N_4
REMARK    4  A    between atoms: N_4  and  C_5
REMARK    5  A    between atoms: C_5  and  C_6
REMARK    6  A    between atoms: C_6  and  C_7
REMARK    7  A    between atoms: C_12  and  C_13
REMARK    8  A    between atoms: C_18  and  O_19
REMARK    9  A    between atoms: O_19  and  C_20
REMARK                            x       y       z     vdW  Elec       q    Type
REMARK                         _______ _______ _______ _____ _____    ______ ____
ROOT
ATOM      1  C   UNL     1       6.243   4.575  14.613  0.00  0.00    +0.000 A 
ATOM      2  C   UNL     1       7.351   5.033  15.325  0.00  0.00    +0.000 A 
ATOM      3  C   UNL     1       7.298   5.137  16.708  0.00  0.00    +0.000 A 
ATOM      4  C   UNL     1       6.140   4.793  17.412  0.00  0.00    +0.000 A 
ATOM      5 CL   UNL     1       6.281   4.894  19.168  0.00  0.00    +0.000 Cl
ATOM      6  C   UNL     1       4.978   4.337  16.710  0.00  0.00    +0.000 A 
ATOM      7  C   UNL     1       5.065   4.239  15.302  0.00  0.00    +0.000 A 
ENDROOT
BRANCH   6   8
ATOM      8  C   UNL     1       3.676   3.991  17.409  0.00  0.00    +0.000 A 
ATOM      9  C   UNL     1       3.318   2.634  17.574  0.00  0.00    +0.000 A 
ATOM     10  C   UNL     1       2.142   2.260  18.219  0.00  0.00    +0.000 A 
ATOM     11  C   UNL     1       1.286   3.227  18.724  0.00  0.00    +0.000 A 
ATOM     12  C   UNL     1       1.607   4.572  18.596  0.00  0.00    +0.000 A 
ATOM     13  C   UNL     1       2.797   4.982  17.949  0.00  0.00    +0.000 A 
BRANCH  13  14
ATOM     14  O   UNL     1       3.093   6.303  17.818  0.00  0.00    +0.000 OA
ATOM     15  C   UNL     1       2.398   7.357  18.382  0.00  0.00    +0.000 C 
ENDBRANCH  13  14
ENDBRANCH   6   8
BRANCH   1  16
ATOM     16  C   UNL     1       6.300   4.495  13.111  0.00  0.00    +0.000 C 
BRANCH  16  17
ATOM     17  C   UNL     1       6.632   3.061  12.701  0.00  0.00    +0.000 C 
BRANCH  17  18
ATOM     18  N   UNL     1       5.526   2.453  11.954  0.00  0.00    +0.000 NA
ATOM     19  H   UNL     1       5.894   2.084  11.045  0.00  0.00    +0.000 HD
BRANCH  18  20
ATOM     20  C   UNL     1       4.522   3.485  11.668  0.00  0.00    +0.000 C 
BRANCH  20  22
ATOM     21  C   UNL     1       3.008   4.234   9.821  0.00  0.00    +0.000 C 
ATOM     22  C   UNL     1       3.558   3.025  10.574  0.00  0.00    +0.000 C 
ENDBRANCH  20  22
ENDBRANCH  18  20
ENDBRANCH  17  18
ENDBRANCH  16  17
ENDBRANCH   1  16
TORSDOF 7
ENDMDL
MODEL 5
REMARK VINA RESULT:      -6.9      1.132      1.989
REMARK  Name = 
REMARK  9 active torsions:
REMARK  status: ('A' for Active; 'I' for Inactive)
REMARK    1  A    between atoms: C_1  and  C_2
REMARK    2  A    between atoms: C_2  and  C_3
REMARK    3  A    between atoms: C_3  and  N_4
REMARK    4  A    between atoms: N_4  and  C_5
REMARK    5  A    between atoms: C_5  and  C_6
REMARK    6  A    between atoms: C_6  and  C_7
REMARK    7  A    between atoms: C_12  and  C_13
REMARK    8  A    between atoms: C_18  and  O_19
REMARK    9  A    between atoms: O_19  and  C_20
REMARK                            x       y       z     vdW  Elec       q    Type
REMARK                         _______ _______ _______ _____ _____    ______ ____
ROOT
ATOM      1  C   UNL     1       5.603   4.610  15.544  0.00  0.00    +0.000 A 
ATOM      2  C   UNL     1       6.873   5.121  15.814  0.00  0.00    +0.000 A 
ATOM      3  C   UNL     1       7.264   5.363  17.123  0.00  0.00    +0.000 A 
ATOM      4  C   UNL     1       6.398   5.108  18.192  0.00  0.00    +0.000 A 
ATOM      5 CL   UNL     1       7.093   5.382  19.791  0.00  0.00    +0.000 Cl
ATOM      6  C   UNL     1       5.081   4.602  17.949  0.00  0.00    +0.000 A 
ATOM      7  C   UNL     1       4.715   4.362  16.604  0.00  0.00    +0.000 A 
ENDROOT
BRANCH   6   8
ATOM      8  C   UNL     1       4.078   4.347  19.058  0.00  0.00    +0.000 A 
ATOM      9  C   UNL     1       3.962   3.048  19.603  0.00  0.00    +0.000 A 
ATOM     10  C   UNL     1       3.068   2.762  20.631  0.00  0.00    +0.000 A 
ATOM     11  C   UNL     1       2.263   3.763  21.153  0.00  0.00    +0.000 A 
ATOM     12  C   UNL     1       2.355   5.056  20.656  0.00  0.00    +0.000 A 
ATOM     13  C   UNL     1       3.257   5.378  19.615  0.00  0.00    +0.000 A 
BRANCH  13  14
ATOM     14  O   UNL     1       3.329   6.646  19.128  0.00  0.00    +0.000 OA
ATOM     15  C   UNL     1       2.398   7.261  18.311  0.00  0.00    +0.000 C 
ENDBRANCH  13  14
ENDBRANCH   6   8
BRANCH   1  16
ATOM     16  C   UNL     1       5.178   4.380  14.118  0.00  0.00    +0.000 C 
BRANCH  16  17
ATOM     17  C   UNL     1       6.327   3.723  13.356  0.00  0.00    +0.000 C 
BRANCH  17  18
ATOM     18  N   UNL     1       5.840   3.020  12.164  0.00  0.00    +0.000 NA
ATOM     19  H   UNL     1       6.324   3.411  11.321  0.00  0.00    +0.000 HD
BRANCH  18  20
ATOM     20  C   UNL     1       4.398   3.257  12.029  0.00  0.00    +0.000 C 
BRANCH  20  22
ATOM     21  C   UNL     1       3.211   4.072   9.983  0.00  0.00    +0.000 C 
ATOM     22  C   UNL     1       3.908   2.878  10.632  0.00  0.00    +0.000 C 
ENDBRANCH  20  22
ENDBRANCH  18  20
ENDBRANCH  17  18
ENDBRANCH  16  17
ENDBRANCH   1  16
TORSDOF 7
ENDMDL
MODEL 6
REMARK VINA RESULT:      -6.9      1.090      1.374
REMARK  Name = 
REMARK  9 active torsions:
REMARK  status: ('A' for Active; 'I' for Inactive)
REMARK    1  A    between atoms: C_1  and  C_2
REMARK    2  A    between atoms: C_2  and  C_3
REMARK    3  A    between atoms: C_3  and  N_4
REMARK    4  A    between atoms: N_4  and  C_5
REMARK    5  A    between atoms: C_5  and  C_6
REMARK    6  A    between atoms: C_6  and  C_7
REMARK    7  A    between atoms: C_12  and  C_13
REMARK    8  A    between atoms: C_18  and  O_19
REMARK    9  A    between atoms: O_19  and  C_20
REMARK                            x       y       z     vdW  Elec       q    Type
REMARK                         _______ _______ _______ _____ _____    ______ ____
ROOT
ATOM      1  C   UNL     1       5.849   4.313  15.599  0.00  0.00    +0.000 A 
ATOM      2  C   UNL     1       7.166   4.541  15.996  0.00  0.00    +0.000 A 
ATOM      3  C   UNL     1       7.449   4.908  17.303  0.00  0.00    +0.000 A 
ATOM      4  C   UNL     1       6.426   5.063  18.244  0.00  0.00    +0.000 A 
ATOM      5 CL   UNL     1       6.973   5.439  19.879  0.00  0.00    +0.000 Cl
ATOM      6  C   UNL     1       5.061   4.857  17.866  0.00  0.00    +0.000 A 
ATOM      7  C   UNL     1       4.807   4.479  16.527  0.00  0.00    +0.000 A 
ENDROOT
BRANCH   6   8
ATOM      8  C   UNL     1       3.901   5.052  18.825  0.00  0.00    +0.000 A 
ATOM      9  C   UNL     1       3.359   6.346  19.003  0.00  0.00    +0.000 A 
ATOM     10  C   UNL     1       2.287   6.579  19.859  0.00  0.00    +0.000 A 
ATOM     11  C   UNL     1       1.716   5.530  20.563  0.00  0.00    +0.000 A 
ATOM     12  C   UNL     1       2.208   4.241  20.406  0.00  0.00    +0.000 A 
ATOM     13  C   UNL     1       3.295   3.972  19.541  0.00  0.00    +0.000 A 
BRANCH  13  14
ATOM     14  O   UNL     1       3.776   2.708  19.406  0.00  0.00    +0.000 OA
ATOM     15  C   UNL     1       4.574   2.036  20.314  0.00  0.00    +0.000 C 
ENDBRANCH  13  14
ENDBRANCH   6   8
BRANCH   1  16
ATOM     16  C   UNL     1       5.550   3.945  14.171  0.00  0.00    +0.000 C 
BRANCH  16  17
ATOM     17  C   UNL     1       6.694   4.430  13.282  0.00  0.00    +0.000 C 
BRANCH  17  18
ATOM     18  N   UNL     1       6.717   3.711  12.004  0.00  0.00    +0.000 NA
ATOM     19  H   UNL     1       6.838   4.404  11.228  0.00  0.00    +0.000 HD
BRANCH  18  20
ATOM     20  C   UNL     1       5.432   3.025  11.823  0.00  0.00    +0.000 C 
BRANCH  20  22
ATOM     21  C   UNL     1       7.114   1.368  10.994  0.00  0.00    +0.000 C 
ATOM     22  C   UNL     1       5.638   1.601  11.308  0.00  0.00    +0.000 C 
ENDBRANCH  20  22
ENDBRANCH  18  20
ENDBRANCH  17  18
ENDBRANCH  16  17
ENDBRANCH   1  16
TORSDOF 7
ENDMDL
MODEL 7
REMARK VINA RESULT:      -6.8      3.673      7.886
REMARK  Name = 
REMARK  9 active torsions:
REMARK  status: ('A' for Active; 'I' for Inactive)
REMARK    1  A    between atoms: C_1  and  C_2
REMARK    2  A    between atoms: C_2  and  C_3
REMARK    3  A    between atoms: C_3  and  N_4
REMARK    4  A    between atoms: N_4  and  C_5
REMARK    5  A    between atoms: C_5  and  C_6
REMARK    6  A    between atoms: C_6  and  C_7
REMARK    7  A    between atoms: C_12  and  C_13
REMARK    8  A    between atoms: C_18  and  O_19
REMARK    9  A    between atoms: O_19  and  C_20
REMARK                            x       y       z     vdW  Elec       q    Type
REMARK                         _______ _______ _______ _____ _____    ______ ____
ROOT
ATOM      1  C   UNL     1       2.390   6.513  19.684  0.00  0.00    +0.000 A 
ATOM      2  C   UNL     1       1.865   5.476  20.454  0.00  0.00    +0.000 A 
ATOM      3  C   UNL     1       2.354   4.186  20.315  0.00  0.00    +0.000 A 
ATOM      4  C   UNL     1       3.373   3.897  19.402  0.00  0.00    +0.000 A 
ATOM      5 CL   UNL     1       3.940   2.226  19.425  0.00  0.00    +0.000 Cl
ATOM      6  C   UNL     1       3.921   4.934  18.581  0.00  0.00    +0.000 A 
ATOM      7  C   UNL     1       3.403   6.240  18.750  0.00  0.00    +0.000 A 
ENDROOT
BRANCH   6   8
ATOM      8  C   UNL     1       4.995   4.681  17.540  0.00  0.00    +0.000 A 
ATOM      9  C   UNL     1       4.616   4.394  16.209  0.00  0.00    +0.000 A 
ATOM     10  C   UNL     1       5.560   4.168  15.211  0.00  0.00    +0.000 A 
ATOM     11  C   UNL     1       6.914   4.224  15.506  0.00  0.00    +0.000 A 
ATOM     12  C   UNL     1       7.329   4.517  16.798  0.00  0.00    +0.000 A 
ATOM     13  C   UNL     1       6.393   4.756  17.832  0.00  0.00    +0.000 A 
BRANCH  13  14
ATOM     14  O   UNL     1       6.813   5.029  19.096  0.00  0.00    +0.000 OA
ATOM     15  C   UNL     1       7.937   5.756  19.445  0.00  0.00    +0.000 C 
ENDBRANCH  13  14
ENDBRANCH   6   8
BRANCH   1  16
ATOM     16  C   UNL     1       1.830   7.904  19.821  0.00  0.00    +0.000 C 
BRANCH  16  17
ATOM     17  C   UNL     1       1.068   8.006  21.141  0.00  0.00    +0.000 C 
BRANCH  17  18
ATOM     18  N   UNL     1       1.894   8.619  22.186  0.00  0.00    +0.000 NA
ATOM     19  H   UNL     1       2.287   7.863  22.794  0.00  0.00    +0.000 HD
BRANCH  18  20
ATOM     20  C   UNL     1       1.048   9.490  23.010  0.00  0.00    +0.000 C 
BRANCH  20  22
ATOM     21  C   UNL     1      -1.157  10.669  23.116  0.00  0.00    +0.000 C 
ATOM     22  C   UNL     1      -0.392   9.501  22.498  0.00  0.00    +0.000 C 
ENDBRANCH  20  22
ENDBRANCH  18  20
ENDBRANCH  17  18
ENDBRANCH  16  17
ENDBRANCH   1  16
TORSDOF 7
ENDMDL
MODEL 8
REMARK VINA RESULT:      -6.7      1.613      2.472
REMARK  Name = 
REMARK  9 active torsions:
REMARK  status: ('A' for Active; 'I' for Inactive)
REMARK    1  A    between atoms: C_1  and  C_2
REMARK    2  A    between atoms: C_2  and  C_3
REMARK    3  A    between atoms: C_3  and  N_4
REMARK    4  A    between atoms: N_4  and  C_5
REMARK    5  A    between atoms: C_5  and  C_6
REMARK    6  A    between atoms: C_6  and  C_7
REMARK    7  A    between atoms: C_12  and  C_13
REMARK    8  A    between atoms: C_18  and  O_19
REMARK    9  A    between atoms: O_19  and  C_20
REMARK                            x       y       z     vdW  Elec       q    Type
REMARK                         _______ _______ _______ _____ _____    ______ ____
ROOT
ATOM      1  C   UNL     1       5.873   4.261  15.417  0.00  0.00    +0.000 A 
ATOM      2  C   UNL     1       7.094   4.838  15.764  0.00  0.00    +0.000 A 
ATOM      3  C   UNL     1       7.337   5.223  17.074  0.00  0.00    +0.000 A 
ATOM      4  C   UNL     1       6.368   5.049  18.067  0.00  0.00    +0.000 A 
ATOM      5 CL   UNL     1       6.881   5.505  19.692  0.00  0.00    +0.000 Cl
ATOM      6  C   UNL     1       5.097   4.478  17.742  0.00  0.00    +0.000 A 
ATOM      7  C   UNL     1       4.882   4.092  16.398  0.00  0.00    +0.000 A 
ENDROOT
BRANCH   6   8
ATOM      8  C   UNL     1       3.986   4.303  18.760  0.00  0.00    +0.000 A 
ATOM      9  C   UNL     1       3.877   3.082  19.464  0.00  0.00    +0.000 A 
ATOM     10  C   UNL     1       2.886   2.873  20.419  0.00  0.00    +0.000 A 
ATOM     11  C   UNL     1       1.973   3.876  20.708  0.00  0.00    +0.000 A 
ATOM     12  C   UNL     1       2.054   5.096  20.050  0.00  0.00    +0.000 A 
ATOM     13  C   UNL     1       3.052   5.339  19.077  0.00  0.00    +0.000 A 
BRANCH  13  14
ATOM     14  O   UNL     1       3.112   6.534  18.430  0.00  0.00    +0.000 OA
ATOM     15  C   UNL     1       2.283   7.621  18.643  0.00  0.00    +0.000 C 
ENDBRANCH  13  14
ENDBRANCH   6   8
BRANCH   1  16
ATOM     16  C   UNL     1       5.608   3.875  13.986  0.00  0.00    +0.000 C 
BRANCH  16  17
ATOM     17  C   UNL     1       6.802   4.291  13.129  0.00  0.00    +0.000 C 
BRANCH  17  18
ATOM     18  N   UNL     1       6.711   3.722  11.779  0.00  0.00    +0.000 NA
ATOM     19  H   UNL     1       6.193   4.392  11.164  0.00  0.00    +0.000 HD
BRANCH  18  20
ATOM     20  C   UNL     1       5.957   2.465  11.844  0.00  0.00    +0.000 C 
BRANCH  20  22
ATOM     21  C   UNL     1       5.959   0.025  11.288  0.00  0.00    +0.000 C 
ATOM     22  C   UNL     1       6.664   1.360  11.060  0.00  0.00    +0.000 C 
ENDBRANCH  20  22
ENDBRANCH  18  20
ENDBRANCH  17  18
ENDBRANCH  16  17
ENDBRANCH   1  16
TORSDOF 7
ENDMDL
MODEL 9
REMARK VINA RESULT:      -6.7      3.498      6.842
REMARK  Name = 
REMARK  9 active torsions:
REMARK  status: ('A' for Active; 'I' for Inactive)
REMARK    1  A    between atoms: C_1  and  C_2
REMARK    2  A    between atoms: C_2  and  C_3
REMARK    3  A    between atoms: C_3  and  N_4
REMARK    4  A    between atoms: N_4  and  C_5
REMARK    5  A    between atoms: C_5  and  C_6
REMARK    6  A    between atoms: C_6  and  C_7
REMARK    7  A    between atoms: C_12  and  C_13
REMARK    8  A    between atoms: C_18  and  O_19
REMARK    9  A    between atoms: O_19  and  C_20
REMARK                            x       y       z     vdW  Elec       q    Type
REMARK                         _______ _______ _______ _____ _____    ______ ____
ROOT
ATOM      1  C   UNL     1       2.535   6.870  19.295  0.00  0.00    +0.000 A 
ATOM      2  C   UNL     1       2.088   5.922  20.215  0.00  0.00    +0.000 A 
ATOM      3  C   UNL     1       2.619   4.640  20.211  0.00  0.00    +0.000 A 
ATOM      4  C   UNL     1       3.602   4.271  19.287  0.00  0.00    +0.000 A 
ATOM      5 CL   UNL     1       4.232   2.635  19.488  0.00  0.00    +0.000 Cl
ATOM      6  C   UNL     1       4.069   5.213  18.316  0.00  0.00    +0.000 A 
ATOM      7  C   UNL     1       3.511   6.513  18.350  0.00  0.00    +0.000 A 
ENDROOT
BRANCH   6   8
ATOM      8  C   UNL     1       5.100   4.865  17.258  0.00  0.00    +0.000 A 
ATOM      9  C   UNL     1       4.687   4.702  15.917  0.00  0.00    +0.000 A 
ATOM     10  C   UNL     1       5.592   4.396  14.904  0.00  0.00    +0.000 A 
ATOM     11  C   UNL     1       6.940   4.247  15.195  0.00  0.00    +0.000 A 
ATOM     12  C   UNL     1       7.389   4.413  16.498  0.00  0.00    +0.000 A 
ATOM     13  C   UNL     1       6.494   4.728  17.548  0.00  0.00    +0.000 A 
BRANCH  13  14
ATOM     14  O   UNL     1       6.945   4.875  18.822  0.00  0.00    +0.000 OA
ATOM     15  C   UNL     1       7.858   5.817  19.262  0.00  0.00    +0.000 C 
ENDBRANCH  13  14
ENDBRANCH   6   8
BRANCH   1  16
ATOM     16  C   UNL     1       1.931   8.248  19.289  0.00  0.00    +0.000 C 
BRANCH  16  17
ATOM     17  C   UNL     1       1.692   8.680  17.843  0.00  0.00    +0.000 C 
BRANCH  17  18
ATOM     18  N   UNL     1       1.621  10.141  17.729  0.00  0.00    +0.000 NA
ATOM     19  H   UNL     1       2.540  10.547  18.024  0.00  0.00    +0.000 HD
BRANCH  18  20
ATOM     20  C   UNL     1       0.577  10.637  18.633  0.00  0.00    +0.000 C 
BRANCH  20  22
ATOM     21  C   UNL     1      -1.657  11.543  17.961  0.00  0.00    +0.000 C 
ATOM     22  C   UNL     1      -0.815  10.279  18.113  0.00  0.00    +0.000 C 
ENDBRANCH  20  22
ENDBRANCH  18  20
ENDBRANCH  17  18
ENDBRANCH  16  17
ENDBRANCH   1  16
TORSDOF 7
ENDMDL
