MODEL 1
REMARK VINA RESULT:      -6.7      0.000      0.000
REMARK  Name = 
REMARK  11 active torsions:
REMARK  status: ('A' for Active; 'I' for Inactive)
REMARK    1  A    between atoms: C_1  and  C_2
REMARK    2  A    between atoms: C_2  and  C_3
REMARK    3  A    between atoms: C_3  and  C_4
REMARK    4  A    between atoms: N_6  and  S_7
REMARK    5  A    between atoms: S_7  and  C_8
REMARK    6  A    between atoms: C_12  and  N_13
REMARK    7  A    between atoms: C_14  and  C_16
REMARK    8  A    between atoms: C_16  and  O_17
REMARK    9  A    between atoms: O_17  and  C_18
REMARK   10  A    between atoms: C_18  and  C_19
REMARK   11  A    between atoms: C_18  and  C_20
REMARK                            x       y       z     vdW  Elec       q    Type
REMARK                         _______ _______ _______ _____ _____    ______ ____
ROOT
ATOM      1  C   UNL     1       3.528   6.099  18.562  0.00  0.00    +0.000 C 
ATOM      2  C   UNL     1       3.650   5.173  19.769  0.00  0.00    +0.000 C 
ATOM      3  N   UNL     1       2.993   3.901  19.389  0.00  0.00    +0.000 NA
ATOM      4  C   UNL     1       3.013   3.797  17.901  0.00  0.00    +0.000 C 
ATOM      5  C   UNL     1       3.606   5.126  17.374  0.00  0.00    +0.000 C 
ENDROOT
BRANCH   3   6
ATOM      6  S   UNL     1       1.547   3.516  20.185  0.00  0.00    +0.000 S 
ATOM      7  C   UNL     1       0.621   2.746  18.876  0.00  0.00    +0.000 C 
ATOM      8  O   UNL     1       1.836   2.490  21.161  0.00  0.00    +0.000 OA
ATOM      9  O   UNL     1       0.891   4.748  20.566  0.00  0.00    +0.000 OA
ENDBRANCH   3   6
BRANCH   5  10
ATOM     10  N   UNL     1       4.974   4.987  16.886  0.00  0.00    +0.000 N 
ATOM     11  C   UNL     1       5.505   5.884  15.977  0.00  0.00    +0.000 C 
ATOM     12  O   UNL     1       4.857   6.805  15.491  0.00  0.00    +0.000 OA
ATOM     13  H   UNL     1       5.588   4.267  17.251  0.00  0.00    +0.000 HD
BRANCH  11  14
ATOM     14  C   UNL     1       6.971   5.622  15.628  0.00  0.00    +0.000 C 
BRANCH  14  15
ATOM     15  O   UNL     1       7.919   6.346  16.400  0.00  0.00    +0.000 OA
BRANCH  15  16
ATOM     16  C   UNL     1       7.401   6.914  17.612  0.00  0.00    +0.000 C 
ATOM     17  C   UNL     1       7.851   6.156  18.858  0.00  0.00    +0.000 C 
ATOM     18  C   UNL     1       7.899   8.355  17.670  0.00  0.00    +0.000 C 
ENDBRANCH  15  16
ENDBRANCH  14  15
ENDBRANCH  11  14
ENDBRANCH   5  10
BRANCH   1  19
ATOM     19  C   UNL     1       2.238   6.942  18.533  0.00  0.00    +0.000 C 
BRANCH  19  21
ATOM     20  C   UNL     1       1.220   9.203  18.014  0.00  0.00    +0.000 C 
ATOM     21  C   UNL     1       2.426   8.294  17.831  0.00  0.00    +0.000 C 
ENDBRANCH  19  21
ENDBRANCH   1  19
TORSDOF 7
ENDMDL
MODEL 2
REMARK VINA RESULT:      -6.6      2.661      6.475
REMARK  Name = 
REMARK  11 active torsions:
REMARK  status: ('A' for Active; 'I' for Inactive)
REMARK    1  A    between atoms: C_1  and  C_2
REMARK    2  A    between atoms: C_2  and  C_3
REMARK    3  A    between atoms: C_3  and  C_4
REMARK    4  A    between atoms: N_6  and  S_7
REMARK    5  A    between atoms: S_7  and  C_8
REMARK    6  A    between atoms: C_12  and  N_13
REMARK    7  A    between atoms: C_14  and  C_16
REMARK    8  A    between atoms: C_16  and  O_17
REMARK    9  A    between atoms: O_17  and  C_18
REMARK   10  A    between atoms: C_18  and  C_19
REMARK   11  A    between atoms: C_18  and  C_20
REMARK                            x       y       z     vdW  Elec       q    Type
REMARK                         _______ _______ _______ _____ _____    ______ ____
ROOT
ATOM      1  C   UNL     1       5.302   3.928  15.942  0.00  0.00    +0.000 C 
ATOM      2  C   UNL     1       6.449   4.196  16.913  0.00  0.00    +0.000 C 
ATOM      3  N   UNL     1       6.106   5.445  17.630  0.00  0.00    +0.000 NA
ATOM      4  C   UNL     1       4.624   5.612  17.587  0.00  0.00    +0.000 C 
ATOM      5  C   UNL     1       4.078   4.467  16.700  0.00  0.00    +0.000 C 
ENDROOT
BRANCH   3   6
ATOM      6  S   UNL     1       7.061   6.806  17.302  0.00  0.00    +0.000 S 
ATOM      7  C   UNL     1       8.150   6.818  18.708  0.00  0.00    +0.000 C 
ATOM      8  O   UNL     1       7.871   6.512  16.141  0.00  0.00    +0.000 OA
ATOM      9  O   UNL     1       6.217   7.980  17.348  0.00  0.00    +0.000 OA
ENDBRANCH   3   6
BRANCH   5  10
ATOM     10  N   UNL     1       3.418   3.416  17.467  0.00  0.00    +0.000 N 
ATOM     11  C   UNL     1       2.047   3.411  17.644  0.00  0.00    +0.000 C 
ATOM     12  O   UNL     1       1.316   4.301  17.220  0.00  0.00    +0.000 OA
ATOM     13  H   UNL     1       3.943   2.629  17.834  0.00  0.00    +0.000 HD
BRANCH  11  14
ATOM     14  C   UNL     1       1.523   2.200  18.418  0.00  0.00    +0.000 C 
BRANCH  14  15
ATOM     15  O   UNL     1       0.923   2.493  19.672  0.00  0.00    +0.000 OA
BRANCH  15  16
ATOM     16  C   UNL     1       1.753   3.230  20.580  0.00  0.00    +0.000 C 
ATOM     17  C   UNL     1       1.347   4.696  20.694  0.00  0.00    +0.000 C 
ATOM     18  C   UNL     1       1.632   2.547  21.939  0.00  0.00    +0.000 C 
ENDBRANCH  15  16
ENDBRANCH  14  15
ENDBRANCH  11  14
ENDBRANCH   5  10
BRANCH   1  19
ATOM     19  C   UNL     1       5.466   4.594  14.562  0.00  0.00    +0.000 C 
BRANCH  19  21
ATOM     20  C   UNL     1       5.540   3.423  12.317  0.00  0.00    +0.000 C 
ATOM     21  C   UNL     1       6.305   3.753  13.590  0.00  0.00    +0.000 C 
ENDBRANCH  19  21
ENDBRANCH   1  19
TORSDOF 7
ENDMDL
MODEL 3
REMARK VINA RESULT:      -6.5      2.767      6.327
REMARK  Name = 
REMARK  11 active torsions:
REMARK  status: ('A' for Active; 'I' for Inactive)
REMARK    1  A    between atoms: C_1  and  C_2
REMARK    2  A    between atoms: C_2  and  C_3
REMARK    3  A    between atoms: C_3  and  C_4
REMARK    4  A    between atoms: N_6  and  S_7
REMARK    5  A    between atoms: S_7  and  C_8
REMARK    6  A    between atoms: C_12  and  N_13
REMARK    7  A    between atoms: C_14  and  C_16
REMARK    8  A    between atoms: C_16  and  O_17
REMARK    9  A    between atoms: O_17  and  C_18
REMARK   10  A    between atoms: C_18  and  C_19
REMARK   11  A    between atoms: C_18  and  C_20
REMARK                            x       y       z     vdW  Elec       q    Type
REMARK                         _______ _______ _______ _____ _____    ______ ____
ROOT
ATOM      1  C   UNL     1       4.660   4.852  19.172  0.00  0.00    +0.000 C 
ATOM      2  C   UNL     1       6.028   5.468  18.894  0.00  0.00    +0.000 C 
ATOM      3  N   UNL     1       6.038   5.829  17.458  0.00  0.00    +0.000 NA
ATOM      4  C   UNL     1       4.626   6.014  17.016  0.00  0.00    +0.000 C 
ATOM      5  C   UNL     1       3.734   5.627  18.221  0.00  0.00    +0.000 C 
ENDROOT
BRANCH   3   6
ATOM      6  S   UNL     1       7.068   4.937  16.449  0.00  0.00    +0.000 S 
ATOM      7  C   UNL     1       5.927   3.788  15.712  0.00  0.00    +0.000 C 
ATOM      8  O   UNL     1       7.527   5.813  15.395  0.00  0.00    +0.000 OA
ATOM      9  O   UNL     1       8.003   4.209  17.278  0.00  0.00    +0.000 OA
ENDBRANCH   3   6
BRANCH   5  10
ATOM     10  N   UNL     1       3.134   6.782  18.880  0.00  0.00    +0.000 N 
ATOM     11  C   UNL     1       2.206   6.626  19.893  0.00  0.00    +0.000 C 
ATOM     12  O   UNL     1       1.795   5.530  20.260  0.00  0.00    +0.000 OA
ATOM     13  H   UNL     1       3.433   7.726  18.656  0.00  0.00    +0.000 HD
BRANCH  11  14
ATOM     14  C   UNL     1       1.735   7.943  20.513  0.00  0.00    +0.000 C 
BRANCH  14  15
ATOM     15  O   UNL     1       0.526   7.868  21.255  0.00  0.00    +0.000 OA
BRANCH  15  16
ATOM     16  C   UNL     1      -0.067   9.136  21.570  0.00  0.00    +0.000 C 
ATOM     17  C   UNL     1       0.040   9.487  23.051  0.00  0.00    +0.000 C 
ATOM     18  C   UNL     1       0.663  10.182  20.733  0.00  0.00    +0.000 C 
ENDBRANCH  15  16
ENDBRANCH  14  15
ENDBRANCH  11  14
ENDBRANCH   5  10
BRANCH   1  19
ATOM     19  C   UNL     1       4.585   3.331  18.937  0.00  0.00    +0.000 C 
BRANCH  19  21
ATOM     20  C   UNL     1       2.364   2.151  19.245  0.00  0.00    +0.000 C 
ATOM     21  C   UNL     1       3.270   2.894  18.276  0.00  0.00    +0.000 C 
ENDBRANCH  19  21
ENDBRANCH   1  19
TORSDOF 7
ENDMDL
MODEL 4
REMARK VINA RESULT:      -6.5      2.745      4.476
REMARK  Name = 
REMARK  11 active torsions:
REMARK  status: ('A' for Active; 'I' for Inactive)
REMARK    1  A    between atoms: C_1  and  C_2
REMARK    2  A    between atoms: C_2  and  C_3
REMARK    3  A    between atoms: C_3  and  C_4
REMARK    4  A    between atoms: N_6  and  S_7
REMARK    5  A    between atoms: S_7  and  C_8
REMARK    6  A    between atoms: C_12  and  N_13
REMARK    7  A    between atoms: C_14  and  C_16
REMARK    8  A    between atoms: C_16  and  O_17
REMARK    9  A    between atoms: O_17  and  C_18
REMARK   10  A    between atoms: C_18  and  C_19
REMARK   11  A    between atoms: C_18  and  C_20
REMARK                            x       y       z     vdW  Elec       q    Type
REMARK                         _______ _______ _______ _____ _____    ______ ____
ROOT
ATOM      1  C   UNL     1       5.196   4.029  18.264  0.00  0.00    +0.000 C 
ATOM      2  C   UNL     1       4.213   2.921  18.631  0.00  0.00    +0.000 C 
ATOM      3  N   UNL     1       2.858   3.470  18.399  0.00  0.00    +0.000 NA
ATOM      4  C   UNL     1       2.969   4.570  17.397  0.00  0.00    +0.000 C 
ATOM      5  C   UNL     1       4.480   4.755  17.113  0.00  0.00    +0.000 C 
ENDROOT
BRANCH   3   6
ATOM      6  S   UNL     1       1.897   3.748  19.767  0.00  0.00    +0.000 S 
ATOM      7  C   UNL     1       2.796   2.852  21.014  0.00  0.00    +0.000 C 
ATOM      8  O   UNL     1       1.992   5.151  20.101  0.00  0.00    +0.000 OA
ATOM      9  O   UNL     1       0.613   3.112  19.563  0.00  0.00    +0.000 OA
ENDBRANCH   3   6
BRANCH   5  10
ATOM     10  N   UNL     1       4.885   4.229  15.814  0.00  0.00    +0.000 N 
ATOM     11  C   UNL     1       5.879   4.841  15.072  0.00  0.00    +0.000 C 
ATOM     12  O   UNL     1       6.437   5.875  15.426  0.00  0.00    +0.000 OA
ATOM     13  H   UNL     1       4.492   3.365  15.455  0.00  0.00    +0.000 HD
BRANCH  11  14
ATOM     14  C   UNL     1       6.218   4.115  13.769  0.00  0.00    +0.000 C 
BRANCH  14  15
ATOM     15  O   UNL     1       5.136   3.428  13.156  0.00  0.00    +0.000 OA
BRANCH  15  16
ATOM     16  C   UNL     1       5.306   3.165  11.756  0.00  0.00    +0.000 C 
ATOM     17  C   UNL     1       5.856   1.769  11.479  0.00  0.00    +0.000 C 
ATOM     18  C   UNL     1       3.933   3.321  11.109  0.00  0.00    +0.000 C 
ENDBRANCH  15  16
ENDBRANCH  14  15
ENDBRANCH  11  14
ENDBRANCH   5  10
BRANCH   1  19
ATOM     19  C   UNL     1       5.542   4.984  19.422  0.00  0.00    +0.000 C 
BRANCH  19  21
ATOM     20  C   UNL     1       7.821   4.846  18.324  0.00  0.00    +0.000 C 
ATOM     21  C   UNL     1       6.924   5.635  19.265  0.00  0.00    +0.000 C 
ENDBRANCH  19  21
ENDBRANCH   1  19
TORSDOF 7
ENDMDL
MODEL 5
REMARK VINA RESULT:      -6.4      1.652      2.568
REMARK  Name = 
REMARK  11 active torsions:
REMARK  status: ('A' for Active; 'I' for Inactive)
REMARK    1  A    between atoms: C_1  and  C_2
REMARK    2  A    between atoms: C_2  and  C_3
REMARK    3  A    between atoms: C_3  and  C_4
REMARK    4  A    between atoms: N_6  and  S_7
REMARK    5  A    between atoms: S_7  and  C_8
REMARK    6  A    between atoms: C_12  and  N_13
REMARK    7  A    between atoms: C_14  and  C_16
REMARK    8  A    between atoms: C_16  and  O_17
REMARK    9  A    between atoms: O_17  and  C_18
REMARK   10  A    between atoms: C_18  and  C_19
REMARK   11  A    between atoms: C_18  and  C_20
REMARK                            x       y       z     vdW  Elec       q    Type
REMARK                         _______ _______ _______ _____ _____    ______ ____
ROOT
ATOM      1  C   UNL     1       3.755   5.680  18.896  0.00  0.00    +0.000 C 
ATOM      2  C   UNL     1       3.614   4.496  19.848  0.00  0.00    +0.000 C 
ATOM      3  N   UNL     1       2.643   3.570  19.222  0.00  0.00    +0.000 NA
ATOM      4  C   UNL     1       2.647   3.819  17.752  0.00  0.00    +0.000 C 
ATOM      5  C   UNL     1       3.580   5.031  17.513  0.00  0.00    +0.000 C 
ENDROOT
BRANCH   3   6
ATOM      6  S   UNL     1       1.139   3.402  19.987  0.00  0.00    +0.000 S 
ATOM      7  C   UNL     1       1.600   2.562  21.486  0.00  0.00    +0.000 C 
ATOM      8  O   UNL     1       0.681   4.721  20.364  0.00  0.00    +0.000 OA
ATOM      9  O   UNL     1       0.314   2.523  19.188  0.00  0.00    +0.000 OA
ENDBRANCH   3   6
BRANCH   5  10
ATOM     10  N   UNL     1       4.865   4.656  16.931  0.00  0.00    +0.000 N 
ATOM     11  C   UNL     1       5.636   5.577  16.247  0.00  0.00    +0.000 C 
ATOM     12  O   UNL     1       5.275   6.732  16.042  0.00  0.00    +0.000 OA
ATOM     13  H   UNL     1       5.251   3.729  17.072  0.00  0.00    +0.000 HD
BRANCH  11  14
ATOM     14  C   UNL     1       6.979   5.027  15.764  0.00  0.00    +0.000 C 
BRANCH  14  15
ATOM     15  O   UNL     1       7.427   5.526  14.511  0.00  0.00    +0.000 OA
BRANCH  15  16
ATOM     16  C   UNL     1       7.418   4.568  13.443  0.00  0.00    +0.000 C 
ATOM     17  C   UNL     1       6.101   3.803  13.347  0.00  0.00    +0.000 C 
ATOM     18  C   UNL     1       7.664   5.346  12.153  0.00  0.00    +0.000 C 
ENDBRANCH  15  16
ENDBRANCH  14  15
ENDBRANCH  11  14
ENDBRANCH   5  10
BRANCH   1  19
ATOM     19  C   UNL     1       2.740   6.815  19.133  0.00  0.00    +0.000 C 
BRANCH  19  21
ATOM     20  C   UNL     1       1.723   8.926  18.171  0.00  0.00    +0.000 C 
ATOM     21  C   UNL     1       2.438   7.620  17.861  0.00  0.00    +0.000 C 
ENDBRANCH  19  21
ENDBRANCH   1  19
TORSDOF 7
ENDMDL
MODEL 6
REMARK VINA RESULT:      -6.4      2.491      4.279
REMARK  Name = 
REMARK  11 active torsions:
REMARK  status: ('A' for Active; 'I' for Inactive)
REMARK    1  A    between atoms: C_1  and  C_2
REMARK    2  A    between atoms: C_2  and  C_3
REMARK    3  A    between atoms: C_3  and  C_4
REMARK    4  A    between atoms: N_6  and  S_7
REMARK    5  A    between atoms: S_7  and  C_8
REMARK    6  A    between atoms: C_12  and  N_13
REMARK    7  A    between atoms: C_14  and  C_16
REMARK    8  A    between atoms: C_16  and  O_17
REMARK    9  A    between atoms: O_17  and  C_18
REMARK   10  A    between atoms: C_18  and  C_19
REMARK   11  A    between atoms: C_18  and  C_20
REMARK                            x       y       z     vdW  Elec       q    Type
REMARK                         _______ _______ _______ _____ _____    ______ ____
ROOT
ATOM      1  C   UNL     1       5.751   4.494  18.226  0.00  0.00    +0.000 C 
ATOM      2  C   UNL     1       4.759   3.416  18.654  0.00  0.00    +0.000 C 
ATOM      3  N   UNL     1       3.414   4.032  18.580  0.00  0.00    +0.000 NA
ATOM      4  C   UNL     1       3.476   5.163  17.610  0.00  0.00    +0.000 C 
ATOM      5  C   UNL     1       4.958   5.294  17.180  0.00  0.00    +0.000 C 
ENDROOT
BRANCH   3   6
ATOM      6  S   UNL     1       2.609   4.298  20.048  0.00  0.00    +0.000 S 
ATOM      7  C   UNL     1       0.965   3.747  19.651  0.00  0.00    +0.000 C 
ATOM      8  O   UNL     1       3.143   3.372  21.022  0.00  0.00    +0.000 OA
ATOM      9  O   UNL     1       2.581   5.721  20.305  0.00  0.00    +0.000 OA
ENDBRANCH   3   6
BRANCH   5  10
ATOM     10  N   UNL     1       5.205   4.802  15.829  0.00  0.00    +0.000 N 
ATOM     11  C   UNL     1       6.398   5.061  15.180  0.00  0.00    +0.000 C 
ATOM     12  O   UNL     1       7.287   5.754  15.666  0.00  0.00    +0.000 OA
ATOM     13  H   UNL     1       4.534   4.202  15.361  0.00  0.00    +0.000 HD
BRANCH  11  14
ATOM     14  C   UNL     1       6.509   4.412  13.800  0.00  0.00    +0.000 C 
BRANCH  14  15
ATOM     15  O   UNL     1       5.358   3.699  13.368  0.00  0.00    +0.000 OA
BRANCH  15  16
ATOM     16  C   UNL     1       5.526   2.969  12.144  0.00  0.00    +0.000 C 
ATOM     17  C   UNL     1       4.371   3.180  11.169  0.00  0.00    +0.000 C 
ATOM     18  C   UNL     1       6.831   3.454  11.519  0.00  0.00    +0.000 C 
ENDBRANCH  15  16
ENDBRANCH  14  15
ENDBRANCH  11  14
ENDBRANCH   5  10
BRANCH   1  19
ATOM     19  C   UNL     1       6.256   5.388  19.375  0.00  0.00    +0.000 C 
BRANCH  19  21
ATOM     20  C   UNL     1       8.028   7.014  18.578  0.00  0.00    +0.000 C 
ATOM     21  C   UNL     1       7.758   5.691  19.278  0.00  0.00    +0.000 C 
ENDBRANCH  19  21
ENDBRANCH   1  19
TORSDOF 7
ENDMDL
MODEL 7
REMARK VINA RESULT:      -6.4      2.203      3.794
REMARK  Name = 
REMARK  11 active torsions:
REMARK  status: ('A' for Active; 'I' for Inactive)
REMARK    1  A    between atoms: C_1  and  C_2
REMARK    2  A    between atoms: C_2  and  C_3
REMARK    3  A    between atoms: C_3  and  C_4
REMARK    4  A    between atoms: N_6  and  S_7
REMARK    5  A    between atoms: S_7  and  C_8
REMARK    6  A    between atoms: C_12  and  N_13
REMARK    7  A    between atoms: C_14  and  C_16
REMARK    8  A    between atoms: C_16  and  O_17
REMARK    9  A    between atoms: O_17  and  C_18
REMARK   10  A    between atoms: C_18  and  C_19
REMARK   11  A    between atoms: C_18  and  C_20
REMARK                            x       y       z     vdW  Elec       q    Type
REMARK                         _______ _______ _______ _____ _____    ______ ____
ROOT
ATOM      1  C   UNL     1       4.796   5.648  17.124  0.00  0.00    +0.000 C 
ATOM      2  C   UNL     1       3.598   5.853  18.046  0.00  0.00    +0.000 C 
ATOM      3  N   UNL     1       3.916   5.145  19.307  0.00  0.00    +0.000 NA
ATOM      4  C   UNL     1       5.399   5.041  19.419  0.00  0.00    +0.000 C 
ATOM      5  C   UNL     1       5.981   5.611  18.103  0.00  0.00    +0.000 C 
ENDROOT
BRANCH   3   6
ATOM      6  S   UNL     1       3.001   3.763  19.662  0.00  0.00    +0.000 S 
ATOM      7  C   UNL     1       4.264   2.511  19.717  0.00  0.00    +0.000 C 
ATOM      8  O   UNL     1       2.485   3.904  21.006  0.00  0.00    +0.000 OA
ATOM      9  O   UNL     1       2.120   3.497  18.547  0.00  0.00    +0.000 OA
ENDBRANCH   3   6
BRANCH   5  10
ATOM     10  N   UNL     1       6.579   6.932  18.269  0.00  0.00    +0.000 N 
ATOM     11  C   UNL     1       7.473   7.435  17.341  0.00  0.00    +0.000 C 
ATOM     12  O   UNL     1       7.854   6.796  16.365  0.00  0.00    +0.000 OA
ATOM     13  H   UNL     1       6.304   7.538  19.035  0.00  0.00    +0.000 HD
BRANCH  11  14
ATOM     14  C   UNL     1       7.947   8.858  17.642  0.00  0.00    +0.000 C 
BRANCH  14  15
ATOM     15  O   UNL     1       8.730   9.002  18.819  0.00  0.00    +0.000 OA
BRANCH  15  16
ATOM     16  C   UNL     1       9.450  10.239  18.914  0.00  0.00    +0.000 C 
ATOM     17  C   UNL     1       8.897  11.318  17.986  0.00  0.00    +0.000 C 
ATOM     18  C   UNL     1       9.346  10.698  20.366  0.00  0.00    +0.000 C 
ENDBRANCH  15  16
ENDBRANCH  14  15
ENDBRANCH  11  14
ENDBRANCH   5  10
BRANCH   1  19
ATOM     19  C   UNL     1       4.724   4.376  16.257  0.00  0.00    +0.000 C 
BRANCH  19  21
ATOM     20  C   UNL     1       6.135   3.996  14.188  0.00  0.00    +0.000 C 
ATOM     21  C   UNL     1       6.093   3.951  15.708  0.00  0.00    +0.000 C 
ENDBRANCH  19  21
ENDBRANCH   1  19
TORSDOF 7
ENDMDL
MODEL 8
REMARK VINA RESULT:      -6.4      2.722      4.598
REMARK  Name = 
REMARK  11 active torsions:
REMARK  status: ('A' for Active; 'I' for Inactive)
REMARK    1  A    between atoms: C_1  and  C_2
REMARK    2  A    between atoms: C_2  and  C_3
REMARK    3  A    between atoms: C_3  and  C_4
REMARK    4  A    between atoms: N_6  and  S_7
REMARK    5  A    between atoms: S_7  and  C_8
REMARK    6  A    between atoms: C_12  and  N_13
REMARK    7  A    between atoms: C_14  and  C_16
REMARK    8  A    between atoms: C_16  and  O_17
REMARK    9  A    between atoms: O_17  and  C_18
REMARK   10  A    between atoms: C_18  and  C_19
REMARK   11  A    between atoms: C_18  and  C_20
REMARK                            x       y       z     vdW  Elec       q    Type
REMARK                         _______ _______ _______ _____ _____    ______ ____
ROOT
ATOM      1  C   UNL     1       5.581   5.631  16.131  0.00  0.00    +0.000 C 
ATOM      2  C   UNL     1       4.325   5.681  16.995  0.00  0.00    +0.000 C 
ATOM      3  N   UNL     1       4.727   5.224  18.345  0.00  0.00    +0.000 NA
ATOM      4  C   UNL     1       6.191   5.463  18.498  0.00  0.00    +0.000 C 
ATOM      5  C   UNL     1       6.698   5.978  17.129  0.00  0.00    +0.000 C 
ENDROOT
BRANCH   3   6
ATOM      6  S   UNL     1       4.115   3.730  18.862  0.00  0.00    +0.000 S 
ATOM      7  C   UNL     1       2.777   4.246  19.916  0.00  0.00    +0.000 C 
ATOM      8  O   UNL     1       3.525   3.070  17.720  0.00  0.00    +0.000 OA
ATOM      9  O   UNL     1       5.123   3.075  19.667  0.00  0.00    +0.000 OA
ENDBRANCH   3   6
BRANCH   5  10
ATOM     10  N   UNL     1       6.990   7.407  17.130  0.00  0.00    +0.000 N 
ATOM     11  C   UNL     1       7.941   7.943  17.978  0.00  0.00    +0.000 C 
ATOM     12  O   UNL     1       8.552   7.274  18.805  0.00  0.00    +0.000 OA
ATOM     13  H   UNL     1       6.548   8.031  16.463  0.00  0.00    +0.000 HD
BRANCH  11  14
ATOM     14  C   UNL     1       8.161   9.446  17.796  0.00  0.00    +0.000 C 
BRANCH  14  15
ATOM     15  O   UNL     1       9.025  10.054  18.745  0.00  0.00    +0.000 OA
BRANCH  15  16
ATOM     16  C   UNL     1       9.338  11.429  18.480  0.00  0.00    +0.000 C 
ATOM     17  C   UNL     1      10.687  11.605  17.788  0.00  0.00    +0.000 C 
ATOM     18  C   UNL     1       8.222  11.971  17.591  0.00  0.00    +0.000 C 
ENDBRANCH  15  16
ENDBRANCH  14  15
ENDBRANCH  11  14
ENDBRANCH   5  10
BRANCH   1  19
ATOM     19  C   UNL     1       5.826   4.275  15.440  0.00  0.00    +0.000 C 
BRANCH  19  21
ATOM     20  C   UNL     1       5.961   3.654  12.988  0.00  0.00    +0.000 C 
ATOM     21  C   UNL     1       6.620   4.407  14.133  0.00  0.00    +0.000 C 
ENDBRANCH  19  21
ENDBRANCH   1  19
TORSDOF 7
ENDMDL
MODEL 9
REMARK VINA RESULT:      -6.4      2.155      3.794
REMARK  Name = 
REMARK  11 active torsions:
REMARK  status: ('A' for Active; 'I' for Inactive)
REMARK    1  A    between atoms: C_1  and  C_2
REMARK    2  A    between atoms: C_2  and  C_3
REMARK    3  A    between atoms: C_3  and  C_4
REMARK    4  A    between atoms: N_6  and  S_7
REMARK    5  A    between atoms: S_7  and  C_8
REMARK    6  A    between atoms: C_12  and  N_13
REMARK    7  A    between atoms: C_14  and  C_16
REMARK    8  A    between atoms: C_16  and  O_17
REMARK    9  A    between atoms: O_17  and  C_18
REMARK   10  A    between atoms: C_18  and  C_19
REMARK   11  A    between atoms: C_18  and  C_20
REMARK                            x       y       z     vdW  Elec       q    Type
REMARK                         _______ _______ _______ _____ _____    ______ ____
ROOT
ATOM      1  C   UNL     1       4.859   5.571  16.957  0.00  0.00    +0.000 C 
ATOM      2  C   UNL     1       3.636   5.734  17.855  0.00  0.00    +0.000 C 
ATOM      3  N   UNL     1       3.730   4.674  18.885  0.00  0.00    +0.000 NA
ATOM      4  C   UNL     1       5.163   4.284  19.019  0.00  0.00    +0.000 C 
ATOM      5  C   UNL     1       5.937   5.069  17.931  0.00  0.00    +0.000 C 
ENDROOT
BRANCH   3   6
ATOM      6  S   UNL     1       2.579   3.432  18.815  0.00  0.00    +0.000 S 
ATOM      7  C   UNL     1       1.342   4.036  19.942  0.00  0.00    +0.000 C 
ATOM      8  O   UNL     1       1.992   3.443  17.494  0.00  0.00    +0.000 OA
ATOM      9  O   UNL     1       3.169   2.229  19.362  0.00  0.00    +0.000 OA
ENDBRANCH   3   6
BRANCH   5  10
ATOM     10  N   UNL     1       6.722   6.172  18.474  0.00  0.00    +0.000 N 
ATOM     11  C   UNL     1       7.523   6.950  17.658  0.00  0.00    +0.000 C 
ATOM     12  O   UNL     1       7.663   6.735  16.459  0.00  0.00    +0.000 OA
ATOM     13  H   UNL     1       6.649   6.434  19.452  0.00  0.00    +0.000 HD
BRANCH  11  14
ATOM     14  C   UNL     1       8.221   8.099  18.386  0.00  0.00    +0.000 C 
BRANCH  14  15
ATOM     15  O   UNL     1       7.992   9.392  17.843  0.00  0.00    +0.000 OA
BRANCH  15  16
ATOM     16  C   UNL     1       9.014  10.357  18.133  0.00  0.00    +0.000 C 
ATOM     17  C   UNL     1       8.593  11.784  17.791  0.00  0.00    +0.000 C 
ATOM     18  C   UNL     1       9.312  10.246  19.626  0.00  0.00    +0.000 C 
ENDBRANCH  15  16
ENDBRANCH  14  15
ENDBRANCH  11  14
ENDBRANCH   5  10
BRANCH   1  19
ATOM     19  C   UNL     1       4.656   4.605  15.773  0.00  0.00    +0.000 C 
BRANCH  19  21
ATOM     20  C   UNL     1       6.507   4.309  14.069  0.00  0.00    +0.000 C 
ATOM     21  C   UNL     1       5.935   3.843  15.400  0.00  0.00    +0.000 C 
ENDBRANCH  19  21
ENDBRANCH   1  19
TORSDOF 7
ENDMDL
