MODEL 1
REMARK VINA RESULT:      -8.4      0.000      0.000
REMARK  Name = 
REMARK  15 active torsions:
REMARK  status: ('A' for Active; 'I' for Inactive)
REMARK    1  A    between atoms: C_1  and  C_2
REMARK    2  A    between atoms: C_2  and  C_3
REMARK    3  A    between atoms: C_5  and  C_6
REMARK    4  A    between atoms: C_11  and  C_12
REMARK    5  A    between atoms: C_13  and  O_14
REMARK    6  A    between atoms: C_16  and  O_17
REMARK    7  A    between atoms: O_17  and  C_18
REMARK    8  A    between atoms: C_18  and  C_19
REMARK    9  A    between atoms: C_19  and  C_20
REMARK   10  A    between atoms: C_20  and  C_21
REMARK   11  A    between atoms: C_21  and  C_22
REMARK   12  A    between atoms: C_22  and  C_23
REMARK   13  A    between atoms: C_23  and  C_24
REMARK   14  A    between atoms: C_23  and  C_25
REMARK   15  A    between atoms: C_23  and  C_26
REMARK                            x       y       z     vdW  Elec       q    Type
REMARK                         _______ _______ _______ _____ _____    ______ ____
ROOT
ATOM      1  C   UNL     1       4.190   7.140  17.718  0.00  0.00    +0.000 A 
ATOM      2  C   UNL     1       3.442   6.219  18.488  0.00  0.00    +0.000 A 
ATOM      3  C   UNL     1       3.898   4.951  18.868  0.00  0.00    +0.000 A 
ATOM      4  C   UNL     1       5.229   4.663  18.543  0.00  0.00    +0.000 A 
ATOM      5  C   UNL     1       6.037   5.595  17.881  0.00  0.00    +0.000 A 
ATOM      6  C   UNL     1       5.531   6.824  17.440  0.00  0.00    +0.000 A 
ENDROOT
BRANCH   3   7
ATOM      7  C   UNL     1       2.986   4.031  19.608  0.00  0.00    +0.000 A 
ATOM      8  C   UNL     1       2.739   4.275  20.977  0.00  0.00    +0.000 A 
ATOM      9  C   UNL     1       1.907   3.451  21.737  0.00  0.00    +0.000 A 
ATOM     10  C   UNL     1       1.242   2.391  21.139  0.00  0.00    +0.000 A 
ATOM     11  C   UNL     1       1.427   2.143  19.783  0.00  0.00    +0.000 A 
ATOM     12  C   UNL     1       2.308   2.927  19.010  0.00  0.00    +0.000 A 
ATOM     13  C   UNL     1       2.451   2.524  17.560  0.00  0.00    +0.000 C 
ENDBRANCH   3   7
BRANCH   1  15
ATOM     14  C   UNL     1       1.990   8.385  17.934  0.00  0.00    +0.000 C 
ATOM     15  C   UNL     1       3.384   8.363  17.320  0.00  0.00    +0.000 C 
ENDBRANCH   1  15
BRANCH   4  16
ATOM     16  O   UNL     1       5.857   3.479  18.833  0.00  0.00    +0.000 OA
ATOM     17  H   UNL     1       6.750   3.518  18.455  0.00  0.00    +0.000 HD
ENDBRANCH   4  16
BRANCH   6  18
ATOM     18  O   UNL     1       6.505   7.537  16.784  0.00  0.00    +0.000 OA
BRANCH  18  19
ATOM     19  C   UNL     1       7.705   7.755  17.489  0.00  0.00    +0.000 C 
BRANCH  19  20
ATOM     20  C   UNL     1       7.960   9.218  17.818  0.00  0.00    +0.000 C 
BRANCH  20  21
ATOM     21  C   UNL     1       8.978   9.294  18.962  0.00  0.00    +0.000 C 
BRANCH  21  22
ATOM     22  C   UNL     1       9.571  10.692  19.200  0.00  0.00    +0.000 C 
BRANCH  22  23
ATOM     23  C   UNL     1      10.179  11.374  17.963  0.00  0.00    +0.000 C 
BRANCH  23  24
ATOM     24  C   UNL     1      10.417  12.921  18.019  0.00  0.00    +0.000 C 
ATOM     25  C   UNL     1      11.175  13.301  19.310  0.00  0.00    +0.000 C 
ATOM     26  C   UNL     1      11.321  13.296  16.824  0.00  0.00    +0.000 C 
BRANCH  24  27
ATOM     27  C   UNL     1       9.128  13.688  17.889  0.00  0.00    +0.000 A 
ATOM     28  N   UNL     1       9.049  15.040  18.114  0.00  0.00    +0.000 NA
ATOM     29  N   UNL     1       7.817  15.404  17.789  0.00  0.00    +0.000 NA
ATOM     30  N   UNL     1       7.220  14.274  17.394  0.00  0.00    +0.000 N 
ATOM     31  N   UNL     1       7.970  13.163  17.450  0.00  0.00    +0.000 NA
ATOM     32  H   UNL     1       6.265  14.268  17.046  0.00  0.00    +0.000 HD
ENDBRANCH  24  27
ENDBRANCH  23  24
ENDBRANCH  22  23
ENDBRANCH  21  22
ENDBRANCH  20  21
ENDBRANCH  19  20
ENDBRANCH  18  19
ENDBRANCH   6  18
TORSDOF 11
ENDMDL
MODEL 2
REMARK VINA RESULT:      -7.9      0.989      1.267
REMARK  Name = 
REMARK  15 active torsions:
REMARK  status: ('A' for Active; 'I' for Inactive)
REMARK    1  A    between atoms: C_1  and  C_2
REMARK    2  A    between atoms: C_2  and  C_3
REMARK    3  A    between atoms: C_5  and  C_6
REMARK    4  A    between atoms: C_11  and  C_12
REMARK    5  A    between atoms: C_13  and  O_14
REMARK    6  A    between atoms: C_16  and  O_17
REMARK    7  A    between atoms: O_17  and  C_18
REMARK    8  A    between atoms: C_18  and  C_19
REMARK    9  A    between atoms: C_19  and  C_20
REMARK   10  A    between atoms: C_20  and  C_21
REMARK   11  A    between atoms: C_21  and  C_22
REMARK   12  A    between atoms: C_22  and  C_23
REMARK   13  A    between atoms: C_23  and  C_24
REMARK   14  A    between atoms: C_23  and  C_25
REMARK   15  A    between atoms: C_23  and  C_26
REMARK                            x       y       z     vdW  Elec       q    Type
REMARK                         _______ _______ _______ _____ _____    ______ ____
ROOT
ATOM      1  C   UNL     1       4.241   7.118  17.739  0.00  0.00    +0.000 A 
ATOM      2  C   UNL     1       3.475   6.204  18.500  0.00  0.00    +0.000 A 
ATOM      3  C   UNL     1       3.917   4.937  18.896  0.00  0.00    +0.000 A 
ATOM      4  C   UNL     1       5.252   4.640  18.598  0.00  0.00    +0.000 A 
ATOM      5  C   UNL     1       6.077   5.564  17.946  0.00  0.00    +0.000 A 
ATOM      6  C   UNL     1       5.586   6.794  17.489  0.00  0.00    +0.000 A 
ENDROOT
BRANCH   3   7
ATOM      7  C   UNL     1       2.986   4.026  19.624  0.00  0.00    +0.000 A 
ATOM      8  C   UNL     1       2.748   4.253  20.998  0.00  0.00    +0.000 A 
ATOM      9  C   UNL     1       1.900   3.435  21.746  0.00  0.00    +0.000 A 
ATOM     10  C   UNL     1       1.210   2.401  21.133  0.00  0.00    +0.000 A 
ATOM     11  C   UNL     1       1.386   2.171  19.773  0.00  0.00    +0.000 A 
ATOM     12  C   UNL     1       2.282   2.947  19.010  0.00  0.00    +0.000 A 
ATOM     13  C   UNL     1       2.412   2.565  17.554  0.00  0.00    +0.000 C 
ENDBRANCH   3   7
BRANCH   1  15
ATOM     14  C   UNL     1       2.038   8.365  17.891  0.00  0.00    +0.000 C 
ATOM     15  C   UNL     1       3.449   8.342  17.318  0.00  0.00    +0.000 C 
ENDBRANCH   1  15
BRANCH   4  16
ATOM     16  O   UNL     1       5.868   3.455  18.906  0.00  0.00    +0.000 OA
ATOM     17  H   UNL     1       6.781   3.656  19.169  0.00  0.00    +0.000 HD
ENDBRANCH   4  16
BRANCH   6  18
ATOM     18  O   UNL     1       6.576   7.497  16.847  0.00  0.00    +0.000 OA
BRANCH  18  19
ATOM     19  C   UNL     1       7.738   7.768  17.595  0.00  0.00    +0.000 C 
BRANCH  19  20
ATOM     20  C   UNL     1       8.094   9.246  17.654  0.00  0.00    +0.000 C 
BRANCH  20  21
ATOM     21  C   UNL     1       8.819   9.525  18.976  0.00  0.00    +0.000 C 
BRANCH  21  22
ATOM     22  C   UNL     1       9.861  10.653  18.909  0.00  0.00    +0.000 C 
BRANCH  22  23
ATOM     23  C   UNL     1       9.353  12.050  19.299  0.00  0.00    +0.000 C 
BRANCH  23  24
ATOM     24  C   UNL     1       9.294  13.149  18.184  0.00  0.00    +0.000 C 
ATOM     25  C   UNL     1      10.518  13.030  17.249  0.00  0.00    +0.000 C 
ATOM     26  C   UNL     1       8.034  12.882  17.333  0.00  0.00    +0.000 C 
BRANCH  24  27
ATOM     27  C   UNL     1       9.179  14.531  18.770  0.00  0.00    +0.000 A 
ATOM     28  N   UNL     1       9.884  15.601  18.278  0.00  0.00    +0.000 NA
ATOM     29  N   UNL     1       9.452  16.670  18.931  0.00  0.00    +0.000 NA
ATOM     30  N   UNL     1       8.525  16.202  19.775  0.00  0.00    +0.000 N 
ATOM     31  N   UNL     1       8.317  14.876  19.743  0.00  0.00    +0.000 NA
ATOM     32  H   UNL     1       7.992  16.820  20.380  0.00  0.00    +0.000 HD
ENDBRANCH  24  27
ENDBRANCH  23  24
ENDBRANCH  22  23
ENDBRANCH  21  22
ENDBRANCH  20  21
ENDBRANCH  19  20
ENDBRANCH  18  19
ENDBRANCH   6  18
TORSDOF 11
ENDMDL
MODEL 3
REMARK VINA RESULT:      -7.8      7.170     10.374
REMARK  Name = 
REMARK  15 active torsions:
REMARK  status: ('A' for Active; 'I' for Inactive)
REMARK    1  A    between atoms: C_1  and  C_2
REMARK    2  A    between atoms: C_2  and  C_3
REMARK    3  A    between atoms: C_5  and  C_6
REMARK    4  A    between atoms: C_11  and  C_12
REMARK    5  A    between atoms: C_13  and  O_14
REMARK    6  A    between atoms: C_16  and  O_17
REMARK    7  A    between atoms: O_17  and  C_18
REMARK    8  A    between atoms: C_18  and  C_19
REMARK    9  A    between atoms: C_19  and  C_20
REMARK   10  A    between atoms: C_20  and  C_21
REMARK   11  A    between atoms: C_21  and  C_22
REMARK   12  A    between atoms: C_22  and  C_23
REMARK   13  A    between atoms: C_23  and  C_24
REMARK   14  A    between atoms: C_23  and  C_25
REMARK   15  A    between atoms: C_23  and  C_26
REMARK                            x       y       z     vdW  Elec       q    Type
REMARK                         _______ _______ _______ _____ _____    ______ ____
ROOT
ATOM      1  C   UNL     1      -0.353  10.459  19.675  0.00  0.00    +0.000 A 
ATOM      2  C   UNL     1      -0.981  11.375  20.551  0.00  0.00    +0.000 A 
ATOM      3  C   UNL     1      -0.928  11.300  21.948  0.00  0.00    +0.000 A 
ATOM      4  C   UNL     1      -0.092  10.306  22.469  0.00  0.00    +0.000 A 
ATOM      5  C   UNL     1       0.636   9.451  21.633  0.00  0.00    +0.000 A 
ATOM      6  C   UNL     1       0.501   9.496  20.240  0.00  0.00    +0.000 A 
ENDROOT
BRANCH   3   7
ATOM      7  C   UNL     1      -1.703  12.276  22.768  0.00  0.00    +0.000 A 
ATOM      8  C   UNL     1      -2.893  11.842  23.396  0.00  0.00    +0.000 A 
ATOM      9  C   UNL     1      -3.676  12.701  24.168  0.00  0.00    +0.000 A 
ATOM     10  C   UNL     1      -3.265  14.006  24.393  0.00  0.00    +0.000 A 
ATOM     11  C   UNL     1      -2.078  14.458  23.827  0.00  0.00    +0.000 A 
ATOM     12  C   UNL     1      -1.301  13.625  22.995  0.00  0.00    +0.000 A 
ATOM     13  C   UNL     1      -0.058  14.254  22.408  0.00  0.00    +0.000 C 
ENDBRANCH   3   7
BRANCH   1  15
ATOM     14  C   UNL     1      -1.433  12.017  17.990  0.00  0.00    +0.000 C 
ATOM     15  C   UNL     1      -0.717  10.692  18.220  0.00  0.00    +0.000 C 
ENDBRANCH   1  15
BRANCH   4  16
ATOM     16  O   UNL     1       0.095  10.076  23.808  0.00  0.00    +0.000 OA
ATOM     17  H   UNL     1      -0.438  10.725  24.296  0.00  0.00    +0.000 HD
ENDBRANCH   4  16
BRANCH   6  18
ATOM     18  O   UNL     1       1.284   8.533  19.651  0.00  0.00    +0.000 OA
BRANCH  18  19
ATOM     19  C   UNL     1       1.640   7.435  20.457  0.00  0.00    +0.000 C 
BRANCH  19  20
ATOM     20  C   UNL     1       2.723   6.557  19.848  0.00  0.00    +0.000 C 
BRANCH  20  21
ATOM     21  C   UNL     1       2.470   6.439  18.341  0.00  0.00    +0.000 C 
BRANCH  21  22
ATOM     22  C   UNL     1       3.298   5.352  17.636  0.00  0.00    +0.000 C 
BRANCH  22  23
ATOM     23  C   UNL     1       2.707   3.934  17.682  0.00  0.00    +0.000 C 
BRANCH  23  24
ATOM     24  C   UNL     1       3.302   2.923  18.720  0.00  0.00    +0.000 C 
ATOM     25  C   UNL     1       3.532   1.547  18.058  0.00  0.00    +0.000 C 
ATOM     26  C   UNL     1       4.683   3.462  19.156  0.00  0.00    +0.000 C 
BRANCH  24  27
ATOM     27  C   UNL     1       2.437   2.809  19.947  0.00  0.00    +0.000 A 
ATOM     28  N   UNL     1       2.960   2.723  21.213  0.00  0.00    +0.000 NA
ATOM     29  N   UNL     1       1.934   2.766  22.049  0.00  0.00    +0.000 NA
ATOM     30  N   UNL     1       0.857   2.869  21.262  0.00  0.00    +0.000 N 
ATOM     31  N   UNL     1       1.094   2.881  19.941  0.00  0.00    +0.000 NA
ATOM     32  H   UNL     1      -0.079   2.962  21.646  0.00  0.00    +0.000 HD
ENDBRANCH  24  27
ENDBRANCH  23  24
ENDBRANCH  22  23
ENDBRANCH  21  22
ENDBRANCH  20  21
ENDBRANCH  19  20
ENDBRANCH  18  19
ENDBRANCH   6  18
TORSDOF 11
ENDMDL
MODEL 4
REMARK VINA RESULT:      -7.6      5.778      8.977
REMARK  Name = 
REMARK  15 active torsions:
REMARK  status: ('A' for Active; 'I' for Inactive)
REMARK    1  A    between atoms: C_1  and  C_2
REMARK    2  A    between atoms: C_2  and  C_3
REMARK    3  A    between atoms: C_5  and  C_6
REMARK    4  A    between atoms: C_11  and  C_12
REMARK    5  A    between atoms: C_13  and  O_14
REMARK    6  A    between atoms: C_16  and  O_17
REMARK    7  A    between atoms: O_17  and  C_18
REMARK    8  A    between atoms: C_18  and  C_19
REMARK    9  A    between atoms: C_19  and  C_20
REMARK   10  A    between atoms: C_20  and  C_21
REMARK   11  A    between atoms: C_21  and  C_22
REMARK   12  A    between atoms: C_22  and  C_23
REMARK   13  A    between atoms: C_23  and  C_24
REMARK   14  A    between atoms: C_23  and  C_25
REMARK   15  A    between atoms: C_23  and  C_26
REMARK                            x       y       z     vdW  Elec       q    Type
REMARK                         _______ _______ _______ _____ _____    ______ ____
ROOT
ATOM      1  C   UNL     1       0.816   9.556  19.742  0.00  0.00    +0.000 A 
ATOM      2  C   UNL     1       0.130  10.608  20.392  0.00  0.00    +0.000 A 
ATOM      3  C   UNL     1      -0.072  10.687  21.775  0.00  0.00    +0.000 A 
ATOM      4  C   UNL     1       0.565   9.701  22.537  0.00  0.00    +0.000 A 
ATOM      5  C   UNL     1       1.349   8.708  21.939  0.00  0.00    +0.000 A 
ATOM      6  C   UNL     1       1.466   8.604  20.547  0.00  0.00    +0.000 A 
ENDROOT
BRANCH   3   7
ATOM      7  C   UNL     1      -0.888  11.802  22.338  0.00  0.00    +0.000 A 
ATOM      8  C   UNL     1      -2.082  11.491  23.025  0.00  0.00    +0.000 A 
ATOM      9  C   UNL     1      -2.903  12.481  23.568  0.00  0.00    +0.000 A 
ATOM     10  C   UNL     1      -2.526  13.813  23.498  0.00  0.00    +0.000 A 
ATOM     11  C   UNL     1      -1.336  14.157  22.865  0.00  0.00    +0.000 A 
ATOM     12  C   UNL     1      -0.521  13.179  22.259  0.00  0.00    +0.000 A 
ATOM     13  C   UNL     1       0.721  13.691  21.567  0.00  0.00    +0.000 C 
ENDBRANCH   3   7
BRANCH   1  15
ATOM     14  C   UNL     1      -0.659   9.990  17.724  0.00  0.00    +0.000 C 
ATOM     15  C   UNL     1       0.738   9.648  18.229  0.00  0.00    +0.000 C 
ENDBRANCH   1  15
BRANCH   4  16
ATOM     16  O   UNL     1       0.491   9.612  23.904  0.00  0.00    +0.000 OA
ATOM     17  H   UNL     1      -0.152  10.272  24.208  0.00  0.00    +0.000 HD
ENDBRANCH   4  16
BRANCH   6  18
ATOM     18  O   UNL     1       2.250   7.527  20.210  0.00  0.00    +0.000 OA
BRANCH  18  19
ATOM     19  C   UNL     1       1.575   6.376  19.761  0.00  0.00    +0.000 C 
BRANCH  19  20
ATOM     20  C   UNL     1       1.713   5.184  20.696  0.00  0.00    +0.000 C 
BRANCH  20  21
ATOM     21  C   UNL     1       2.227   3.985  19.892  0.00  0.00    +0.000 C 
BRANCH  21  22
ATOM     22  C   UNL     1       2.534   4.288  18.416  0.00  0.00    +0.000 C 
BRANCH  22  23
ATOM     23  C   UNL     1       3.846   3.696  17.876  0.00  0.00    +0.000 C 
BRANCH  23  24
ATOM     24  C   UNL     1       4.929   4.687  17.329  0.00  0.00    +0.000 C 
ATOM     25  C   UNL     1       5.358   4.278  15.902  0.00  0.00    +0.000 C 
ATOM     26  C   UNL     1       4.276   6.084  17.233  0.00  0.00    +0.000 C 
BRANCH  24  27
ATOM     27  C   UNL     1       6.112   4.786  18.255  0.00  0.00    +0.000 A 
ATOM     28  N   UNL     1       7.381   4.437  17.868  0.00  0.00    +0.000 NA
ATOM     29  N   UNL     1       8.185   4.766  18.869  0.00  0.00    +0.000 NA
ATOM     30  N   UNL     1       7.375   5.286  19.799  0.00  0.00    +0.000 N 
ATOM     31  N   UNL     1       6.069   5.311  19.492  0.00  0.00    +0.000 NA
ATOM     32  H   UNL     1       7.735   5.665  20.670  0.00  0.00    +0.000 HD
ENDBRANCH  24  27
ENDBRANCH  23  24
ENDBRANCH  22  23
ENDBRANCH  21  22
ENDBRANCH  20  21
ENDBRANCH  19  20
ENDBRANCH  18  19
ENDBRANCH   6  18
TORSDOF 11
ENDMDL
MODEL 5
REMARK VINA RESULT:      -7.6      1.932      2.685
REMARK  Name = 
REMARK  15 active torsions:
REMARK  status: ('A' for Active; 'I' for Inactive)
REMARK    1  A    between atoms: C_1  and  C_2
REMARK    2  A    between atoms: C_2  and  C_3
REMARK    3  A    between atoms: C_5  and  C_6
REMARK    4  A    between atoms: C_11  and  C_12
REMARK    5  A    between atoms: C_13  and  O_14
REMARK    6  A    between atoms: C_16  and  O_17
REMARK    7  A    between atoms: O_17  and  C_18
REMARK    8  A    between atoms: C_18  and  C_19
REMARK    9  A    between atoms: C_19  and  C_20
REMARK   10  A    between atoms: C_20  and  C_21
REMARK   11  A    between atoms: C_21  and  C_22
REMARK   12  A    between atoms: C_22  and  C_23
REMARK   13  A    between atoms: C_23  and  C_24
REMARK   14  A    between atoms: C_23  and  C_25
REMARK   15  A    between atoms: C_23  and  C_26
REMARK                            x       y       z     vdW  Elec       q    Type
REMARK                         _______ _______ _______ _____ _____    ______ ____
ROOT
ATOM      1  C   UNL     1       5.969   5.422  16.225  0.00  0.00    +0.000 A 
ATOM      2  C   UNL     1       4.811   4.711  16.616  0.00  0.00    +0.000 A 
ATOM      3  C   UNL     1       4.285   4.705  17.913  0.00  0.00    +0.000 A 
ATOM      4  C   UNL     1       4.910   5.565  18.824  0.00  0.00    +0.000 A 
ATOM      5  C   UNL     1       5.989   6.372  18.444  0.00  0.00    +0.000 A 
ATOM      6  C   UNL     1       6.547   6.297  17.161  0.00  0.00    +0.000 A 
ENDROOT
BRANCH   3   7
ATOM      7  C   UNL     1       3.106   3.847  18.227  0.00  0.00    +0.000 A 
ATOM      8  C   UNL     1       1.836   4.232  17.741  0.00  0.00    +0.000 A 
ATOM      9  C   UNL     1       0.687   3.486  18.004  0.00  0.00    +0.000 A 
ATOM     10  C   UNL     1       0.775   2.295  18.709  0.00  0.00    +0.000 A 
ATOM     11  C   UNL     1       2.014   1.861  19.169  0.00  0.00    +0.000 A 
ATOM     12  C   UNL     1       3.179   2.628  18.965  0.00  0.00    +0.000 A 
ATOM     13  C   UNL     1       4.452   2.065  19.554  0.00  0.00    +0.000 C 
ENDBRANCH   3   7
BRANCH   1  15
ATOM     14  C   UNL     1       5.944   3.736  14.329  0.00  0.00    +0.000 C 
ATOM     15  C   UNL     1       6.397   5.112  14.802  0.00  0.00    +0.000 C 
ENDBRANCH   1  15
BRANCH   4  16
ATOM     16  O   UNL     1       4.540   5.703  20.137  0.00  0.00    +0.000 OA
ATOM     17  H   UNL     1       5.348   5.693  20.674  0.00  0.00    +0.000 HD
ENDBRANCH   4  16
BRANCH   6  18
ATOM     18  O   UNL     1       7.617   7.152  17.052  0.00  0.00    +0.000 OA
BRANCH  18  19
ATOM     19  C   UNL     1       7.410   8.474  17.492  0.00  0.00    +0.000 C 
BRANCH  19  20
ATOM     20  C   UNL     1       8.689   9.292  17.583  0.00  0.00    +0.000 C 
BRANCH  20  21
ATOM     21  C   UNL     1       8.882   9.742  19.036  0.00  0.00    +0.000 C 
BRANCH  21  22
ATOM     22  C   UNL     1       9.924  10.856  19.228  0.00  0.00    +0.000 C 
BRANCH  22  23
ATOM     23  C   UNL     1       9.842  12.021  18.229  0.00  0.00    +0.000 C 
BRANCH  23  24
ATOM     24  C   UNL     1       9.905  13.481  18.794  0.00  0.00    +0.000 C 
ATOM     25  C   UNL     1       8.551  13.870  19.426  0.00  0.00    +0.000 C 
ATOM     26  C   UNL     1      10.963  13.499  19.919  0.00  0.00    +0.000 C 
BRANCH  24  27
ATOM     27  C   UNL     1      10.327  14.469  17.739  0.00  0.00    +0.000 A 
ATOM     28  N   UNL     1       9.899  15.773  17.738  0.00  0.00    +0.000 NA
ATOM     29  N   UNL     1      10.554  16.384  16.762  0.00  0.00    +0.000 NA
ATOM     30  N   UNL     1      11.332  15.435  16.227  0.00  0.00    +0.000 N 
ATOM     31  N   UNL     1      11.226  14.213  16.772  0.00  0.00    +0.000 NA
ATOM     32  H   UNL     1      11.981  15.638  15.472  0.00  0.00    +0.000 HD
ENDBRANCH  24  27
ENDBRANCH  23  24
ENDBRANCH  22  23
ENDBRANCH  21  22
ENDBRANCH  20  21
ENDBRANCH  19  20
ENDBRANCH  18  19
ENDBRANCH   6  18
TORSDOF 11
ENDMDL
MODEL 6
REMARK VINA RESULT:      -7.6      7.033      9.424
REMARK  Name = 
REMARK  15 active torsions:
REMARK  status: ('A' for Active; 'I' for Inactive)
REMARK    1  A    between atoms: C_1  and  C_2
REMARK    2  A    between atoms: C_2  and  C_3
REMARK    3  A    between atoms: C_5  and  C_6
REMARK    4  A    between atoms: C_11  and  C_12
REMARK    5  A    between atoms: C_13  and  O_14
REMARK    6  A    between atoms: C_16  and  O_17
REMARK    7  A    between atoms: O_17  and  C_18
REMARK    8  A    between atoms: C_18  and  C_19
REMARK    9  A    between atoms: C_19  and  C_20
REMARK   10  A    between atoms: C_20  and  C_21
REMARK   11  A    between atoms: C_21  and  C_22
REMARK   12  A    between atoms: C_22  and  C_23
REMARK   13  A    between atoms: C_23  and  C_24
REMARK   14  A    between atoms: C_23  and  C_25
REMARK   15  A    between atoms: C_23  and  C_26
REMARK                            x       y       z     vdW  Elec       q    Type
REMARK                         _______ _______ _______ _____ _____    ______ ____
ROOT
ATOM      1  C   UNL     1       1.592   9.061  18.728  0.00  0.00    +0.000 A 
ATOM      2  C   UNL     1       2.257   8.001  18.069  0.00  0.00    +0.000 A 
ATOM      3  C   UNL     1       2.699   6.831  18.697  0.00  0.00    +0.000 A 
ATOM      4  C   UNL     1       2.336   6.690  20.042  0.00  0.00    +0.000 A 
ATOM      5  C   UNL     1       1.579   7.667  20.699  0.00  0.00    +0.000 A 
ATOM      6  C   UNL     1       1.219   8.865  20.069  0.00  0.00    +0.000 A 
ENDROOT
BRANCH   3   7
ATOM      7  C   UNL     1       3.467   5.819  17.914  0.00  0.00    +0.000 A 
ATOM      8  C   UNL     1       4.799   6.112  17.547  0.00  0.00    +0.000 A 
ATOM      9  C   UNL     1       5.574   5.220  16.804  0.00  0.00    +0.000 A 
ATOM     10  C   UNL     1       5.066   3.977  16.457  0.00  0.00    +0.000 A 
ATOM     11  C   UNL     1       3.773   3.636  16.835  0.00  0.00    +0.000 A 
ATOM     12  C   UNL     1       2.951   4.544  17.535  0.00  0.00    +0.000 A 
ATOM     13  C   UNL     1       1.553   4.064  17.846  0.00  0.00    +0.000 C 
ENDBRANCH   3   7
BRANCH   1  15
ATOM     14  C   UNL     1       1.859  11.569  18.462  0.00  0.00    +0.000 C 
ATOM     15  C   UNL     1       1.378  10.268  17.833  0.00  0.00    +0.000 C 
ENDBRANCH   1  15
BRANCH   4  16
ATOM     16  O   UNL     1       2.672   5.616  20.825  0.00  0.00    +0.000 OA
ATOM     17  H   UNL     1       2.057   4.895  20.617  0.00  0.00    +0.000 HD
ENDBRANCH   4  16
BRANCH   6  18
ATOM     18  O   UNL     1       0.521   9.671  20.936  0.00  0.00    +0.000 OA
BRANCH  18  19
ATOM     19  C   UNL     1      -0.155   9.024  21.988  0.00  0.00    +0.000 C 
BRANCH  19  20
ATOM     20  C   UNL     1      -0.217   9.844  23.268  0.00  0.00    +0.000 C 
BRANCH  20  21
ATOM     21  C   UNL     1      -1.352  10.867  23.141  0.00  0.00    +0.000 C 
BRANCH  21  22
ATOM     22  C   UNL     1      -0.905  12.266  22.689  0.00  0.00    +0.000 C 
BRANCH  22  23
ATOM     23  C   UNL     1      -1.660  13.443  23.327  0.00  0.00    +0.000 C 
BRANCH  23  24
ATOM     24  C   UNL     1      -2.963  13.950  22.621  0.00  0.00    +0.000 C 
ATOM     25  C   UNL     1      -2.928  15.487  22.469  0.00  0.00    +0.000 C 
ATOM     26  C   UNL     1      -2.987  13.346  21.200  0.00  0.00    +0.000 C 
BRANCH  24  27
ATOM     27  C   UNL     1      -4.203  13.495  23.344  0.00  0.00    +0.000 A 
ATOM     28  N   UNL     1      -4.343  12.221  23.835  0.00  0.00    +0.000 NA
ATOM     29  N   UNL     1      -5.480  12.201  24.515  0.00  0.00    +0.000 NA
ATOM     30  N   UNL     1      -5.966  13.443  24.401  0.00  0.00    +0.000 N 
ATOM     31  N   UNL     1      -5.233  14.295  23.667  0.00  0.00    +0.000 NA
ATOM     32  H   UNL     1      -6.824  13.725  24.866  0.00  0.00    +0.000 HD
ENDBRANCH  24  27
ENDBRANCH  23  24
ENDBRANCH  22  23
ENDBRANCH  21  22
ENDBRANCH  20  21
ENDBRANCH  19  20
ENDBRANCH  18  19
ENDBRANCH   6  18
TORSDOF 11
ENDMDL
MODEL 7
REMARK VINA RESULT:      -7.5      1.438      2.255
REMARK  Name = 
REMARK  15 active torsions:
REMARK  status: ('A' for Active; 'I' for Inactive)
REMARK    1  A    between atoms: C_1  and  C_2
REMARK    2  A    between atoms: C_2  and  C_3
REMARK    3  A    between atoms: C_5  and  C_6
REMARK    4  A    between atoms: C_11  and  C_12
REMARK    5  A    between atoms: C_13  and  O_14
REMARK    6  A    between atoms: C_16  and  O_17
REMARK    7  A    between atoms: O_17  and  C_18
REMARK    8  A    between atoms: C_18  and  C_19
REMARK    9  A    between atoms: C_19  and  C_20
REMARK   10  A    between atoms: C_20  and  C_21
REMARK   11  A    between atoms: C_21  and  C_22
REMARK   12  A    between atoms: C_22  and  C_23
REMARK   13  A    between atoms: C_23  and  C_24
REMARK   14  A    between atoms: C_23  and  C_25
REMARK   15  A    between atoms: C_23  and  C_26
REMARK                            x       y       z     vdW  Elec       q    Type
REMARK                         _______ _______ _______ _____ _____    ______ ____
ROOT
ATOM      1  C   UNL     1       5.639   5.719  16.026  0.00  0.00    +0.000 A 
ATOM      2  C   UNL     1       4.531   4.993  16.523  0.00  0.00    +0.000 A 
ATOM      3  C   UNL     1       4.280   4.762  17.880  0.00  0.00    +0.000 A 
ATOM      4  C   UNL     1       5.142   5.407  18.775  0.00  0.00    +0.000 A 
ATOM      5  C   UNL     1       6.182   6.227  18.323  0.00  0.00    +0.000 A 
ATOM      6  C   UNL     1       6.461   6.376  16.958  0.00  0.00    +0.000 A 
ENDROOT
BRANCH   3   7
ATOM      7  C   UNL     1       3.124   3.907  18.281  0.00  0.00    +0.000 A 
ATOM      8  C   UNL     1       3.100   2.557  17.864  0.00  0.00    +0.000 A 
ATOM      9  C   UNL     1       2.047   1.701  18.189  0.00  0.00    +0.000 A 
ATOM     10  C   UNL     1       1.012   2.147  18.996  0.00  0.00    +0.000 A 
ATOM     11  C   UNL     1       1.020   3.457  19.461  0.00  0.00    +0.000 A 
ATOM     12  C   UNL     1       2.044   4.356  19.097  0.00  0.00    +0.000 A 
ATOM     13  C   UNL     1       1.909   5.763  19.633  0.00  0.00    +0.000 C 
ENDBRANCH   3   7
BRANCH   1  15
ATOM     14  C   UNL     1       6.796   4.684  14.020  0.00  0.00    +0.000 C 
ATOM     15  C   UNL     1       5.744   5.669  14.513  0.00  0.00    +0.000 C 
ENDBRANCH   1  15
BRANCH   4  16
ATOM     16  O   UNL     1       5.057   5.307  20.140  0.00  0.00    +0.000 OA
ATOM     17  H   UNL     1       4.507   6.041  20.455  0.00  0.00    +0.000 HD
ENDBRANCH   4  16
BRANCH   6  18
ATOM     18  O   UNL     1       7.551   7.193  16.777  0.00  0.00    +0.000 OA
BRANCH  18  19
ATOM     19  C   UNL     1       8.156   7.697  17.944  0.00  0.00    +0.000 C 
BRANCH  19  20
ATOM     20  C   UNL     1       8.411   9.197  17.898  0.00  0.00    +0.000 C 
BRANCH  20  21
ATOM     21  C   UNL     1       8.835   9.666  19.295  0.00  0.00    +0.000 C 
BRANCH  21  22
ATOM     22  C   UNL     1       9.944  10.730  19.304  0.00  0.00    +0.000 C 
BRANCH  22  23
ATOM     23  C   UNL     1      10.242  11.389  17.947  0.00  0.00    +0.000 C 
BRANCH  23  24
ATOM     24  C   UNL     1      10.484  12.936  17.919  0.00  0.00    +0.000 C 
ATOM     25  C   UNL     1      11.397  13.358  19.091  0.00  0.00    +0.000 C 
ATOM     26  C   UNL     1      11.230  13.267  16.608  0.00  0.00    +0.000 C 
BRANCH  24  27
ATOM     27  C   UNL     1       9.187  13.702  17.925  0.00  0.00    +0.000 A 
ATOM     28  N   UNL     1       9.092  14.986  18.402  0.00  0.00    +0.000 NA
ATOM     29  N   UNL     1       7.860  15.395  18.140  0.00  0.00    +0.000 NA
ATOM     30  N   UNL     1       7.277  14.355  17.532  0.00  0.00    +0.000 N 
ATOM     31  N   UNL     1       8.039  13.260  17.383  0.00  0.00    +0.000 NA
ATOM     32  H   UNL     1       6.325  14.406  17.180  0.00  0.00    +0.000 HD
ENDBRANCH  24  27
ENDBRANCH  23  24
ENDBRANCH  22  23
ENDBRANCH  21  22
ENDBRANCH  20  21
ENDBRANCH  19  20
ENDBRANCH  18  19
ENDBRANCH   6  18
TORSDOF 11
ENDMDL
MODEL 8
REMARK VINA RESULT:      -7.5      4.497      7.397
REMARK  Name = 
REMARK  15 active torsions:
REMARK  status: ('A' for Active; 'I' for Inactive)
REMARK    1  A    between atoms: C_1  and  C_2
REMARK    2  A    between atoms: C_2  and  C_3
REMARK    3  A    between atoms: C_5  and  C_6
REMARK    4  A    between atoms: C_11  and  C_12
REMARK    5  A    between atoms: C_13  and  O_14
REMARK    6  A    between atoms: C_16  and  O_17
REMARK    7  A    between atoms: O_17  and  C_18
REMARK    8  A    between atoms: C_18  and  C_19
REMARK    9  A    between atoms: C_19  and  C_20
REMARK   10  A    between atoms: C_20  and  C_21
REMARK   11  A    between atoms: C_21  and  C_22
REMARK   12  A    between atoms: C_22  and  C_23
REMARK   13  A    between atoms: C_23  and  C_24
REMARK   14  A    between atoms: C_23  and  C_25
REMARK   15  A    between atoms: C_23  and  C_26
REMARK                            x       y       z     vdW  Elec       q    Type
REMARK                         _______ _______ _______ _____ _____    ______ ____
ROOT
ATOM      1  C   UNL     1       2.146   6.644  19.831  0.00  0.00    +0.000 A 
ATOM      2  C   UNL     1       1.559   7.792  20.412  0.00  0.00    +0.000 A 
ATOM      3  C   UNL     1       1.364   9.007  19.744  0.00  0.00    +0.000 A 
ATOM      4  C   UNL     1       1.679   9.004  18.380  0.00  0.00    +0.000 A 
ATOM      5  C   UNL     1       2.155   7.853  17.742  0.00  0.00    +0.000 A 
ATOM      6  C   UNL     1       2.417   6.675  18.453  0.00  0.00    +0.000 A 
ENDROOT
BRANCH   3   7
ATOM      7  C   UNL     1       0.813  10.177  20.488  0.00  0.00    +0.000 A 
ATOM      8  C   UNL     1       1.160  11.478  20.061  0.00  0.00    +0.000 A 
ATOM      9  C   UNL     1       0.693  12.619  20.715  0.00  0.00    +0.000 A 
ATOM     10  C   UNL     1      -0.188  12.501  21.778  0.00  0.00    +0.000 A 
ATOM     11  C   UNL     1      -0.586  11.238  22.202  0.00  0.00    +0.000 A 
ATOM     12  C   UNL     1      -0.082  10.070  21.594  0.00  0.00    +0.000 A 
ATOM     13  C   UNL     1      -0.561   8.762  22.179  0.00  0.00    +0.000 C 
ENDBRANCH   3   7
BRANCH   1  15
ATOM     14  C   UNL     1       1.307   4.448  20.786  0.00  0.00    +0.000 C 
ATOM     15  C   UNL     1       2.378   5.530  20.836  0.00  0.00    +0.000 C 
ENDBRANCH   1  15
BRANCH   4  16
ATOM     16  O   UNL     1       1.553  10.094  17.556  0.00  0.00    +0.000 OA
ATOM     17  H   UNL     1       2.406  10.558  17.549  0.00  0.00    +0.000 HD
ENDBRANCH   4  16
BRANCH   6  18
ATOM     18  O   UNL     1       2.916   5.709  17.612  0.00  0.00    +0.000 OA
BRANCH  18  19
ATOM     19  C   UNL     1       2.204   4.495  17.560  0.00  0.00    +0.000 C 
BRANCH  19  20
ATOM     20  C   UNL     1       3.054   3.276  17.883  0.00  0.00    +0.000 C 
BRANCH  20  21
ATOM     21  C   UNL     1       4.530   3.636  17.672  0.00  0.00    +0.000 C 
BRANCH  21  22
ATOM     22  C   UNL     1       5.276   4.049  18.951  0.00  0.00    +0.000 C 
BRANCH  22  23
ATOM     23  C   UNL     1       5.899   5.455  18.929  0.00  0.00    +0.000 C 
BRANCH  23  24
ATOM     24  C   UNL     1       7.148   5.692  18.014  0.00  0.00    +0.000 C 
ATOM     25  C   UNL     1       7.924   6.944  18.479  0.00  0.00    +0.000 C 
ATOM     26  C   UNL     1       8.086   4.477  18.183  0.00  0.00    +0.000 C 
BRANCH  24  27
ATOM     27  C   UNL     1       6.764   5.788  16.561  0.00  0.00    +0.000 A 
ATOM     28  N   UNL     1       7.342   5.006  15.593  0.00  0.00    +0.000 NA
ATOM     29  N   UNL     1       6.688   5.254  14.468  0.00  0.00    +0.000 NA
ATOM     30  N   UNL     1       5.764   6.161  14.803  0.00  0.00    +0.000 N 
ATOM     31  N   UNL     1       5.767   6.556  16.086  0.00  0.00    +0.000 NA
ATOM     32  H   UNL     1       5.086   6.507  14.131  0.00  0.00    +0.000 HD
ENDBRANCH  24  27
ENDBRANCH  23  24
ENDBRANCH  22  23
ENDBRANCH  21  22
ENDBRANCH  20  21
ENDBRANCH  19  20
ENDBRANCH  18  19
ENDBRANCH   6  18
TORSDOF 11
ENDMDL
MODEL 9
REMARK VINA RESULT:      -7.4      5.607      8.803
REMARK  Name = 
REMARK  15 active torsions:
REMARK  status: ('A' for Active; 'I' for Inactive)
REMARK    1  A    between atoms: C_1  and  C_2
REMARK    2  A    between atoms: C_2  and  C_3
REMARK    3  A    between atoms: C_5  and  C_6
REMARK    4  A    between atoms: C_11  and  C_12
REMARK    5  A    between atoms: C_13  and  O_14
REMARK    6  A    between atoms: C_16  and  O_17
REMARK    7  A    between atoms: O_17  and  C_18
REMARK    8  A    between atoms: C_18  and  C_19
REMARK    9  A    between atoms: C_19  and  C_20
REMARK   10  A    between atoms: C_20  and  C_21
REMARK   11  A    between atoms: C_21  and  C_22
REMARK   12  A    between atoms: C_22  and  C_23
REMARK   13  A    between atoms: C_23  and  C_24
REMARK   14  A    between atoms: C_23  and  C_25
REMARK   15  A    between atoms: C_23  and  C_26
REMARK                            x       y       z     vdW  Elec       q    Type
REMARK                         _______ _______ _______ _____ _____    ______ ____
ROOT
ATOM      1  C   UNL     1       1.080   9.150  21.477  0.00  0.00    +0.000 A 
ATOM      2  C   UNL     1       0.853  10.447  20.962  0.00  0.00    +0.000 A 
ATOM      3  C   UNL     1       1.144  10.841  19.651  0.00  0.00    +0.000 A 
ATOM      4  C   UNL     1       1.577   9.821  18.794  0.00  0.00    +0.000 A 
ATOM      5  C   UNL     1       1.705   8.500  19.238  0.00  0.00    +0.000 A 
ATOM      6  C   UNL     1       1.485   8.150  20.576  0.00  0.00    +0.000 A 
ENDROOT
BRANCH   3   7
ATOM      7  C   UNL     1       0.942  12.263  19.246  0.00  0.00    +0.000 A 
ATOM      8  C   UNL     1       2.018  13.168  19.384  0.00  0.00    +0.000 A 
ATOM      9  C   UNL     1       1.899  14.515  19.038  0.00  0.00    +0.000 A 
ATOM     10  C   UNL     1       0.721  14.990  18.482  0.00  0.00    +0.000 A 
ATOM     11  C   UNL     1      -0.347  14.121  18.292  0.00  0.00    +0.000 A 
ATOM     12  C   UNL     1      -0.269  12.769  18.688  0.00  0.00    +0.000 A 
ATOM     13  C   UNL     1      -1.516  11.944  18.467  0.00  0.00    +0.000 C 
ENDBRANCH   3   7
BRANCH   1  15
ATOM     14  C   UNL     1      -0.510   9.666  23.386  0.00  0.00    +0.000 C 
ATOM     15  C   UNL     1       0.823   9.057  22.971  0.00  0.00    +0.000 C 
ENDBRANCH   1  15
BRANCH   4  16
ATOM     16  O   UNL     1       1.908  10.007  17.476  0.00  0.00    +0.000 OA
ATOM     17  H   UNL     1       1.774  10.946  17.268  0.00  0.00    +0.000 HD
ENDBRANCH   4  16
BRANCH   6  18
ATOM     18  O   UNL     1       1.716   6.808  20.765  0.00  0.00    +0.000 OA
BRANCH  18  19
ATOM     19  C   UNL     1       1.899   6.034  19.603  0.00  0.00    +0.000 C 
BRANCH  19  20
ATOM     20  C   UNL     1       1.501   4.576  19.774  0.00  0.00    +0.000 C 
BRANCH  20  21
ATOM     21  C   UNL     1       2.196   3.746  18.688  0.00  0.00    +0.000 C 
BRANCH  21  22
ATOM     22  C   UNL     1       2.973   4.572  17.650  0.00  0.00    +0.000 C 
BRANCH  22  23
ATOM     23  C   UNL     1       4.181   3.868  17.011  0.00  0.00    +0.000 C 
BRANCH  23  24
ATOM     24  C   UNL     1       5.453   4.727  16.698  0.00  0.00    +0.000 C 
ATOM     25  C   UNL     1       6.151   4.206  15.422  0.00  0.00    +0.000 C 
ATOM     26  C   UNL     1       4.981   6.169  16.412  0.00  0.00    +0.000 C 
BRANCH  24  27
ATOM     27  C   UNL     1       6.399   4.767  17.868  0.00  0.00    +0.000 A 
ATOM     28  N   UNL     1       7.751   4.578  17.729  0.00  0.00    +0.000 NA
ATOM     29  N   UNL     1       8.288   4.805  18.919  0.00  0.00    +0.000 NA
ATOM     30  N   UNL     1       7.252   5.112  19.708  0.00  0.00    +0.000 N 
ATOM     31  N   UNL     1       6.043   5.088  19.125  0.00  0.00    +0.000 NA
ATOM     32  H   UNL     1       7.380   5.375  20.680  0.00  0.00    +0.000 HD
ENDBRANCH  24  27
ENDBRANCH  23  24
ENDBRANCH  22  23
ENDBRANCH  21  22
ENDBRANCH  20  21
ENDBRANCH  19  20
ENDBRANCH  18  19
ENDBRANCH   6  18
TORSDOF 11
ENDMDL
