MODEL 1
REMARK VINA RESULT:      -8.6      0.000      0.000
REMARK  Name = 
REMARK  2 active torsions:
REMARK  status: ('A' for Active; 'I' for Inactive)
REMARK    1  A    between atoms: C_4  and  O_5
REMARK    2  A    between atoms: C_8  and  C_9
REMARK                            x       y       z     vdW  Elec       q    Type
REMARK                         _______ _______ _______ _____ _____    ______ ____
ROOT
ATOM      1  N   UNL     1       8.501   5.253  20.432  0.00  0.00    +0.000 N 
ATOM      2  C   UNL     1       7.640   5.533  19.397  0.00  0.00    +0.000 A 
ATOM      3  N   UNL     1       7.966   6.534  18.587  0.00  0.00    +0.000 NA
ATOM      4  C   UNL     1       7.042   6.846  17.678  0.00  0.00    +0.000 A 
ATOM      5  C   UNL     1       5.814   6.230  17.527  0.00  0.00    +0.000 A 
ATOM      6 CL   UNL     1       4.673   6.883  16.408  0.00  0.00    +0.000 Cl
ATOM      7  C   UNL     1       5.606   5.123  18.350  0.00  0.00    +0.000 A 
ATOM      8  N   UNL     1       6.539   4.782  19.280  0.00  0.00    +0.000 NA
ATOM      9  H   UNL     1       9.436   5.577  20.236  0.00  0.00    +0.000 HD
ATOM     10  H   UNL     1       8.385   4.306  20.761  0.00  0.00    +0.000 HD
ENDROOT
BRANCH   7  11
ATOM     11  C   UNL     1       4.430   4.190  18.256  0.00  0.00    +0.000 A 
ATOM     12  C   UNL     1       4.544   3.056  17.416  0.00  0.00    +0.000 A 
ATOM     13  C   UNL     1       3.490   2.179  17.183  0.00  0.00    +0.000 A 
ATOM     14  C   UNL     1       2.297   2.358  17.860  0.00  0.00    +0.000 A 
ATOM     15  C   UNL     1       2.160   3.380  18.802  0.00  0.00    +0.000 A 
ATOM     16  C   UNL     1       0.977   3.421  19.561  0.00  0.00    +0.000 A 
ATOM     17  C   UNL     1       0.790   4.379  20.549  0.00  0.00    +0.000 A 
ATOM     18  C   UNL     1       1.767   5.341  20.749  0.00  0.00    +0.000 A 
ATOM     19  C   UNL     1       2.935   5.333  19.974  0.00  0.00    +0.000 A 
ATOM     20  C   UNL     1       3.205   4.329  19.006  0.00  0.00    +0.000 A 
ENDBRANCH   7  11
BRANCH   4  21
ATOM     21  O   UNL     1       7.440   7.858  16.858  0.00  0.00    +0.000 OA
ATOM     22  H   UNL     1       8.102   8.303  17.417  0.00  0.00    +0.000 HD
ENDBRANCH   4  21
TORSDOF 2
ENDMDL
MODEL 2
REMARK VINA RESULT:      -8.4      0.914      2.433
REMARK  Name = 
REMARK  2 active torsions:
REMARK  status: ('A' for Active; 'I' for Inactive)
REMARK    1  A    between atoms: C_4  and  O_5
REMARK    2  A    between atoms: C_8  and  C_9
REMARK                            x       y       z     vdW  Elec       q    Type
REMARK                         _______ _______ _______ _____ _____    ______ ____
ROOT
ATOM      1  N   UNL     1       8.510   5.272  20.349  0.00  0.00    +0.000 N 
ATOM      2  C   UNL     1       7.554   5.446  19.376  0.00  0.00    +0.000 A 
ATOM      3  N   UNL     1       7.975   5.785  18.161  0.00  0.00    +0.000 NA
ATOM      4  C   UNL     1       7.007   6.063  17.288  0.00  0.00    +0.000 A 
ATOM      5  C   UNL     1       5.649   6.031  17.547  0.00  0.00    +0.000 A 
ATOM      6 CL   UNL     1       4.547   6.591  16.342  0.00  0.00    +0.000 Cl
ATOM      7  C   UNL     1       5.302   5.561  18.814  0.00  0.00    +0.000 A 
ATOM      8  N   UNL     1       6.274   5.264  19.718  0.00  0.00    +0.000 NA
ATOM      9  H   UNL     1       9.411   5.053  19.950  0.00  0.00    +0.000 HD
ATOM     10  H   UNL     1       8.169   4.692  21.100  0.00  0.00    +0.000 HD
ENDROOT
BRANCH   7  11
ATOM     11  C   UNL     1       3.898   5.275  19.269  0.00  0.00    +0.000 A 
ATOM     12  C   UNL     1       3.162   6.328  19.864  0.00  0.00    +0.000 A 
ATOM     13  C   UNL     1       1.892   6.152  20.402  0.00  0.00    +0.000 A 
ATOM     14  C   UNL     1       1.269   4.922  20.285  0.00  0.00    +0.000 A 
ATOM     15  C   UNL     1       1.886   3.876  19.593  0.00  0.00    +0.000 A 
ATOM     16  C   UNL     1       1.145   2.701  19.382  0.00  0.00    +0.000 A 
ATOM     17  C   UNL     1       1.675   1.637  18.663  0.00  0.00    +0.000 A 
ATOM     18  C   UNL     1       2.976   1.721  18.194  0.00  0.00    +0.000 A 
ATOM     19  C   UNL     1       3.738   2.874  18.429  0.00  0.00    +0.000 A 
ATOM     20  C   UNL     1       3.215   4.016  19.093  0.00  0.00    +0.000 A 
ENDBRANCH   7  11
BRANCH   4  21
ATOM     21  O   UNL     1       7.493   6.375  16.055  0.00  0.00    +0.000 OA
ATOM     22  H   UNL     1       6.905   5.851  15.483  0.00  0.00    +0.000 HD
ENDBRANCH   4  21
TORSDOF 2
ENDMDL
MODEL 3
REMARK VINA RESULT:      -8.1      1.341      1.389
REMARK  Name = 
REMARK  2 active torsions:
REMARK  status: ('A' for Active; 'I' for Inactive)
REMARK    1  A    between atoms: C_4  and  O_5
REMARK    2  A    between atoms: C_8  and  C_9
REMARK                            x       y       z     vdW  Elec       q    Type
REMARK                         _______ _______ _______ _____ _____    ______ ____
ROOT
ATOM      1  N   UNL     1       8.207   5.576  19.720  0.00  0.00    +0.000 N 
ATOM      2  C   UNL     1       7.429   5.189  18.656  0.00  0.00    +0.000 A 
ATOM      3  N   UNL     1       7.910   5.407  17.436  0.00  0.00    +0.000 NA
ATOM      4  C   UNL     1       7.067   5.130  16.441  0.00  0.00    +0.000 A 
ATOM      5  C   UNL     1       5.777   4.656  16.581  0.00  0.00    +0.000 A 
ATOM      6 CL   UNL     1       4.770   4.520  15.184  0.00  0.00    +0.000 Cl
ATOM      7  C   UNL     1       5.398   4.357  17.890  0.00  0.00    +0.000 A 
ATOM      8  N   UNL     1       6.245   4.624  18.920  0.00  0.00    +0.000 NA
ATOM      9  H   UNL     1       9.184   5.627  19.468  0.00  0.00    +0.000 HD
ATOM     10  H   UNL     1       7.959   5.074  20.559  0.00  0.00    +0.000 HD
ENDROOT
BRANCH   7  11
ATOM     11  C   UNL     1       4.116   3.674  18.279  0.00  0.00    +0.000 A 
ATOM     12  C   UNL     1       3.949   2.315  17.921  0.00  0.00    +0.000 A 
ATOM     13  C   UNL     1       2.771   1.612  18.149  0.00  0.00    +0.000 A 
ATOM     14  C   UNL     1       1.736   2.226  18.831  0.00  0.00    +0.000 A 
ATOM     15  C   UNL     1       1.884   3.523  19.329  0.00  0.00    +0.000 A 
ATOM     16  C   UNL     1       0.855   4.038  20.137  0.00  0.00    +0.000 A 
ATOM     17  C   UNL     1       0.952   5.301  20.706  0.00  0.00    +0.000 A 
ATOM     18  C   UNL     1       2.060   6.084  20.424  0.00  0.00    +0.000 A 
ATOM     19  C   UNL     1       3.076   5.596  19.590  0.00  0.00    +0.000 A 
ATOM     20  C   UNL     1       3.057   4.283  19.048  0.00  0.00    +0.000 A 
ENDBRANCH   7  11
BRANCH   4  21
ATOM     21  O   UNL     1       7.622   5.345  15.216  0.00  0.00    +0.000 OA
ATOM     22  H   UNL     1       7.025   6.025  14.856  0.00  0.00    +0.000 HD
ENDBRANCH   4  21
TORSDOF 2
ENDMDL
MODEL 4
REMARK VINA RESULT:      -8.0      1.721      2.568
REMARK  Name = 
REMARK  2 active torsions:
REMARK  status: ('A' for Active; 'I' for Inactive)
REMARK    1  A    between atoms: C_4  and  O_5
REMARK    2  A    between atoms: C_8  and  C_9
REMARK                            x       y       z     vdW  Elec       q    Type
REMARK                         _______ _______ _______ _____ _____    ______ ____
ROOT
ATOM      1  N   UNL     1       8.657   5.197  20.339  0.00  0.00    +0.000 N 
ATOM      2  C   UNL     1       7.709   5.085  19.350  0.00  0.00    +0.000 A 
ATOM      3  N   UNL     1       8.129   4.735  18.139  0.00  0.00    +0.000 NA
ATOM      4  C   UNL     1       7.194   4.762  17.189  0.00  0.00    +0.000 A 
ATOM      5  C   UNL     1       5.871   5.120  17.366  0.00  0.00    +0.000 A 
ATOM      6 CL   UNL     1       4.843   5.265  15.985  0.00  0.00    +0.000 Cl
ATOM      7  C   UNL     1       5.499   5.368  18.687  0.00  0.00    +0.000 A 
ATOM      8  N   UNL     1       6.436   5.338  19.673  0.00  0.00    +0.000 NA
ATOM      9  H   UNL     1       9.477   4.646  20.132  0.00  0.00    +0.000 HD
ATOM     10  H   UNL     1       8.245   5.109  21.255  0.00  0.00    +0.000 HD
ENDROOT
BRANCH   7  11
ATOM     11  C   UNL     1       4.089   5.607  19.154  0.00  0.00    +0.000 A 
ATOM     12  C   UNL     1       3.534   6.895  18.966  0.00  0.00    +0.000 A 
ATOM     13  C   UNL     1       2.276   7.252  19.439  0.00  0.00    +0.000 A 
ATOM     14  C   UNL     1       1.483   6.296  20.047  0.00  0.00    +0.000 A 
ATOM     15  C   UNL     1       1.917   4.972  20.147  0.00  0.00    +0.000 A 
ATOM     16  C   UNL     1       1.011   4.018  20.641  0.00  0.00    +0.000 A 
ATOM     17  C   UNL     1       1.355   2.675  20.726  0.00  0.00    +0.000 A 
ATOM     18  C   UNL     1       2.634   2.282  20.364  0.00  0.00    +0.000 A 
ATOM     19  C   UNL     1       3.559   3.230  19.904  0.00  0.00    +0.000 A 
ATOM     20  C   UNL     1       3.230   4.600  19.729  0.00  0.00    +0.000 A 
ENDBRANCH   7  11
BRANCH   4  21
ATOM     21  O   UNL     1       7.673   4.367  15.977  0.00  0.00    +0.000 OA
ATOM     22  H   UNL     1       7.649   3.398  16.072  0.00  0.00    +0.000 HD
ENDBRANCH   4  21
TORSDOF 2
ENDMDL
MODEL 5
REMARK VINA RESULT:      -7.9      2.336      2.816
REMARK  Name = 
REMARK  2 active torsions:
REMARK  status: ('A' for Active; 'I' for Inactive)
REMARK    1  A    between atoms: C_4  and  O_5
REMARK    2  A    between atoms: C_8  and  C_9
REMARK                            x       y       z     vdW  Elec       q    Type
REMARK                         _______ _______ _______ _____ _____    ______ ____
ROOT
ATOM      1  N   UNL     1       5.773   4.041  13.550  0.00  0.00    +0.000 N 
ATOM      2  C   UNL     1       5.833   4.495  14.846  0.00  0.00    +0.000 A 
ATOM      3  N   UNL     1       6.768   5.396  15.133  0.00  0.00    +0.000 NA
ATOM      4  C   UNL     1       6.867   5.711  16.425  0.00  0.00    +0.000 A 
ATOM      5  C   UNL     1       6.101   5.184  17.448  0.00  0.00    +0.000 A 
ATOM      6 CL   UNL     1       6.489   5.581  19.084  0.00  0.00    +0.000 Cl
ATOM      7  C   UNL     1       5.079   4.329  17.038  0.00  0.00    +0.000 A 
ATOM      8  N   UNL     1       4.954   4.000  15.724  0.00  0.00    +0.000 NA
ATOM      9  H   UNL     1       6.177   4.703  12.904  0.00  0.00    +0.000 HD
ATOM     10  H   UNL     1       4.863   3.663  13.335  0.00  0.00    +0.000 HD
ENDROOT
BRANCH   7  11
ATOM     11  C   UNL     1       4.013   3.768  17.940  0.00  0.00    +0.000 A 
ATOM     12  C   UNL     1       3.890   2.361  18.030  0.00  0.00    +0.000 A 
ATOM     13  C   UNL     1       2.885   1.736  18.761  0.00  0.00    +0.000 A 
ATOM     14  C   UNL     1       2.010   2.505  19.506  0.00  0.00    +0.000 A 
ATOM     15  C   UNL     1       2.157   3.893  19.566  0.00  0.00    +0.000 A 
ATOM     16  C   UNL     1       1.330   4.605  20.453  0.00  0.00    +0.000 A 
ATOM     17  C   UNL     1       1.451   5.980  20.601  0.00  0.00    +0.000 A 
ATOM     18  C   UNL     1       2.367   6.665  19.819  0.00  0.00    +0.000 A 
ATOM     19  C   UNL     1       3.172   5.971  18.905  0.00  0.00    +0.000 A 
ATOM     20  C   UNL     1       3.138   4.558  18.772  0.00  0.00    +0.000 A 
ENDBRANCH   7  11
BRANCH   4  21
ATOM     21  O   UNL     1       7.818   6.658  16.658  0.00  0.00    +0.000 OA
ATOM     22  H   UNL     1       7.318   7.299  17.193  0.00  0.00    +0.000 HD
ENDBRANCH   4  21
TORSDOF 2
ENDMDL
MODEL 6
REMARK VINA RESULT:      -7.5      2.311      3.175
REMARK  Name = 
REMARK  2 active torsions:
REMARK  status: ('A' for Active; 'I' for Inactive)
REMARK    1  A    between atoms: C_4  and  O_5
REMARK    2  A    between atoms: C_8  and  C_9
REMARK                            x       y       z     vdW  Elec       q    Type
REMARK                         _______ _______ _______ _____ _____    ______ ____
ROOT
ATOM      1  N   UNL     1       7.846   7.882  17.179  0.00  0.00    +0.000 N 
ATOM      2  C   UNL     1       6.982   6.819  17.067  0.00  0.00    +0.000 A 
ATOM      3  N   UNL     1       7.261   5.899  16.149  0.00  0.00    +0.000 NA
ATOM      4  C   UNL     1       6.330   4.958  15.995  0.00  0.00    +0.000 A 
ATOM      5  C   UNL     1       5.139   4.876  16.691  0.00  0.00    +0.000 A 
ATOM      6 CL   UNL     1       3.974   3.685  16.234  0.00  0.00    +0.000 Cl
ATOM      7  C   UNL     1       4.983   5.820  17.705  0.00  0.00    +0.000 A 
ATOM      8  N   UNL     1       5.924   6.786  17.885  0.00  0.00    +0.000 NA
ATOM      9  H   UNL     1       8.765   7.653  16.829  0.00  0.00    +0.000 HD
ATOM     10  H   UNL     1       7.779   8.318  18.086  0.00  0.00    +0.000 HD
ENDROOT
BRANCH   7  11
ATOM     11  C   UNL     1       3.859   5.831  18.705  0.00  0.00    +0.000 A 
ATOM     12  C   UNL     1       3.007   6.960  18.738  0.00  0.00    +0.000 A 
ATOM     13  C   UNL     1       1.995   7.116  19.680  0.00  0.00    +0.000 A 
ATOM     14  C   UNL     1       1.740   6.095  20.577  0.00  0.00    +0.000 A 
ATOM     15  C   UNL     1       2.457   4.898  20.514  0.00  0.00    +0.000 A 
ATOM     16  C   UNL     1       2.055   3.845  21.355  0.00  0.00    +0.000 A 
ATOM     17  C   UNL     1       2.691   2.611  21.315  0.00  0.00    +0.000 A 
ATOM     18  C   UNL     1       3.773   2.436  20.467  0.00  0.00    +0.000 A 
ATOM     19  C   UNL     1       4.206   3.490  19.650  0.00  0.00    +0.000 A 
ATOM     20  C   UNL     1       3.542   4.744  19.600  0.00  0.00    +0.000 A 
ENDBRANCH   7  11
BRANCH   4  21
ATOM     21  O   UNL     1       6.681   4.028  15.064  0.00  0.00    +0.000 OA
ATOM     22  H   UNL     1       5.806   3.733  14.755  0.00  0.00    +0.000 HD
ENDBRANCH   4  21
TORSDOF 2
ENDMDL
MODEL 7
REMARK VINA RESULT:      -7.3      3.447      5.754
REMARK  Name = 
REMARK  2 active torsions:
REMARK  status: ('A' for Active; 'I' for Inactive)
REMARK    1  A    between atoms: C_4  and  O_5
REMARK    2  A    between atoms: C_8  and  C_9
REMARK                            x       y       z     vdW  Elec       q    Type
REMARK                         _______ _______ _______ _____ _____    ______ ____
ROOT
ATOM      1  N   UNL     1       1.496   6.853  20.846  0.00  0.00    +0.000 N 
ATOM      2  C   UNL     1       2.104   5.714  20.374  0.00  0.00    +0.000 A 
ATOM      3  N   UNL     1       1.457   4.565  20.536  0.00  0.00    +0.000 NA
ATOM      4  C   UNL     1       2.141   3.479  20.176  0.00  0.00    +0.000 A 
ATOM      5  C   UNL     1       3.428   3.462  19.672  0.00  0.00    +0.000 A 
ATOM      6 CL   UNL     1       4.219   1.947  19.425  0.00  0.00    +0.000 Cl
ATOM      7  C   UNL     1       3.984   4.720  19.437  0.00  0.00    +0.000 A 
ATOM      8  N   UNL     1       3.301   5.842  19.790  0.00  0.00    +0.000 NA
ATOM      9  H   UNL     1       0.494   6.740  20.912  0.00  0.00    +0.000 HD
ATOM     10  H   UNL     1       1.851   7.678  20.386  0.00  0.00    +0.000 HD
ENDROOT
BRANCH   7  11
ATOM     11  C   UNL     1       5.294   4.964  18.739  0.00  0.00    +0.000 A 
ATOM     12  C   UNL     1       6.397   5.386  19.519  0.00  0.00    +0.000 A 
ATOM     13  C   UNL     1       7.627   5.728  18.966  0.00  0.00    +0.000 A 
ATOM     14  C   UNL     1       7.826   5.572  17.607  0.00  0.00    +0.000 A 
ATOM     15  C   UNL     1       6.822   5.034  16.798  0.00  0.00    +0.000 A 
ATOM     16  C   UNL     1       7.134   4.765  15.454  0.00  0.00    +0.000 A 
ATOM     17  C   UNL     1       6.201   4.188  14.602  0.00  0.00    +0.000 A 
ATOM     18  C   UNL     1       4.926   3.924  15.075  0.00  0.00    +0.000 A 
ATOM     19  C   UNL     1       4.592   4.222  16.404  0.00  0.00    +0.000 A 
ATOM     20  C   UNL     1       5.532   4.741  17.333  0.00  0.00    +0.000 A 
ENDBRANCH   7  11
BRANCH   4  21
ATOM     21  O   UNL     1       1.421   2.334  20.337  0.00  0.00    +0.000 OA
ATOM     22  H   UNL     1       1.376   2.010  19.420  0.00  0.00    +0.000 HD
ENDBRANCH   4  21
TORSDOF 2
ENDMDL
MODEL 8
REMARK VINA RESULT:      -7.3      2.693      3.660
REMARK  Name = 
REMARK  2 active torsions:
REMARK  status: ('A' for Active; 'I' for Inactive)
REMARK    1  A    between atoms: C_4  and  O_5
REMARK    2  A    between atoms: C_8  and  C_9
REMARK                            x       y       z     vdW  Elec       q    Type
REMARK                         _______ _______ _______ _____ _____    ______ ____
ROOT
ATOM      1  N   UNL     1       5.641   4.048  13.975  0.00  0.00    +0.000 N 
ATOM      2  C   UNL     1       5.932   4.450  15.256  0.00  0.00    +0.000 A 
ATOM      3  N   UNL     1       7.159   4.208  15.707  0.00  0.00    +0.000 NA
ATOM      4  C   UNL     1       7.354   4.503  16.993  0.00  0.00    +0.000 A 
ATOM      5  C   UNL     1       6.406   5.016  17.858  0.00  0.00    +0.000 A 
ATOM      6 CL   UNL     1       6.790   5.171  19.535  0.00  0.00    +0.000 Cl
ATOM      7  C   UNL     1       5.183   5.336  17.270  0.00  0.00    +0.000 A 
ATOM      8  N   UNL     1       4.965   5.052  15.957  0.00  0.00    +0.000 NA
ATOM      9  H   UNL     1       6.475   3.966  13.411  0.00  0.00    +0.000 HD
ATOM     10  H   UNL     1       4.861   4.563  13.596  0.00  0.00    +0.000 HD
ENDROOT
BRANCH   7  11
ATOM     11  C   UNL     1       4.060   6.060  17.961  0.00  0.00    +0.000 A 
ATOM     12  C   UNL     1       3.746   7.371  17.528  0.00  0.00    +0.000 A 
ATOM     13  C   UNL     1       2.790   8.165  18.154  0.00  0.00    +0.000 A 
ATOM     14  C   UNL     1       2.044   7.637  19.191  0.00  0.00    +0.000 A 
ATOM     15  C   UNL     1       2.211   6.305  19.582  0.00  0.00    +0.000 A 
ATOM     16  C   UNL     1       1.325   5.785  20.541  0.00  0.00    +0.000 A 
ATOM     17  C   UNL     1       1.400   4.459  20.944  0.00  0.00    +0.000 A 
ATOM     18  C   UNL     1       2.402   3.652  20.428  0.00  0.00    +0.000 A 
ATOM     19  C   UNL     1       3.314   4.169  19.498  0.00  0.00    +0.000 A 
ATOM     20  C   UNL     1       3.231   5.496  18.999  0.00  0.00    +0.000 A 
ENDBRANCH   7  11
BRANCH   4  21
ATOM     21  O   UNL     1       8.633   4.262  17.393  0.00  0.00    +0.000 OA
ATOM     22  H   UNL     1       8.579   3.322  17.638  0.00  0.00    +0.000 HD
ENDBRANCH   4  21
TORSDOF 2
ENDMDL
MODEL 9
REMARK VINA RESULT:      -7.2      3.562      5.529
REMARK  Name = 
REMARK  2 active torsions:
REMARK  status: ('A' for Active; 'I' for Inactive)
REMARK    1  A    between atoms: C_4  and  O_5
REMARK    2  A    between atoms: C_8  and  C_9
REMARK                            x       y       z     vdW  Elec       q    Type
REMARK                         _______ _______ _______ _____ _____    ______ ____
ROOT
ATOM      1  N   UNL     1       5.396   1.209  20.597  0.00  0.00    +0.000 N 
ATOM      2  C   UNL     1       4.377   2.131  20.634  0.00  0.00    +0.000 A 
ATOM      3  N   UNL     1       3.398   1.924  21.509  0.00  0.00    +0.000 NA
ATOM      4  C   UNL     1       2.375   2.775  21.420  0.00  0.00    +0.000 A 
ATOM      5  C   UNL     1       2.261   3.811  20.513  0.00  0.00    +0.000 A 
ATOM      6 CL   UNL     1       0.783   4.702  20.431  0.00  0.00    +0.000 Cl
ATOM      7  C   UNL     1       3.381   4.016  19.708  0.00  0.00    +0.000 A 
ATOM      8  N   UNL     1       4.440   3.165  19.788  0.00  0.00    +0.000 NA
ATOM      9  H   UNL     1       5.476   0.709  21.471  0.00  0.00    +0.000 HD
ATOM     10  H   UNL     1       6.233   1.601  20.196  0.00  0.00    +0.000 HD
ENDROOT
BRANCH   7  11
ATOM     11  C   UNL     1       3.566   5.177  18.770  0.00  0.00    +0.000 A 
ATOM     12  C   UNL     1       3.002   6.423  19.134  0.00  0.00    +0.000 A 
ATOM     13  C   UNL     1       3.033   7.538  18.303  0.00  0.00    +0.000 A 
ATOM     14  C   UNL     1       3.714   7.470  17.101  0.00  0.00    +0.000 A 
ATOM     15  C   UNL     1       4.404   6.310  16.740  0.00  0.00    +0.000 A 
ATOM     16  C   UNL     1       5.196   6.350  15.579  0.00  0.00    +0.000 A 
ATOM     17  C   UNL     1       5.948   5.251  15.183  0.00  0.00    +0.000 A 
ATOM     18  C   UNL     1       5.870   4.080  15.920  0.00  0.00    +0.000 A 
ATOM     19  C   UNL     1       5.056   4.016  17.060  0.00  0.00    +0.000 A 
ATOM     20  C   UNL     1       4.330   5.135  17.546  0.00  0.00    +0.000 A 
ENDBRANCH   7  11
BRANCH   4  21
ATOM     21  O   UNL     1       1.417   2.535  22.357  0.00  0.00    +0.000 OA
ATOM     22  H   UNL     1       1.958   2.450  23.162  0.00  0.00    +0.000 HD
ENDBRANCH   4  21
TORSDOF 2
ENDMDL
