MODEL 1
REMARK VINA RESULT:      -7.2      0.000      0.000
REMARK  Name = 
REMARK  3 active torsions:
REMARK  status: ('A' for Active; 'I' for Inactive)
REMARK    1  A    between atoms: C_1  and  C_2
REMARK    2  A    between atoms: C_2  and  N_3
REMARK    3  A    between atoms: N_12  and  C_13
REMARK                            x       y       z     vdW  Elec       q    Type
REMARK                         _______ _______ _______ _____ _____    ______ ____
ROOT
ATOM      1  N   UNL     1       2.439   3.627  19.232  0.00  0.00    +0.000 N 
ATOM      2  C   UNL     1       1.995   4.833  19.757  0.00  0.00    +0.000 A 
ATOM      3  O   UNL     1       1.229   4.926  20.711  0.00  0.00    +0.000 OA
ATOM      4  C   UNL     1       2.459   6.050  19.078  0.00  0.00    +0.000 A 
ATOM      5  C   UNL     1       1.833   7.269  19.385  0.00  0.00    +0.000 A 
ATOM      6  C   UNL     1       2.165   8.418  18.678  0.00  0.00    +0.000 A 
ATOM      7  C   UNL     1       3.135   8.350  17.683  0.00  0.00    +0.000 A 
ATOM      8  C   UNL     1       3.780   7.136  17.402  0.00  0.00    +0.000 A 
ATOM      9  C   UNL     1       3.448   5.961  18.096  0.00  0.00    +0.000 A 
ATOM     10  N   UNL     1       4.002   4.684  17.787  0.00  0.00    +0.000 N 
ATOM     11  C   UNL     1       3.471   3.496  18.305  0.00  0.00    +0.000 A 
ATOM     12  O   UNL     1       3.896   2.377  17.990  0.00  0.00    +0.000 OA
ENDROOT
BRANCH  10  13
ATOM     13  C   UNL     1       5.068   4.595  16.843  0.00  0.00    +0.000 A 
ATOM     14  C   UNL     1       6.395   4.738  17.270  0.00  0.00    +0.000 A 
ATOM     15  C   UNL     1       7.441   4.761  16.344  0.00  0.00    +0.000 A 
ATOM     16  C   UNL     1       7.169   4.655  14.983  0.00  0.00    +0.000 A 
ATOM     17  C   UNL     1       5.852   4.507  14.545  0.00  0.00    +0.000 A 
ATOM     18  C   UNL     1       4.803   4.473  15.469  0.00  0.00    +0.000 A 
ENDBRANCH  10  13
BRANCH   1  20
ATOM     19  C   UNL     1       0.601   1.975  19.036  0.00  0.00    +0.000 C 
ATOM     20  C   UNL     1       1.855   2.408  19.783  0.00  0.00    +0.000 C 
ENDBRANCH   1  20
TORSDOF 2
ENDMDL
MODEL 2
REMARK VINA RESULT:      -7.1      0.175      1.093
REMARK  Name = 
REMARK  3 active torsions:
REMARK  status: ('A' for Active; 'I' for Inactive)
REMARK    1  A    between atoms: C_1  and  C_2
REMARK    2  A    between atoms: C_2  and  N_3
REMARK    3  A    between atoms: N_12  and  C_13
REMARK                            x       y       z     vdW  Elec       q    Type
REMARK                         _______ _______ _______ _____ _____    ______ ____
ROOT
ATOM      1  N   UNL     1       2.518   3.729  19.296  0.00  0.00    +0.000 N 
ATOM      2  C   UNL     1       2.036   4.909  19.844  0.00  0.00    +0.000 A 
ATOM      3  O   UNL     1       1.293   4.960  20.819  0.00  0.00    +0.000 OA
ATOM      4  C   UNL     1       2.429   6.151  19.165  0.00  0.00    +0.000 A 
ATOM      5  C   UNL     1       1.759   7.339  19.501  0.00  0.00    +0.000 A 
ATOM      6  C   UNL     1       2.021   8.508  18.797  0.00  0.00    +0.000 A 
ATOM      7  C   UNL     1       2.967   8.492  17.777  0.00  0.00    +0.000 A 
ATOM      8  C   UNL     1       3.656   7.310  17.467  0.00  0.00    +0.000 A 
ATOM      9  C   UNL     1       3.394   6.114  18.158  0.00  0.00    +0.000 A 
ATOM     10  N   UNL     1       3.996   4.866  17.822  0.00  0.00    +0.000 N 
ATOM     11  C   UNL     1       3.531   3.651  18.341  0.00  0.00    +0.000 A 
ATOM     12  O   UNL     1       3.995   2.555  18.003  0.00  0.00    +0.000 OA
ENDROOT
BRANCH  10  13
ATOM     13  C   UNL     1       5.039   4.832  16.849  0.00  0.00    +0.000 A 
ATOM     14  C   UNL     1       4.735   4.565  15.507  0.00  0.00    +0.000 A 
ATOM     15  C   UNL     1       5.755   4.421  14.564  0.00  0.00    +0.000 A 
ATOM     16  C   UNL     1       7.087   4.529  14.955  0.00  0.00    +0.000 A 
ATOM     17  C   UNL     1       7.402   4.799  16.287  0.00  0.00    +0.000 A 
ATOM     18  C   UNL     1       6.384   4.954  17.233  0.00  0.00    +0.000 A 
ENDBRANCH  10  13
BRANCH   1  20
ATOM     19  C   UNL     1       0.762   1.989  19.117  0.00  0.00    +0.000 C 
ATOM     20  C   UNL     1       2.003   2.481  19.849  0.00  0.00    +0.000 C 
ENDBRANCH   1  20
TORSDOF 2
ENDMDL
MODEL 3
REMARK VINA RESULT:      -7.0      0.977      1.021
REMARK  Name = 
REMARK  3 active torsions:
REMARK  status: ('A' for Active; 'I' for Inactive)
REMARK    1  A    between atoms: C_1  and  C_2
REMARK    2  A    between atoms: C_2  and  N_3
REMARK    3  A    between atoms: N_12  and  C_13
REMARK                            x       y       z     vdW  Elec       q    Type
REMARK                         _______ _______ _______ _____ _____    ______ ____
ROOT
ATOM      1  N   UNL     1       2.725   4.362  20.322  0.00  0.00    +0.000 N 
ATOM      2  C   UNL     1       2.215   5.643  20.481  0.00  0.00    +0.000 A 
ATOM      3  O   UNL     1       1.488   5.982  21.410  0.00  0.00    +0.000 OA
ATOM      4  C   UNL     1       2.553   6.614  19.433  0.00  0.00    +0.000 A 
ATOM      5  C   UNL     1       1.851   7.830  19.394  0.00  0.00    +0.000 A 
ATOM      6  C   UNL     1       2.061   8.721  18.349  0.00  0.00    +0.000 A 
ATOM      7  C   UNL     1       2.987   8.406  17.360  0.00  0.00    +0.000 A 
ATOM      8  C   UNL     1       3.709   7.204  17.420  0.00  0.00    +0.000 A 
ATOM      9  C   UNL     1       3.500   6.284  18.462  0.00  0.00    +0.000 A 
ATOM     10  N   UNL     1       4.136   5.009  18.522  0.00  0.00    +0.000 N 
ATOM     11  C   UNL     1       3.721   4.011  19.412  0.00  0.00    +0.000 A 
ATOM     12  O   UNL     1       4.215   2.877  19.426  0.00  0.00    +0.000 OA
ENDROOT
BRANCH  10  13
ATOM     13  C   UNL     1       5.160   4.694  17.581  0.00  0.00    +0.000 A 
ATOM     14  C   UNL     1       6.502   4.942  17.900  0.00  0.00    +0.000 A 
ATOM     15  C   UNL     1       7.507   4.741  16.950  0.00  0.00    +0.000 A 
ATOM     16  C   UNL     1       7.178   4.303  15.669  0.00  0.00    +0.000 A 
ATOM     17  C   UNL     1       5.846   4.048  15.341  0.00  0.00    +0.000 A 
ATOM     18  C   UNL     1       4.838   4.239  16.292  0.00  0.00    +0.000 A 
ENDBRANCH  10  13
BRANCH   1  20
ATOM     19  C   UNL     1       1.069   2.562  20.721  0.00  0.00    +0.000 C 
ATOM     20  C   UNL     1       2.261   3.342  21.256  0.00  0.00    +0.000 C 
ENDBRANCH   1  20
TORSDOF 2
ENDMDL
MODEL 4
REMARK VINA RESULT:      -6.9      1.764      3.655
REMARK  Name = 
REMARK  3 active torsions:
REMARK  status: ('A' for Active; 'I' for Inactive)
REMARK    1  A    between atoms: C_1  and  C_2
REMARK    2  A    between atoms: C_2  and  N_3
REMARK    3  A    between atoms: N_12  and  C_13
REMARK                            x       y       z     vdW  Elec       q    Type
REMARK                         _______ _______ _______ _____ _____    ______ ____
ROOT
ATOM      1  N   UNL     1       2.601   6.977  19.236  0.00  0.00    +0.000 N 
ATOM      2  C   UNL     1       1.926   6.112  20.084  0.00  0.00    +0.000 A 
ATOM      3  O   UNL     1       0.925   6.418  20.724  0.00  0.00    +0.000 OA
ATOM      4  C   UNL     1       2.496   4.765  20.230  0.00  0.00    +0.000 A 
ATOM      5  C   UNL     1       2.025   3.947  21.271  0.00  0.00    +0.000 A 
ATOM      6  C   UNL     1       2.622   2.716  21.512  0.00  0.00    +0.000 A 
ATOM      7  C   UNL     1       3.671   2.297  20.701  0.00  0.00    +0.000 A 
ATOM      8  C   UNL     1       4.118   3.104  19.644  0.00  0.00    +0.000 A 
ATOM      9  C   UNL     1       3.536   4.359  19.393  0.00  0.00    +0.000 A 
ATOM     10  N   UNL     1       4.011   5.258  18.394  0.00  0.00    +0.000 N 
ATOM     11  C   UNL     1       3.594   6.594  18.336  0.00  0.00    +0.000 A 
ATOM     12  O   UNL     1       4.052   7.405  17.520  0.00  0.00    +0.000 OA
ENDROOT
BRANCH  10  13
ATOM     13  C   UNL     1       5.018   4.823  17.483  0.00  0.00    +0.000 A 
ATOM     14  C   UNL     1       6.372   4.968  17.816  0.00  0.00    +0.000 A 
ATOM     15  C   UNL     1       7.369   4.647  16.891  0.00  0.00    +0.000 A 
ATOM     16  C   UNL     1       7.022   4.191  15.622  0.00  0.00    +0.000 A 
ATOM     17  C   UNL     1       5.677   4.038  15.280  0.00  0.00    +0.000 A 
ATOM     18  C   UNL     1       4.677   4.348  16.206  0.00  0.00    +0.000 A 
ENDBRANCH  10  13
BRANCH   1  20
ATOM     19  C   UNL     1       1.364   8.698  17.950  0.00  0.00    +0.000 C 
ATOM     20  C   UNL     1       2.153   8.365  19.209  0.00  0.00    +0.000 C 
ENDBRANCH   1  20
TORSDOF 2
ENDMDL
MODEL 5
REMARK VINA RESULT:      -6.8      2.010      5.039
REMARK  Name = 
REMARK  3 active torsions:
REMARK  status: ('A' for Active; 'I' for Inactive)
REMARK    1  A    between atoms: C_1  and  C_2
REMARK    2  A    between atoms: C_2  and  N_3
REMARK    3  A    between atoms: N_12  and  C_13
REMARK                            x       y       z     vdW  Elec       q    Type
REMARK                         _______ _______ _______ _____ _____    ______ ____
ROOT
ATOM      1  N   UNL     1       5.968   5.427  18.111  0.00  0.00    +0.000 N 
ATOM      2  C   UNL     1       5.533   6.549  17.422  0.00  0.00    +0.000 A 
ATOM      3  O   UNL     1       6.233   7.194  16.646  0.00  0.00    +0.000 OA
ATOM      4  C   UNL     1       4.157   6.988  17.692  0.00  0.00    +0.000 A 
ATOM      5  C   UNL     1       3.758   8.258  17.243  0.00  0.00    +0.000 A 
ATOM      6  C   UNL     1       2.505   8.753  17.582  0.00  0.00    +0.000 A 
ATOM      7  C   UNL     1       1.647   7.970  18.348  0.00  0.00    +0.000 A 
ATOM      8  C   UNL     1       2.039   6.690  18.768  0.00  0.00    +0.000 A 
ATOM      9  C   UNL     1       3.308   6.178  18.447  0.00  0.00    +0.000 A 
ATOM     10  N   UNL     1       3.792   4.925  18.925  0.00  0.00    +0.000 N 
ATOM     11  C   UNL     1       5.138   4.556  18.815  0.00  0.00    +0.000 A 
ATOM     12  O   UNL     1       5.587   3.504  19.289  0.00  0.00    +0.000 OA
ENDROOT
BRANCH  10  13
ATOM     13  C   UNL     1       2.907   4.056  19.629  0.00  0.00    +0.000 A 
ATOM     14  C   UNL     1       2.065   3.190  18.919  0.00  0.00    +0.000 A 
ATOM     15  C   UNL     1       1.117   2.412  19.589  0.00  0.00    +0.000 A 
ATOM     16  C   UNL     1       0.993   2.504  20.973  0.00  0.00    +0.000 A 
ATOM     17  C   UNL     1       1.828   3.359  21.692  0.00  0.00    +0.000 A 
ATOM     18  C   UNL     1       2.786   4.131  21.026  0.00  0.00    +0.000 A 
ENDBRANCH  10  13
BRANCH   1  20
ATOM     19  C   UNL     1       8.222   5.656  19.116  0.00  0.00    +0.000 C 
ATOM     20  C   UNL     1       7.379   5.077  17.988  0.00  0.00    +0.000 C 
ENDBRANCH   1  20
TORSDOF 2
ENDMDL
MODEL 6
REMARK VINA RESULT:      -6.8      1.790      5.315
REMARK  Name = 
REMARK  3 active torsions:
REMARK  status: ('A' for Active; 'I' for Inactive)
REMARK    1  A    between atoms: C_1  and  C_2
REMARK    2  A    between atoms: C_2  and  N_3
REMARK    3  A    between atoms: N_12  and  C_13
REMARK                            x       y       z     vdW  Elec       q    Type
REMARK                         _______ _______ _______ _____ _____    ______ ____
ROOT
ATOM      1  N   UNL     1       5.099   4.872  18.332  0.00  0.00    +0.000 N 
ATOM      2  C   UNL     1       4.740   3.785  19.116  0.00  0.00    +0.000 A 
ATOM      3  O   UNL     1       5.454   2.804  19.300  0.00  0.00    +0.000 OA
ATOM      4  C   UNL     1       3.399   3.828  19.715  0.00  0.00    +0.000 A 
ATOM      5  C   UNL     1       2.880   2.652  20.282  0.00  0.00    +0.000 A 
ATOM      6  C   UNL     1       1.573   2.625  20.751  0.00  0.00    +0.000 A 
ATOM      7  C   UNL     1       0.796   3.777  20.672  0.00  0.00    +0.000 A 
ATOM      8  C   UNL     1       1.329   4.957  20.133  0.00  0.00    +0.000 A 
ATOM      9  C   UNL     1       2.645   5.000  19.641  0.00  0.00    +0.000 A 
ATOM     10  N   UNL     1       3.205   6.143  18.999  0.00  0.00    +0.000 N 
ATOM     11  C   UNL     1       4.410   6.082  18.288  0.00  0.00    +0.000 A 
ATOM     12  O   UNL     1       4.872   7.048  17.666  0.00  0.00    +0.000 OA
ENDROOT
BRANCH  10  13
ATOM     13  C   UNL     1       2.474   7.368  18.989  0.00  0.00    +0.000 A 
ATOM     14  C   UNL     1       1.955   7.883  20.185  0.00  0.00    +0.000 A 
ATOM     15  C   UNL     1       1.145   9.022  20.176  0.00  0.00    +0.000 A 
ATOM     16  C   UNL     1       0.837   9.648  18.971  0.00  0.00    +0.000 A 
ATOM     17  C   UNL     1       1.351   9.148  17.774  0.00  0.00    +0.000 A 
ATOM     18  C   UNL     1       2.170   8.014  17.780  0.00  0.00    +0.000 A 
ENDBRANCH  10  13
BRANCH   1  20
ATOM     19  C   UNL     1       6.152   4.247  16.177  0.00  0.00    +0.000 C 
ATOM     20  C   UNL     1       6.353   4.771  17.592  0.00  0.00    +0.000 C 
ENDBRANCH   1  20
TORSDOF 2
ENDMDL
MODEL 7
REMARK VINA RESULT:      -6.8      1.658      4.844
REMARK  Name = 
REMARK  3 active torsions:
REMARK  status: ('A' for Active; 'I' for Inactive)
REMARK    1  A    between atoms: C_1  and  C_2
REMARK    2  A    between atoms: C_2  and  N_3
REMARK    3  A    between atoms: N_12  and  C_13
REMARK                            x       y       z     vdW  Elec       q    Type
REMARK                         _______ _______ _______ _____ _____    ______ ____
ROOT
ATOM      1  N   UNL     1       5.164   5.123  17.230  0.00  0.00    +0.000 N 
ATOM      2  C   UNL     1       4.783   6.376  16.771  0.00  0.00    +0.000 A 
ATOM      3  O   UNL     1       5.319   6.956  15.832  0.00  0.00    +0.000 OA
ATOM      4  C   UNL     1       3.692   7.034  17.502  0.00  0.00    +0.000 A 
ATOM      5  C   UNL     1       3.451   8.397  17.263  0.00  0.00    +0.000 A 
ATOM      6  C   UNL     1       2.508   9.080  18.021  0.00  0.00    +0.000 A 
ATOM      7  C   UNL     1       1.794   8.395  18.999  0.00  0.00    +0.000 A 
ATOM      8  C   UNL     1       2.016   7.026  19.212  0.00  0.00    +0.000 A 
ATOM      9  C   UNL     1       2.976   6.322  18.465  0.00  0.00    +0.000 A 
ATOM     10  N   UNL     1       3.308   4.956  18.705  0.00  0.00    +0.000 N 
ATOM     11  C   UNL     1       4.438   4.354  18.137  0.00  0.00    +0.000 A 
ATOM     12  O   UNL     1       4.778   3.192  18.392  0.00  0.00    +0.000 OA
ENDROOT
BRANCH  10  13
ATOM     13  C   UNL     1       2.530   4.199  19.630  0.00  0.00    +0.000 A 
ATOM     14  C   UNL     1       2.888   4.168  20.984  0.00  0.00    +0.000 A 
ATOM     15  C   UNL     1       2.202   3.346  21.882  0.00  0.00    +0.000 A 
ATOM     16  C   UNL     1       1.161   2.538  21.432  0.00  0.00    +0.000 A 
ATOM     17  C   UNL     1       0.792   2.563  20.086  0.00  0.00    +0.000 A 
ATOM     18  C   UNL     1       1.469   3.393  19.186  0.00  0.00    +0.000 A 
ENDBRANCH  10  13
BRANCH   1  20
ATOM     19  C   UNL     1       7.588   4.681  17.507  0.00  0.00    +0.000 C 
ATOM     20  C   UNL     1       6.354   4.530  16.629  0.00  0.00    +0.000 C 
ENDBRANCH   1  20
TORSDOF 2
ENDMDL
MODEL 8
REMARK VINA RESULT:      -6.7      2.033      5.618
REMARK  Name = 
REMARK  3 active torsions:
REMARK  status: ('A' for Active; 'I' for Inactive)
REMARK    1  A    between atoms: C_1  and  C_2
REMARK    2  A    between atoms: C_2  and  N_3
REMARK    3  A    between atoms: N_12  and  C_13
REMARK                            x       y       z     vdW  Elec       q    Type
REMARK                         _______ _______ _______ _____ _____    ______ ____
ROOT
ATOM      1  N   UNL     1       5.044   5.281  18.188  0.00  0.00    +0.000 N 
ATOM      2  C   UNL     1       4.857   4.158  18.981  0.00  0.00    +0.000 A 
ATOM      3  O   UNL     1       5.681   3.257  19.101  0.00  0.00    +0.000 OA
ATOM      4  C   UNL     1       3.565   4.057  19.673  0.00  0.00    +0.000 A 
ATOM      5  C   UNL     1       3.213   2.830  20.259  0.00  0.00    +0.000 A 
ATOM      6  C   UNL     1       1.952   2.664  20.818  0.00  0.00    +0.000 A 
ATOM      7  C   UNL     1       1.056   3.728  20.809  0.00  0.00    +0.000 A 
ATOM      8  C   UNL     1       1.424   4.961  20.250  0.00  0.00    +0.000 A 
ATOM      9  C   UNL     1       2.690   5.144  19.667  0.00  0.00    +0.000 A 
ATOM     10  N   UNL     1       3.081   6.344  19.003  0.00  0.00    +0.000 N 
ATOM     11  C   UNL     1       4.232   6.413  18.208  0.00  0.00    +0.000 A 
ATOM     12  O   UNL     1       4.545   7.425  17.568  0.00  0.00    +0.000 OA
ENDROOT
BRANCH  10  13
ATOM     13  C   UNL     1       2.227   7.485  19.060  0.00  0.00    +0.000 A 
ATOM     14  C   UNL     1       1.913   8.183  17.886  0.00  0.00    +0.000 A 
ATOM     15  C   UNL     1       1.168   9.364  17.939  0.00  0.00    +0.000 A 
ATOM     16  C   UNL     1       0.742   9.864  19.167  0.00  0.00    +0.000 A 
ATOM     17  C   UNL     1       1.044   9.176  20.343  0.00  0.00    +0.000 A 
ATOM     18  C   UNL     1       1.781   7.988  20.293  0.00  0.00    +0.000 A 
ENDBRANCH  10  13
BRANCH   1  20
ATOM     19  C   UNL     1       7.442   5.905  18.096  0.00  0.00    +0.000 C 
ATOM     20  C   UNL     1       6.246   5.317  17.360  0.00  0.00    +0.000 C 
ENDBRANCH   1  20
TORSDOF 2
ENDMDL
MODEL 9
REMARK VINA RESULT:      -6.7      1.663      4.888
REMARK  Name = 
REMARK  3 active torsions:
REMARK  status: ('A' for Active; 'I' for Inactive)
REMARK    1  A    between atoms: C_1  and  C_2
REMARK    2  A    between atoms: C_2  and  N_3
REMARK    3  A    between atoms: N_12  and  C_13
REMARK                            x       y       z     vdW  Elec       q    Type
REMARK                         _______ _______ _______ _____ _____    ______ ____
ROOT
ATOM      1  N   UNL     1       5.209   5.133  16.973  0.00  0.00    +0.000 N 
ATOM      2  C   UNL     1       4.783   6.397  16.593  0.00  0.00    +0.000 A 
ATOM      3  O   UNL     1       5.265   7.034  15.662  0.00  0.00    +0.000 OA
ATOM      4  C   UNL     1       3.713   6.994  17.404  0.00  0.00    +0.000 A 
ATOM      5  C   UNL     1       3.435   8.362  17.243  0.00  0.00    +0.000 A 
ATOM      6  C   UNL     1       2.512   8.986  18.074  0.00  0.00    +0.000 A 
ATOM      7  C   UNL     1       1.857   8.239  19.047  0.00  0.00    +0.000 A 
ATOM      8  C   UNL     1       2.115   6.866  19.183  0.00  0.00    +0.000 A 
ATOM      9  C   UNL     1       3.055   6.221  18.361  0.00  0.00    +0.000 A 
ATOM     10  N   UNL     1       3.424   4.853  18.517  0.00  0.00    +0.000 N 
ATOM     11  C   UNL     1       4.539   4.304  17.871  0.00  0.00    +0.000 A 
ATOM     12  O   UNL     1       4.914   3.139  18.053  0.00  0.00    +0.000 OA
ENDROOT
BRANCH  10  13
ATOM     13  C   UNL     1       2.704   4.035  19.437  0.00  0.00    +0.000 A 
ATOM     14  C   UNL     1       1.551   3.357  19.016  0.00  0.00    +0.000 A 
ATOM     15  C   UNL     1       0.775   2.641  19.930  0.00  0.00    +0.000 A 
ATOM     16  C   UNL     1       1.136   2.605  21.274  0.00  0.00    +0.000 A 
ATOM     17  C   UNL     1       2.284   3.272  21.705  0.00  0.00    +0.000 A 
ATOM     18  C   UNL     1       3.070   3.981  20.792  0.00  0.00    +0.000 A 
ENDBRANCH  10  13
BRANCH   1  20
ATOM     19  C   UNL     1       6.036   3.953  14.956  0.00  0.00    +0.000 C 
ATOM     20  C   UNL     1       6.382   4.595  16.291  0.00  0.00    +0.000 C 
ENDBRANCH   1  20
TORSDOF 2
ENDMDL
