MODEL 1
REMARK VINA RESULT:      -6.0      0.000      0.000
REMARK  Name = 
REMARK  10 active torsions:
REMARK  status: ('A' for Active; 'I' for Inactive)
REMARK    1  A    between atoms: N_5  and  C_6
REMARK    2  A    between atoms: C_6  and  C_7
REMARK    3  A    between atoms: C_7  and  C_8
REMARK    4  A    between atoms: C_8  and  C_9
REMARK    5  A    between atoms: C_9  and  C_10
REMARK    6  A    between atoms: C_10  and  C_11
REMARK    7  A    between atoms: C_11  and  C_12
REMARK    8  A    between atoms: C_12  and  C_13
REMARK    9  A    between atoms: C_13  and  C_14
REMARK   10  A    between atoms: C_14  and  C_15
REMARK                            x       y       z     vdW  Elec       q    Type
REMARK                         _______ _______ _______ _____ _____    ______ ____
ROOT
ATOM      1  O   UNL     1       5.417   3.346  19.612  0.00  0.00    +0.000 OA
ATOM      2  C   UNL     1       5.507   4.350  18.943  0.00  0.00    +0.000 C 
ATOM      3  C   UNL     1       6.777   4.915  18.257  0.00  0.00    +0.000 C 
ATOM      4  O   UNL     1       7.872   4.394  18.269  0.00  0.00    +0.000 OA
ATOM      5  N   UNL     1       6.367   6.090  17.644  0.00  0.00    +0.000 N 
ATOM      6  C   UNL     1       4.990   6.297  17.828  0.00  0.00    +0.000 A 
ATOM      7  C   UNL     1       4.195   7.320  17.347  0.00  0.00    +0.000 A 
ATOM      8  C   UNL     1       2.833   7.305  17.677  0.00  0.00    +0.000 A 
ATOM      9  C   UNL     1       2.288   6.279  18.472  0.00  0.00    +0.000 A 
ATOM     10  C   UNL     1       3.095   5.245  18.949  0.00  0.00    +0.000 A 
ATOM     11  C   UNL     1       4.434   5.285  18.609  0.00  0.00    +0.000 A 
ENDROOT
BRANCH   5  12
ATOM     12  C   UNL     1       7.232   6.925  16.843  0.00  0.00    +0.000 C 
BRANCH  12  13
ATOM     13  C   UNL     1       7.465   8.286  17.494  0.00  0.00    +0.000 C 
BRANCH  13  14
ATOM     14  C   UNL     1       8.507   8.203  18.606  0.00  0.00    +0.000 C 
BRANCH  14  15
ATOM     15  C   UNL     1       8.914   9.601  19.068  0.00  0.00    +0.000 C 
BRANCH  15  16
ATOM     16  C   UNL     1       9.036  10.568  17.893  0.00  0.00    +0.000 C 
BRANCH  16  17
ATOM     17  C   UNL     1       9.858  11.795  18.285  0.00  0.00    +0.000 C 
BRANCH  17  18
ATOM     18  C   UNL     1      11.201  11.390  18.888  0.00  0.00    +0.000 C 
BRANCH  18  19
ATOM     19  C   UNL     1      11.467  12.140  20.193  0.00  0.00    +0.000 C 
BRANCH  19  20
ATOM     20  C   UNL     1      10.298  13.056  20.548  0.00  0.00    +0.000 C 
BRANCH  20  21
ATOM     21  C   UNL     1       9.700  12.677  21.892  0.00  0.00    +0.000 C 
ATOM     22 BR   UNL     1       7.873  13.337  22.010  0.00  0.00    +0.000 Br
ENDBRANCH  20  21
ENDBRANCH  19  20
ENDBRANCH  18  19
ENDBRANCH  17  18
ENDBRANCH  16  17
ENDBRANCH  15  16
ENDBRANCH  14  15
ENDBRANCH  13  14
ENDBRANCH  12  13
ENDBRANCH   5  12
TORSDOF 10
ENDMDL
MODEL 2
REMARK VINA RESULT:      -6.0      5.820      8.097
REMARK  Name = 
REMARK  10 active torsions:
REMARK  status: ('A' for Active; 'I' for Inactive)
REMARK    1  A    between atoms: N_5  and  C_6
REMARK    2  A    between atoms: C_6  and  C_7
REMARK    3  A    between atoms: C_7  and  C_8
REMARK    4  A    between atoms: C_8  and  C_9
REMARK    5  A    between atoms: C_9  and  C_10
REMARK    6  A    between atoms: C_10  and  C_11
REMARK    7  A    between atoms: C_11  and  C_12
REMARK    8  A    between atoms: C_12  and  C_13
REMARK    9  A    between atoms: C_13  and  C_14
REMARK   10  A    between atoms: C_14  and  C_15
REMARK                            x       y       z     vdW  Elec       q    Type
REMARK                         _______ _______ _______ _____ _____    ______ ____
ROOT
ATOM      1  O   UNL     1       5.631   4.066  16.248  0.00  0.00    +0.000 OA
ATOM      2  C   UNL     1       4.750   4.570  16.905  0.00  0.00    +0.000 C 
ATOM      3  C   UNL     1       4.603   6.061  17.300  0.00  0.00    +0.000 C 
ATOM      4  O   UNL     1       5.353   6.953  16.964  0.00  0.00    +0.000 OA
ATOM      5  N   UNL     1       3.454   6.122  18.075  0.00  0.00    +0.000 N 
ATOM      6  C   UNL     1       2.847   4.859  18.169  0.00  0.00    +0.000 A 
ATOM      7  C   UNL     1       1.675   4.505  18.811  0.00  0.00    +0.000 A 
ATOM      8  C   UNL     1       1.278   3.162  18.763  0.00  0.00    +0.000 A 
ATOM      9  C   UNL     1       2.047   2.200  18.081  0.00  0.00    +0.000 A 
ATOM     10  C   UNL     1       3.226   2.564  17.428  0.00  0.00    +0.000 A 
ATOM     11  C   UNL     1       3.594   3.895  17.492  0.00  0.00    +0.000 A 
ENDROOT
BRANCH   5  12
ATOM     12  C   UNL     1       2.913   7.345  18.620  0.00  0.00    +0.000 C 
BRANCH  12  13
ATOM     13  C   UNL     1       1.963   8.028  17.640  0.00  0.00    +0.000 C 
BRANCH  13  14
ATOM     14  C   UNL     1       1.874   9.530  17.901  0.00  0.00    +0.000 C 
BRANCH  14  15
ATOM     15  C   UNL     1       0.465   9.917  18.345  0.00  0.00    +0.000 C 
BRANCH  15  16
ATOM     16  C   UNL     1       0.468  10.559  19.730  0.00  0.00    +0.000 C 
BRANCH  16  17
ATOM     17  C   UNL     1      -0.852  11.281  19.995  0.00  0.00    +0.000 C 
BRANCH  17  18
ATOM     18  C   UNL     1      -1.503  11.737  18.691  0.00  0.00    +0.000 C 
BRANCH  18  19
ATOM     19  C   UNL     1      -3.022  11.819  18.834  0.00  0.00    +0.000 C 
BRANCH  19  20
ATOM     20  C   UNL     1      -3.718  11.456  17.523  0.00  0.00    +0.000 C 
BRANCH  20  21
ATOM     21  C   UNL     1      -3.272  10.089  17.033  0.00  0.00    +0.000 C 
ATOM     22 BR   UNL     1      -2.983  10.143  15.109  0.00  0.00    +0.000 Br
ENDBRANCH  20  21
ENDBRANCH  19  20
ENDBRANCH  18  19
ENDBRANCH  17  18
ENDBRANCH  16  17
ENDBRANCH  15  16
ENDBRANCH  14  15
ENDBRANCH  13  14
ENDBRANCH  12  13
ENDBRANCH   5  12
TORSDOF 10
ENDMDL
MODEL 3
REMARK VINA RESULT:      -6.0      2.303      2.739
REMARK  Name = 
REMARK  10 active torsions:
REMARK  status: ('A' for Active; 'I' for Inactive)
REMARK    1  A    between atoms: N_5  and  C_6
REMARK    2  A    between atoms: C_6  and  C_7
REMARK    3  A    between atoms: C_7  and  C_8
REMARK    4  A    between atoms: C_8  and  C_9
REMARK    5  A    between atoms: C_9  and  C_10
REMARK    6  A    between atoms: C_10  and  C_11
REMARK    7  A    between atoms: C_11  and  C_12
REMARK    8  A    between atoms: C_12  and  C_13
REMARK    9  A    between atoms: C_13  and  C_14
REMARK   10  A    between atoms: C_14  and  C_15
REMARK                            x       y       z     vdW  Elec       q    Type
REMARK                         _______ _______ _______ _____ _____    ______ ____
ROOT
ATOM      1  O   UNL     1       5.239   3.830  14.388  0.00  0.00    +0.000 OA
ATOM      2  C   UNL     1       5.560   4.424  15.392  0.00  0.00    +0.000 C 
ATOM      3  C   UNL     1       6.788   5.348  15.589  0.00  0.00    +0.000 C 
ATOM      4  O   UNL     1       7.595   5.635  14.731  0.00  0.00    +0.000 OA
ATOM      5  N   UNL     1       6.728   5.756  16.914  0.00  0.00    +0.000 N 
ATOM      6  C   UNL     1       5.588   5.235  17.547  0.00  0.00    +0.000 A 
ATOM      7  C   UNL     1       5.147   5.436  18.842  0.00  0.00    +0.000 A 
ATOM      8  C   UNL     1       3.967   4.793  19.241  0.00  0.00    +0.000 A 
ATOM      9  C   UNL     1       3.250   3.970  18.353  0.00  0.00    +0.000 A 
ATOM     10  C   UNL     1       3.696   3.777  17.044  0.00  0.00    +0.000 A 
ATOM     11  C   UNL     1       4.862   4.422  16.677  0.00  0.00    +0.000 A 
ENDROOT
BRANCH   5  12
ATOM     12  C   UNL     1       7.665   6.675  17.517  0.00  0.00    +0.000 C 
BRANCH  12  13
ATOM     13  C   UNL     1       7.094   8.088  17.602  0.00  0.00    +0.000 C 
BRANCH  13  14
ATOM     14  C   UNL     1       8.202   9.140  17.598  0.00  0.00    +0.000 C 
BRANCH  14  15
ATOM     15  C   UNL     1       8.806   9.292  18.993  0.00  0.00    +0.000 C 
BRANCH  15  16
ATOM     16  C   UNL     1       9.642  10.564  19.108  0.00  0.00    +0.000 C 
BRANCH  16  17
ATOM     17  C   UNL     1       9.531  11.160  20.510  0.00  0.00    +0.000 C 
BRANCH  17  18
ATOM     18  C   UNL     1      10.461  12.361  20.675  0.00  0.00    +0.000 C 
BRANCH  18  19
ATOM     19  C   UNL     1      11.840  12.074  20.082  0.00  0.00    +0.000 C 
BRANCH  19  20
ATOM     20  C   UNL     1      12.333  13.251  19.243  0.00  0.00    +0.000 C 
BRANCH  20  21
ATOM     21  C   UNL     1      11.850  14.570  19.821  0.00  0.00    +0.000 C 
ATOM     22 BR   UNL     1      11.651  15.880  18.396  0.00  0.00    +0.000 Br
ENDBRANCH  20  21
ENDBRANCH  19  20
ENDBRANCH  18  19
ENDBRANCH  17  18
ENDBRANCH  16  17
ENDBRANCH  15  16
ENDBRANCH  14  15
ENDBRANCH  13  14
ENDBRANCH  12  13
ENDBRANCH   5  12
TORSDOF 10
ENDMDL
MODEL 4
REMARK VINA RESULT:      -6.0      4.987      7.800
REMARK  Name = 
REMARK  10 active torsions:
REMARK  status: ('A' for Active; 'I' for Inactive)
REMARK    1  A    between atoms: N_5  and  C_6
REMARK    2  A    between atoms: C_6  and  C_7
REMARK    3  A    between atoms: C_7  and  C_8
REMARK    4  A    between atoms: C_8  and  C_9
REMARK    5  A    between atoms: C_9  and  C_10
REMARK    6  A    between atoms: C_10  and  C_11
REMARK    7  A    between atoms: C_11  and  C_12
REMARK    8  A    between atoms: C_12  and  C_13
REMARK    9  A    between atoms: C_13  and  C_14
REMARK   10  A    between atoms: C_14  and  C_15
REMARK                            x       y       z     vdW  Elec       q    Type
REMARK                         _______ _______ _______ _____ _____    ______ ____
ROOT
ATOM      1  O   UNL     1       7.926   6.724  16.334  0.00  0.00    +0.000 OA
ATOM      2  C   UNL     1       7.012   5.978  16.067  0.00  0.00    +0.000 C 
ATOM      3  C   UNL     1       5.788   5.631  16.953  0.00  0.00    +0.000 C 
ATOM      4  O   UNL     1       5.559   6.100  18.047  0.00  0.00    +0.000 OA
ATOM      5  N   UNL     1       5.053   4.715  16.215  0.00  0.00    +0.000 N 
ATOM      6  C   UNL     1       5.646   4.489  14.962  0.00  0.00    +0.000 A 
ATOM      7  C   UNL     1       5.208   3.684  13.927  0.00  0.00    +0.000 A 
ATOM      8  C   UNL     1       5.990   3.623  12.766  0.00  0.00    +0.000 A 
ATOM      9  C   UNL     1       7.185   4.359  12.653  0.00  0.00    +0.000 A 
ATOM     10  C   UNL     1       7.619   5.175  13.699  0.00  0.00    +0.000 A 
ATOM     11  C   UNL     1       6.829   5.217  14.832  0.00  0.00    +0.000 A 
ENDROOT
BRANCH   5  12
ATOM     12  C   UNL     1       3.794   4.156  16.649  0.00  0.00    +0.000 C 
BRANCH  12  13
ATOM     13  C   UNL     1       3.996   2.946  17.558  0.00  0.00    +0.000 C 
BRANCH  13  14
ATOM     14  C   UNL     1       2.693   2.179  17.767  0.00  0.00    +0.000 C 
BRANCH  14  15
ATOM     15  C   UNL     1       2.689   1.485  19.127  0.00  0.00    +0.000 C 
BRANCH  15  16
ATOM     16  C   UNL     1       2.093   2.379  20.213  0.00  0.00    +0.000 C 
BRANCH  16  17
ATOM     17  C   UNL     1       1.047   3.323  19.623  0.00  0.00    +0.000 C 
BRANCH  17  18
ATOM     18  C   UNL     1       0.918   4.595  20.460  0.00  0.00    +0.000 C 
BRANCH  18  19
ATOM     19  C   UNL     1       2.291   5.187  20.776  0.00  0.00    +0.000 C 
BRANCH  19  20
ATOM     20  C   UNL     1       2.805   6.036  19.615  0.00  0.00    +0.000 C 
BRANCH  20  21
ATOM     21  C   UNL     1       2.206   7.432  19.657  0.00  0.00    +0.000 C 
ATOM     22 BR   UNL     1       2.243   8.217  17.878  0.00  0.00    +0.000 Br
ENDBRANCH  20  21
ENDBRANCH  19  20
ENDBRANCH  18  19
ENDBRANCH  17  18
ENDBRANCH  16  17
ENDBRANCH  15  16
ENDBRANCH  14  15
ENDBRANCH  13  14
ENDBRANCH  12  13
ENDBRANCH   5  12
TORSDOF 10
ENDMDL
MODEL 5
REMARK VINA RESULT:      -6.0      2.414      3.443
REMARK  Name = 
REMARK  10 active torsions:
REMARK  status: ('A' for Active; 'I' for Inactive)
REMARK    1  A    between atoms: N_5  and  C_6
REMARK    2  A    between atoms: C_6  and  C_7
REMARK    3  A    between atoms: C_7  and  C_8
REMARK    4  A    between atoms: C_8  and  C_9
REMARK    5  A    between atoms: C_9  and  C_10
REMARK    6  A    between atoms: C_10  and  C_11
REMARK    7  A    between atoms: C_11  and  C_12
REMARK    8  A    between atoms: C_12  and  C_13
REMARK    9  A    between atoms: C_13  and  C_14
REMARK   10  A    between atoms: C_14  and  C_15
REMARK                            x       y       z     vdW  Elec       q    Type
REMARK                         _______ _______ _______ _____ _____    ______ ____
ROOT
ATOM      1  O   UNL     1       1.968   7.060  18.702  0.00  0.00    +0.000 OA
ATOM      2  C   UNL     1       2.774   6.294  18.226  0.00  0.00    +0.000 C 
ATOM      3  C   UNL     1       4.121   6.647  17.545  0.00  0.00    +0.000 C 
ATOM      4  O   UNL     1       4.575   7.765  17.426  0.00  0.00    +0.000 OA
ATOM      5  N   UNL     1       4.655   5.431  17.144  0.00  0.00    +0.000 N 
ATOM      6  C   UNL     1       3.827   4.366  17.535  0.00  0.00    +0.000 A 
ATOM      7  C   UNL     1       4.020   3.009  17.362  0.00  0.00    +0.000 A 
ATOM      8  C   UNL     1       3.033   2.138  17.844  0.00  0.00    +0.000 A 
ATOM      9  C   UNL     1       1.880   2.628  18.485  0.00  0.00    +0.000 A 
ATOM     10  C   UNL     1       1.694   4.000  18.662  0.00  0.00    +0.000 A 
ATOM     11  C   UNL     1       2.682   4.836  18.178  0.00  0.00    +0.000 A 
ENDROOT
BRANCH   5  12
ATOM     12  C   UNL     1       5.941   5.289  16.501  0.00  0.00    +0.000 C 
BRANCH  12  13
ATOM     13  C   UNL     1       6.969   4.650  17.431  0.00  0.00    +0.000 C 
BRANCH  13  14
ATOM     14  C   UNL     1       7.622   5.687  18.342  0.00  0.00    +0.000 C 
BRANCH  14  15
ATOM     15  C   UNL     1       7.880   6.986  17.581  0.00  0.00    +0.000 C 
BRANCH  15  16
ATOM     16  C   UNL     1       8.065   8.167  18.530  0.00  0.00    +0.000 C 
BRANCH  16  17
ATOM     17  C   UNL     1       8.178   9.476  17.751  0.00  0.00    +0.000 C 
BRANCH  17  18
ATOM     18  C   UNL     1       9.295  10.356  18.309  0.00  0.00    +0.000 C 
BRANCH  18  19
ATOM     19  C   UNL     1       9.106  11.815  17.893  0.00  0.00    +0.000 C 
BRANCH  19  20
ATOM     20  C   UNL     1      10.450  12.485  17.613  0.00  0.00    +0.000 C 
BRANCH  20  21
ATOM     21  C   UNL     1      11.024  13.099  18.879  0.00  0.00    +0.000 C 
ATOM     22 BR   UNL     1      12.333  11.890  19.662  0.00  0.00    +0.000 Br
ENDBRANCH  20  21
ENDBRANCH  19  20
ENDBRANCH  18  19
ENDBRANCH  17  18
ENDBRANCH  16  17
ENDBRANCH  15  16
ENDBRANCH  14  15
ENDBRANCH  13  14
ENDBRANCH  12  13
ENDBRANCH   5  12
TORSDOF 10
ENDMDL
MODEL 6
REMARK VINA RESULT:      -6.0      1.897      2.775
REMARK  Name = 
REMARK  10 active torsions:
REMARK  status: ('A' for Active; 'I' for Inactive)
REMARK    1  A    between atoms: N_5  and  C_6
REMARK    2  A    between atoms: C_6  and  C_7
REMARK    3  A    between atoms: C_7  and  C_8
REMARK    4  A    between atoms: C_8  and  C_9
REMARK    5  A    between atoms: C_9  and  C_10
REMARK    6  A    between atoms: C_10  and  C_11
REMARK    7  A    between atoms: C_11  and  C_12
REMARK    8  A    between atoms: C_12  and  C_13
REMARK    9  A    between atoms: C_13  and  C_14
REMARK   10  A    between atoms: C_14  and  C_15
REMARK                            x       y       z     vdW  Elec       q    Type
REMARK                         _______ _______ _______ _____ _____    ______ ____
ROOT
ATOM      1  O   UNL     1       2.658   4.294  21.093  0.00  0.00    +0.000 OA
ATOM      2  C   UNL     1       3.266   4.677  20.120  0.00  0.00    +0.000 C 
ATOM      3  C   UNL     1       4.395   3.935  19.362  0.00  0.00    +0.000 C 
ATOM      4  O   UNL     1       4.808   2.827  19.627  0.00  0.00    +0.000 OA
ATOM      5  N   UNL     1       4.783   4.800  18.348  0.00  0.00    +0.000 N 
ATOM      6  C   UNL     1       3.999   5.966  18.358  0.00  0.00    +0.000 A 
ATOM      7  C   UNL     1       4.040   7.046  17.497  0.00  0.00    +0.000 A 
ATOM      8  C   UNL     1       3.147   8.102  17.723  0.00  0.00    +0.000 A 
ATOM      9  C   UNL     1       2.232   8.065  18.793  0.00  0.00    +0.000 A 
ATOM     10  C   UNL     1       2.191   6.968  19.655  0.00  0.00    +0.000 A 
ATOM     11  C   UNL     1       3.083   5.942  19.410  0.00  0.00    +0.000 A 
ENDROOT
BRANCH   5  12
ATOM     12  C   UNL     1       5.789   4.485  17.361  0.00  0.00    +0.000 C 
BRANCH  12  13
ATOM     13  C   UNL     1       7.196   4.770  17.878  0.00  0.00    +0.000 C 
BRANCH  13  14
ATOM     14  C   UNL     1       7.188   5.855  18.953  0.00  0.00    +0.000 C 
BRANCH  14  15
ATOM     15  C   UNL     1       8.211   6.942  18.629  0.00  0.00    +0.000 C 
BRANCH  15  16
ATOM     16  C   UNL     1       7.700   7.890  17.547  0.00  0.00    +0.000 C 
BRANCH  16  17
ATOM     17  C   UNL     1       7.758   9.340  18.025  0.00  0.00    +0.000 C 
BRANCH  17  18
ATOM     18  C   UNL     1       9.193   9.862  18.031  0.00  0.00    +0.000 C 
BRANCH  18  19
ATOM     19  C   UNL     1       9.263  11.273  18.615  0.00  0.00    +0.000 C 
BRANCH  19  20
ATOM     20  C   UNL     1      10.288  12.126  17.870  0.00  0.00    +0.000 C 
BRANCH  20  21
ATOM     21  C   UNL     1       9.893  13.593  17.893  0.00  0.00    +0.000 C 
ATOM     22 BR   UNL     1      10.859  14.512  19.309  0.00  0.00    +0.000 Br
ENDBRANCH  20  21
ENDBRANCH  19  20
ENDBRANCH  18  19
ENDBRANCH  17  18
ENDBRANCH  16  17
ENDBRANCH  15  16
ENDBRANCH  14  15
ENDBRANCH  13  14
ENDBRANCH  12  13
ENDBRANCH   5  12
TORSDOF 10
ENDMDL
MODEL 7
REMARK VINA RESULT:      -5.9      1.663      2.010
REMARK  Name = 
REMARK  10 active torsions:
REMARK  status: ('A' for Active; 'I' for Inactive)
REMARK    1  A    between atoms: N_5  and  C_6
REMARK    2  A    between atoms: C_6  and  C_7
REMARK    3  A    between atoms: C_7  and  C_8
REMARK    4  A    between atoms: C_8  and  C_9
REMARK    5  A    between atoms: C_9  and  C_10
REMARK    6  A    between atoms: C_10  and  C_11
REMARK    7  A    between atoms: C_11  and  C_12
REMARK    8  A    between atoms: C_12  and  C_13
REMARK    9  A    between atoms: C_13  and  C_14
REMARK   10  A    between atoms: C_14  and  C_15
REMARK                            x       y       z     vdW  Elec       q    Type
REMARK                         _______ _______ _______ _____ _____    ______ ____
ROOT
ATOM      1  O   UNL     1       5.371   3.137  15.479  0.00  0.00    +0.000 OA
ATOM      2  C   UNL     1       5.565   3.943  16.360  0.00  0.00    +0.000 C 
ATOM      3  C   UNL     1       6.886   4.686  16.684  0.00  0.00    +0.000 C 
ATOM      4  O   UNL     1       7.920   4.584  16.058  0.00  0.00    +0.000 OA
ATOM      5  N   UNL     1       6.602   5.468  17.794  0.00  0.00    +0.000 N 
ATOM      6  C   UNL     1       5.255   5.334  18.169  0.00  0.00    +0.000 A 
ATOM      7  C   UNL     1       4.571   5.969  19.189  0.00  0.00    +0.000 A 
ATOM      8  C   UNL     1       3.215   5.658  19.364  0.00  0.00    +0.000 A 
ATOM      9  C   UNL     1       2.567   4.731  18.528  0.00  0.00    +0.000 A 
ATOM     10  C   UNL     1       3.261   4.098  17.495  0.00  0.00    +0.000 A 
ATOM     11  C   UNL     1       4.596   4.422  17.344  0.00  0.00    +0.000 A 
ENDROOT
BRANCH   5  12
ATOM     12  C   UNL     1       7.548   6.369  18.408  0.00  0.00    +0.000 C 
BRANCH  12  13
ATOM     13  C   UNL     1       7.636   7.694  17.655  0.00  0.00    +0.000 C 
BRANCH  13  14
ATOM     14  C   UNL     1       8.417   8.739  18.450  0.00  0.00    +0.000 C 
BRANCH  14  15
ATOM     15  C   UNL     1       8.517  10.047  17.667  0.00  0.00    +0.000 C 
BRANCH  15  16
ATOM     16  C   UNL     1       9.149  11.156  18.505  0.00  0.00    +0.000 C 
BRANCH  16  17
ATOM     17  C   UNL     1       9.675  10.603  19.829  0.00  0.00    +0.000 C 
BRANCH  17  18
ATOM     18  C   UNL     1      10.527  11.638  20.560  0.00  0.00    +0.000 C 
BRANCH  18  19
ATOM     19  C   UNL     1       9.658  12.748  21.150  0.00  0.00    +0.000 C 
BRANCH  19  20
ATOM     20  C   UNL     1      10.365  14.100  21.074  0.00  0.00    +0.000 C 
BRANCH  20  21
ATOM     21  C   UNL     1       9.933  14.869  19.837  0.00  0.00    +0.000 C 
ATOM     22 BR   UNL     1       8.009  14.703  19.599  0.00  0.00    +0.000 Br
ENDBRANCH  20  21
ENDBRANCH  19  20
ENDBRANCH  18  19
ENDBRANCH  17  18
ENDBRANCH  16  17
ENDBRANCH  15  16
ENDBRANCH  14  15
ENDBRANCH  13  14
ENDBRANCH  12  13
ENDBRANCH   5  12
TORSDOF 10
ENDMDL
MODEL 8
REMARK VINA RESULT:      -5.9      2.380      3.550
REMARK  Name = 
REMARK  10 active torsions:
REMARK  status: ('A' for Active; 'I' for Inactive)
REMARK    1  A    between atoms: N_5  and  C_6
REMARK    2  A    between atoms: C_6  and  C_7
REMARK    3  A    between atoms: C_7  and  C_8
REMARK    4  A    between atoms: C_8  and  C_9
REMARK    5  A    between atoms: C_9  and  C_10
REMARK    6  A    between atoms: C_10  and  C_11
REMARK    7  A    between atoms: C_11  and  C_12
REMARK    8  A    between atoms: C_12  and  C_13
REMARK    9  A    between atoms: C_13  and  C_14
REMARK   10  A    between atoms: C_14  and  C_15
REMARK                            x       y       z     vdW  Elec       q    Type
REMARK                         _______ _______ _______ _____ _____    ______ ____
ROOT
ATOM      1  O   UNL     1       1.513   6.814  18.177  0.00  0.00    +0.000 OA
ATOM      2  C   UNL     1       2.364   5.997  18.445  0.00  0.00    +0.000 C 
ATOM      3  C   UNL     1       3.794   5.899  17.857  0.00  0.00    +0.000 C 
ATOM      4  O   UNL     1       4.277   6.669  17.054  0.00  0.00    +0.000 OA
ATOM      5  N   UNL     1       4.359   4.783  18.457  0.00  0.00    +0.000 N 
ATOM      6  C   UNL     1       3.470   4.207  19.379  0.00  0.00    +0.000 A 
ATOM      7  C   UNL     1       3.663   3.116  20.205  0.00  0.00    +0.000 A 
ATOM      8  C   UNL     1       2.608   2.729  21.043  0.00  0.00    +0.000 A 
ATOM      9  C   UNL     1       1.387   3.430  21.046  0.00  0.00    +0.000 A 
ATOM     10  C   UNL     1       1.200   4.536  20.214  0.00  0.00    +0.000 A 
ATOM     11  C   UNL     1       2.257   4.895  19.399  0.00  0.00    +0.000 A 
ENDROOT
BRANCH   5  12
ATOM     12  C   UNL     1       5.716   4.346  18.229  0.00  0.00    +0.000 C 
BRANCH  12  13
ATOM     13  C   UNL     1       6.727   5.255  18.924  0.00  0.00    +0.000 C 
BRANCH  13  14
ATOM     14  C   UNL     1       7.702   5.874  17.925  0.00  0.00    +0.000 C 
BRANCH  14  15
ATOM     15  C   UNL     1       7.441   7.372  17.777  0.00  0.00    +0.000 C 
BRANCH  15  16
ATOM     16  C   UNL     1       8.582   8.202  18.362  0.00  0.00    +0.000 C 
BRANCH  16  17
ATOM     17  C   UNL     1       8.353   9.691  18.110  0.00  0.00    +0.000 C 
BRANCH  17  18
ATOM     18  C   UNL     1       9.215  10.547  19.036  0.00  0.00    +0.000 C 
BRANCH  18  19
ATOM     19  C   UNL     1       9.977  11.613  18.250  0.00  0.00    +0.000 C 
BRANCH  19  20
ATOM     20  C   UNL     1       9.016  12.600  17.590  0.00  0.00    +0.000 C 
BRANCH  20  21
ATOM     21  C   UNL     1       8.613  13.696  18.561  0.00  0.00    +0.000 C 
ATOM     22 BR   UNL     1       7.017  14.598  17.909  0.00  0.00    +0.000 Br
ENDBRANCH  20  21
ENDBRANCH  19  20
ENDBRANCH  18  19
ENDBRANCH  17  18
ENDBRANCH  16  17
ENDBRANCH  15  16
ENDBRANCH  14  15
ENDBRANCH  13  14
ENDBRANCH  12  13
ENDBRANCH   5  12
TORSDOF 10
ENDMDL
MODEL 9
REMARK VINA RESULT:      -5.9      6.504      8.921
REMARK  Name = 
REMARK  10 active torsions:
REMARK  status: ('A' for Active; 'I' for Inactive)
REMARK    1  A    between atoms: N_5  and  C_6
REMARK    2  A    between atoms: C_6  and  C_7
REMARK    3  A    between atoms: C_7  and  C_8
REMARK    4  A    between atoms: C_8  and  C_9
REMARK    5  A    between atoms: C_9  and  C_10
REMARK    6  A    between atoms: C_10  and  C_11
REMARK    7  A    between atoms: C_11  and  C_12
REMARK    8  A    between atoms: C_12  and  C_13
REMARK    9  A    between atoms: C_13  and  C_14
REMARK   10  A    between atoms: C_14  and  C_15
REMARK                            x       y       z     vdW  Elec       q    Type
REMARK                         _______ _______ _______ _____ _____    ______ ____
ROOT
ATOM      1  O   UNL     1       0.167  10.744  18.158  0.00  0.00    +0.000 OA
ATOM      2  C   UNL     1       0.530   9.995  19.035  0.00  0.00    +0.000 C 
ATOM      3  C   UNL     1       1.467   8.768  18.901  0.00  0.00    +0.000 C 
ATOM      4  O   UNL     1       2.006   8.405  17.877  0.00  0.00    +0.000 OA
ATOM      5  N   UNL     1       1.547   8.229  20.177  0.00  0.00    +0.000 N 
ATOM      6  C   UNL     1       0.811   8.999  21.093  0.00  0.00    +0.000 A 
ATOM      7  C   UNL     1       0.669   8.824  22.456  0.00  0.00    +0.000 A 
ATOM      8  C   UNL     1      -0.132   9.736  23.157  0.00  0.00    +0.000 A 
ATOM      9  C   UNL     1      -0.772  10.800  22.494  0.00  0.00    +0.000 A 
ATOM     10  C   UNL     1      -0.619  10.976  21.118  0.00  0.00    +0.000 A 
ATOM     11  C   UNL     1       0.176  10.062  20.452  0.00  0.00    +0.000 A 
ENDROOT
BRANCH   5  12
ATOM     12  C   UNL     1       2.363   7.088  20.520  0.00  0.00    +0.000 C 
BRANCH  12  13
ATOM     13  C   UNL     1       1.552   5.795  20.527  0.00  0.00    +0.000 C 
BRANCH  13  14
ATOM     14  C   UNL     1       2.429   4.585  20.843  0.00  0.00    +0.000 C 
BRANCH  14  15
ATOM     15  C   UNL     1       1.621   3.293  20.743  0.00  0.00    +0.000 C 
BRANCH  15  16
ATOM     16  C   UNL     1       0.642   3.331  19.572  0.00  0.00    +0.000 C 
BRANCH  16  17
ATOM     17  C   UNL     1       1.390   3.305  18.240  0.00  0.00    +0.000 C 
BRANCH  17  18
ATOM     18  C   UNL     1       2.282   2.069  18.132  0.00  0.00    +0.000 C 
BRANCH  18  19
ATOM     19  C   UNL     1       3.743   2.462  17.917  0.00  0.00    +0.000 C 
BRANCH  19  20
ATOM     20  C   UNL     1       3.850   3.802  17.190  0.00  0.00    +0.000 C 
BRANCH  20  21
ATOM     21  C   UNL     1       5.303   4.171  16.944  0.00  0.00    +0.000 C 
ATOM     22 BR   UNL     1       5.575   4.549  15.055  0.00  0.00    +0.000 Br
ENDBRANCH  20  21
ENDBRANCH  19  20
ENDBRANCH  18  19
ENDBRANCH  17  18
ENDBRANCH  16  17
ENDBRANCH  15  16
ENDBRANCH  14  15
ENDBRANCH  13  14
ENDBRANCH  12  13
ENDBRANCH   5  12
TORSDOF 10
ENDMDL
