MODEL 1
REMARK VINA RESULT:      -9.1      0.000      0.000
REMARK  Name = 
REMARK  10 active torsions:
REMARK  status: ('A' for Active; 'I' for Inactive)
REMARK    1  A    between atoms: C_1  and  C_2
REMARK    2  A    between atoms: C_4  and  C_5
REMARK    3  A    between atoms: C_7  and  C_8
REMARK    4  A    between atoms: N_10  and  N_11
REMARK    5  A    between atoms: N_10  and  C_24
REMARK    6  A    between atoms: C_12  and  C_14
REMARK    7  A    between atoms: C_17  and  C_18
REMARK    8  A    between atoms: C_24  and  C_25
REMARK    9  A    between atoms: C_24  and  C_26
REMARK   10  A    between atoms: C_24  and  C_27
REMARK                            x       y       z     vdW  Elec       q    Type
REMARK                         _______ _______ _______ _____ _____    ______ ____
ROOT
ATOM      1  C   UNL     1       4.184   3.488  18.765  0.00  0.00    +0.000 C 
ATOM      2  O   UNL     1       4.262   2.265  18.589  0.00  0.00    +0.000 OA
ATOM      3  N   UNL     1       3.194   4.057  19.592  0.00  0.00    +0.000 N 
ENDROOT
BRANCH   1  10
ATOM      4  C   UNL     1       8.092   6.722  18.691  0.00  0.00    +0.000 C 
ATOM      5  C   UNL     1       7.133   5.808  17.989  0.00  0.00    +0.000 A 
ATOM      6  C   UNL     1       7.227   5.621  16.603  0.00  0.00    +0.000 A 
ATOM      7  C   UNL     1       6.339   4.773  15.934  0.00  0.00    +0.000 A 
ATOM      8  C   UNL     1       6.453   4.548  14.458  0.00  0.00    +0.000 C 
ATOM      9  C   UNL     1       5.347   4.114  16.671  0.00  0.00    +0.000 A 
ATOM     10  C   UNL     1       5.221   4.299  18.061  0.00  0.00    +0.000 A 
ATOM     11  C   UNL     1       6.126   5.143  18.712  0.00  0.00    +0.000 A 
ENDBRANCH   1  10
BRANCH   3  12
ATOM     12  N   UNL     1       3.017   5.458  19.702  0.00  0.00    +0.000 N 
ATOM     13  C   UNL     1       2.402   6.171  18.685  0.00  0.00    +0.000 C 
ATOM     14  O   UNL     1       2.053   5.677  17.617  0.00  0.00    +0.000 OA
ATOM     15  H   UNL     1       3.320   5.883  20.569  0.00  0.00    +0.000 HD
BRANCH  13  16
ATOM     16  C   UNL     1       2.145   7.623  18.919  0.00  0.00    +0.000 A 
ATOM     17  C   UNL     1       1.568   8.114  20.096  0.00  0.00    +0.000 A 
ATOM     18  C   UNL     1       1.080   9.428  20.138  0.00  0.00    +0.000 A 
ATOM     19  C   UNL     1       1.169  10.262  19.011  0.00  0.00    +0.000 A 
ATOM     20  C   UNL     1       1.863   9.803  17.883  0.00  0.00    +0.000 A 
ATOM     21  C   UNL     1       2.348   8.495  17.840  0.00  0.00    +0.000 A 
BRANCH  19  22
ATOM     22  C   UNL     1       0.461  11.597  18.962  0.00  0.00    +0.000 C 
ATOM     23  F   UNL     1       1.210  12.588  18.399  0.00  0.00    +0.000 F 
ATOM     24  F   UNL     1      -0.702  11.556  18.259  0.00  0.00    +0.000 F 
ATOM     25  F   UNL     1       0.133  12.046  20.206  0.00  0.00    +0.000 F 
ENDBRANCH  19  22
ENDBRANCH  13  16
ENDBRANCH   3  12
BRANCH   3  26
ATOM     26  C   UNL     1       2.144   3.223  20.276  0.00  0.00    +0.000 C 
ATOM     27  C   UNL     1       0.943   4.111  20.670  0.00  0.00    +0.000 C 
ATOM     28  C   UNL     1       1.572   2.089  19.387  0.00  0.00    +0.000 C 
ATOM     29  C   UNL     1       2.704   2.543  21.546  0.00  0.00    +0.000 C 
ENDBRANCH   3  26
TORSDOF 5
ENDMDL
MODEL 2
REMARK VINA RESULT:      -9.0      0.146      1.115
REMARK  Name = 
REMARK  10 active torsions:
REMARK  status: ('A' for Active; 'I' for Inactive)
REMARK    1  A    between atoms: C_1  and  C_2
REMARK    2  A    between atoms: C_4  and  C_5
REMARK    3  A    between atoms: C_7  and  C_8
REMARK    4  A    between atoms: N_10  and  N_11
REMARK    5  A    between atoms: N_10  and  C_24
REMARK    6  A    between atoms: C_12  and  C_14
REMARK    7  A    between atoms: C_17  and  C_18
REMARK    8  A    between atoms: C_24  and  C_25
REMARK    9  A    between atoms: C_24  and  C_26
REMARK   10  A    between atoms: C_24  and  C_27
REMARK                            x       y       z     vdW  Elec       q    Type
REMARK                         _______ _______ _______ _____ _____    ______ ____
ROOT
ATOM      1  C   UNL     1       4.207   3.412  18.716  0.00  0.00    +0.000 C 
ATOM      2  O   UNL     1       4.289   2.192  18.531  0.00  0.00    +0.000 OA
ATOM      3  N   UNL     1       3.225   3.972  19.559  0.00  0.00    +0.000 N 
ENDROOT
BRANCH   1  10
ATOM      4  C   UNL     1       8.049   6.724  18.610  0.00  0.00    +0.000 C 
ATOM      5  C   UNL     1       7.112   5.779  17.917  0.00  0.00    +0.000 A 
ATOM      6  C   UNL     1       7.218   5.572  16.535  0.00  0.00    +0.000 A 
ATOM      7  C   UNL     1       6.352   4.696  15.875  0.00  0.00    +0.000 A 
ATOM      8  C   UNL     1       6.478   4.449  14.404  0.00  0.00    +0.000 C 
ATOM      9  C   UNL     1       5.369   4.029  16.618  0.00  0.00    +0.000 A 
ATOM     10  C   UNL     1       5.231   4.233  18.004  0.00  0.00    +0.000 A 
ATOM     11  C   UNL     1       6.115   5.107  18.646  0.00  0.00    +0.000 A 
ENDBRANCH   1  10
BRANCH   3  12
ATOM     12  N   UNL     1       3.043   5.371  19.680  0.00  0.00    +0.000 N 
ATOM     13  C   UNL     1       2.395   6.085  18.685  0.00  0.00    +0.000 C 
ATOM     14  O   UNL     1       2.018   5.594  17.625  0.00  0.00    +0.000 OA
ATOM     15  H   UNL     1       3.368   5.794  20.540  0.00  0.00    +0.000 HD
BRANCH  13  16
ATOM     16  C   UNL     1       2.136   7.534  18.933  0.00  0.00    +0.000 A 
ATOM     17  C   UNL     1       1.628   8.021  20.144  0.00  0.00    +0.000 A 
ATOM     18  C   UNL     1       1.129   9.329  20.214  0.00  0.00    +0.000 A 
ATOM     19  C   UNL     1       1.138  10.163  19.083  0.00  0.00    +0.000 A 
ATOM     20  C   UNL     1       1.765   9.710  17.915  0.00  0.00    +0.000 A 
ATOM     21  C   UNL     1       2.262   8.407  17.843  0.00  0.00    +0.000 A 
BRANCH  19  22
ATOM     22  C   UNL     1       0.413  11.489  19.077  0.00  0.00    +0.000 C 
ATOM     23  F   UNL     1      -0.148  11.807  20.278  0.00  0.00    +0.000 F 
ATOM     24  F   UNL     1       1.219  12.534  18.748  0.00  0.00    +0.000 F 
ATOM     25  F   UNL     1      -0.610  11.506  18.177  0.00  0.00    +0.000 F 
ENDBRANCH  19  22
ENDBRANCH  13  16
ENDBRANCH   3  12
BRANCH   3  26
ATOM     26  C   UNL     1       2.188   3.128  20.250  0.00  0.00    +0.000 C 
ATOM     27  C   UNL     1       2.796   2.480  21.514  0.00  0.00    +0.000 C 
ATOM     28  C   UNL     1       0.949   3.930  20.727  0.00  0.00    +0.000 C 
ATOM     29  C   UNL     1       1.657   2.014  19.320  0.00  0.00    +0.000 C 
ENDBRANCH   3  26
TORSDOF 5
ENDMDL
MODEL 3
REMARK VINA RESULT:      -8.9      0.231      1.787
REMARK  Name = 
REMARK  10 active torsions:
REMARK  status: ('A' for Active; 'I' for Inactive)
REMARK    1  A    between atoms: C_1  and  C_2
REMARK    2  A    between atoms: C_4  and  C_5
REMARK    3  A    between atoms: C_7  and  C_8
REMARK    4  A    between atoms: N_10  and  N_11
REMARK    5  A    between atoms: N_10  and  C_24
REMARK    6  A    between atoms: C_12  and  C_14
REMARK    7  A    between atoms: C_17  and  C_18
REMARK    8  A    between atoms: C_24  and  C_25
REMARK    9  A    between atoms: C_24  and  C_26
REMARK   10  A    between atoms: C_24  and  C_27
REMARK                            x       y       z     vdW  Elec       q    Type
REMARK                         _______ _______ _______ _____ _____    ______ ____
ROOT
ATOM      1  C   UNL     1       4.125   3.280  18.722  0.00  0.00    +0.000 C 
ATOM      2  O   UNL     1       4.156   2.052  18.573  0.00  0.00    +0.000 OA
ATOM      3  N   UNL     1       3.188   3.901  19.573  0.00  0.00    +0.000 N 
ENDROOT
BRANCH   1  10
ATOM      4  C   UNL     1       6.207   4.974  14.417  0.00  0.00    +0.000 C 
ATOM      5  C   UNL     1       6.156   4.916  15.915  0.00  0.00    +0.000 A 
ATOM      6  C   UNL     1       7.067   5.659  16.679  0.00  0.00    +0.000 A 
ATOM      7  C   UNL     1       7.033   5.613  18.075  0.00  0.00    +0.000 A 
ATOM      8  C   UNL     1       7.985   6.426  18.896  0.00  0.00    +0.000 C 
ATOM      9  C   UNL     1       6.073   4.808  18.703  0.00  0.00    +0.000 A 
ATOM     10  C   UNL     1       5.159   4.039  17.959  0.00  0.00    +0.000 A 
ATOM     11  C   UNL     1       5.204   4.108  16.562  0.00  0.00    +0.000 A 
ENDBRANCH   1  10
BRANCH   3  12
ATOM     12  N   UNL     1       3.061   5.310  19.656  0.00  0.00    +0.000 N 
ATOM     13  C   UNL     1       2.382   6.014  18.674  0.00  0.00    +0.000 C 
ATOM     14  O   UNL     1       1.928   5.503  17.655  0.00  0.00    +0.000 OA
ATOM     15  H   UNL     1       3.450   5.748  20.481  0.00  0.00    +0.000 HD
BRANCH  13  16
ATOM     16  C   UNL     1       2.188   7.479  18.886  0.00  0.00    +0.000 A 
ATOM     17  C   UNL     1       1.670   8.015  20.071  0.00  0.00    +0.000 A 
ATOM     18  C   UNL     1       1.235   9.347  20.101  0.00  0.00    +0.000 A 
ATOM     19  C   UNL     1       1.317  10.155  18.955  0.00  0.00    +0.000 A 
ATOM     20  C   UNL     1       1.954   9.648  17.815  0.00  0.00    +0.000 A 
ATOM     21  C   UNL     1       2.388   8.321  17.783  0.00  0.00    +0.000 A 
BRANCH  19  22
ATOM     22  C   UNL     1       0.659  11.515  18.901  0.00  0.00    +0.000 C 
ATOM     23  F   UNL     1      -0.534  11.515  18.242  0.00  0.00    +0.000 F 
ATOM     24  F   UNL     1       0.411  12.035  20.133  0.00  0.00    +0.000 F 
ATOM     25  F   UNL     1       1.435  12.432  18.257  0.00  0.00    +0.000 F 
ENDBRANCH  19  22
ENDBRANCH  13  16
ENDBRANCH   3  12
BRANCH   3  26
ATOM     26  C   UNL     1       2.139   3.119  20.317  0.00  0.00    +0.000 C 
ATOM     27  C   UNL     1       1.001   4.063  20.767  0.00  0.00    +0.000 C 
ATOM     28  C   UNL     1       1.471   2.007  19.467  0.00  0.00    +0.000 C 
ATOM     29  C   UNL     1       2.734   2.421  21.561  0.00  0.00    +0.000 C 
ENDBRANCH   3  26
TORSDOF 5
ENDMDL
MODEL 4
REMARK VINA RESULT:      -8.9      0.245      1.836
REMARK  Name = 
REMARK  10 active torsions:
REMARK  status: ('A' for Active; 'I' for Inactive)
REMARK    1  A    between atoms: C_1  and  C_2
REMARK    2  A    between atoms: C_4  and  C_5
REMARK    3  A    between atoms: C_7  and  C_8
REMARK    4  A    between atoms: N_10  and  N_11
REMARK    5  A    between atoms: N_10  and  C_24
REMARK    6  A    between atoms: C_12  and  C_14
REMARK    7  A    between atoms: C_17  and  C_18
REMARK    8  A    between atoms: C_24  and  C_25
REMARK    9  A    between atoms: C_24  and  C_26
REMARK   10  A    between atoms: C_24  and  C_27
REMARK                            x       y       z     vdW  Elec       q    Type
REMARK                         _______ _______ _______ _____ _____    ______ ____
ROOT
ATOM      1  C   UNL     1       4.179   3.259  18.651  0.00  0.00    +0.000 C 
ATOM      2  O   UNL     1       4.212   2.033  18.489  0.00  0.00    +0.000 OA
ATOM      3  N   UNL     1       3.238   3.870  19.504  0.00  0.00    +0.000 N 
ENDROOT
BRANCH   1  10
ATOM      4  C   UNL     1       6.318   4.941  14.369  0.00  0.00    +0.000 C 
ATOM      5  C   UNL     1       6.237   4.899  15.866  0.00  0.00    +0.000 A 
ATOM      6  C   UNL     1       7.120   5.666  16.639  0.00  0.00    +0.000 A 
ATOM      7  C   UNL     1       7.059   5.635  18.035  0.00  0.00    +0.000 A 
ATOM      8  C   UNL     1       7.980   6.474  18.865  0.00  0.00    +0.000 C 
ATOM      9  C   UNL     1       6.101   4.820  18.653  0.00  0.00    +0.000 A 
ATOM     10  C   UNL     1       5.215   4.028  17.899  0.00  0.00    +0.000 A 
ATOM     11  C   UNL     1       5.287   4.081  16.503  0.00  0.00    +0.000 A 
ENDBRANCH   1  10
BRANCH   3  12
ATOM     12  N   UNL     1       3.108   5.278  19.601  0.00  0.00    +0.000 N 
ATOM     13  C   UNL     1       2.387   5.985  18.653  0.00  0.00    +0.000 C 
ATOM     14  O   UNL     1       1.893   5.478  17.650  0.00  0.00    +0.000 OA
ATOM     15  H   UNL     1       3.530   5.713  20.412  0.00  0.00    +0.000 HD
BRANCH  13  16
ATOM     16  C   UNL     1       2.196   7.447  18.882  0.00  0.00    +0.000 A 
ATOM     17  C   UNL     1       1.669   7.970  20.069  0.00  0.00    +0.000 A 
ATOM     18  C   UNL     1       1.238   9.303  20.113  0.00  0.00    +0.000 A 
ATOM     19  C   UNL     1       1.332  10.126  18.977  0.00  0.00    +0.000 A 
ATOM     20  C   UNL     1       1.977   9.630  17.836  0.00  0.00    +0.000 A 
ATOM     21  C   UNL     1       2.407   8.303  17.791  0.00  0.00    +0.000 A 
BRANCH  19  22
ATOM     22  C   UNL     1       0.679  11.488  18.935  0.00  0.00    +0.000 C 
ATOM     23  F   UNL     1       1.376  12.402  18.203  0.00  0.00    +0.000 F 
ATOM     24  F   UNL     1      -0.575  11.460  18.410  0.00  0.00    +0.000 F 
ATOM     25  F   UNL     1       0.553  12.032  20.179  0.00  0.00    +0.000 F 
ENDBRANCH  19  22
ENDBRANCH  13  16
ENDBRANCH   3  12
BRANCH   3  26
ATOM     26  C   UNL     1       2.187   3.079  20.236  0.00  0.00    +0.000 C 
ATOM     27  C   UNL     1       2.813   2.390  21.469  0.00  0.00    +0.000 C 
ATOM     28  C   UNL     1       1.015   3.943  20.769  0.00  0.00    +0.000 C 
ATOM     29  C   UNL     1       1.557   2.002  19.324  0.00  0.00    +0.000 C 
ENDBRANCH   3  26
TORSDOF 5
ENDMDL
MODEL 5
REMARK VINA RESULT:      -8.4      1.069      1.620
REMARK  Name = 
REMARK  10 active torsions:
REMARK  status: ('A' for Active; 'I' for Inactive)
REMARK    1  A    between atoms: C_1  and  C_2
REMARK    2  A    between atoms: C_4  and  C_5
REMARK    3  A    between atoms: C_7  and  C_8
REMARK    4  A    between atoms: N_10  and  N_11
REMARK    5  A    between atoms: N_10  and  C_24
REMARK    6  A    between atoms: C_12  and  C_14
REMARK    7  A    between atoms: C_17  and  C_18
REMARK    8  A    between atoms: C_24  and  C_25
REMARK    9  A    between atoms: C_24  and  C_26
REMARK   10  A    between atoms: C_24  and  C_27
REMARK                            x       y       z     vdW  Elec       q    Type
REMARK                         _______ _______ _______ _____ _____    ______ ____
ROOT
ATOM      1  C   UNL     1       3.916   3.474  18.279  0.00  0.00    +0.000 C 
ATOM      2  O   UNL     1       4.285   2.304  18.438  0.00  0.00    +0.000 OA
ATOM      3  N   UNL     1       2.752   3.976  18.895  0.00  0.00    +0.000 N 
ENDROOT
BRANCH   1  10
ATOM      4  C   UNL     1       7.315   7.167  17.541  0.00  0.00    +0.000 C 
ATOM      5  C   UNL     1       6.474   6.037  17.026  0.00  0.00    +0.000 A 
ATOM      6  C   UNL     1       6.548   5.663  15.677  0.00  0.00    +0.000 A 
ATOM      7  C   UNL     1       5.770   4.613  15.183  0.00  0.00    +0.000 A 
ATOM      8  C   UNL     1       5.865   4.191  13.750  0.00  0.00    +0.000 C 
ATOM      9  C   UNL     1       4.907   3.940  16.058  0.00  0.00    +0.000 A 
ATOM     10  C   UNL     1       4.802   4.307  17.412  0.00  0.00    +0.000 A 
ATOM     11  C   UNL     1       5.598   5.355  17.889  0.00  0.00    +0.000 A 
ENDBRANCH   1  10
BRANCH   3  12
ATOM     12  N   UNL     1       2.252   5.273  18.622  0.00  0.00    +0.000 N 
ATOM     13  C   UNL     1       2.536   6.331  19.471  0.00  0.00    +0.000 C 
ATOM     14  O   UNL     1       3.149   6.214  20.529  0.00  0.00    +0.000 OA
ATOM     15  H   UNL     1       1.727   5.380  17.764  0.00  0.00    +0.000 HD
BRANCH  13  16
ATOM     16  C   UNL     1       2.074   7.689  19.059  0.00  0.00    +0.000 A 
ATOM     17  C   UNL     1       2.509   8.318  17.886  0.00  0.00    +0.000 A 
ATOM     18  C   UNL     1       2.282   9.690  17.706  0.00  0.00    +0.000 A 
ATOM     19  C   UNL     1       1.616  10.442  18.688  0.00  0.00    +0.000 A 
ATOM     20  C   UNL     1       1.074   9.778  19.797  0.00  0.00    +0.000 A 
ATOM     21  C   UNL     1       1.300   8.412  19.978  0.00  0.00    +0.000 A 
BRANCH  19  22
ATOM     22  C   UNL     1       1.553  11.951  18.616  0.00  0.00    +0.000 C 
ATOM     23  F   UNL     1       2.363  12.482  17.658  0.00  0.00    +0.000 F 
ATOM     24  F   UNL     1       0.303  12.419  18.357  0.00  0.00    +0.000 F 
ATOM     25  F   UNL     1       1.937  12.533  19.787  0.00  0.00    +0.000 F 
ENDBRANCH  19  22
ENDBRANCH  13  16
ENDBRANCH   3  12
BRANCH   3  26
ATOM     26  C   UNL     1       1.860   3.113  19.748  0.00  0.00    +0.000 C 
ATOM     27  C   UNL     1       2.612   2.685  21.028  0.00  0.00    +0.000 C 
ATOM     28  C   UNL     1       0.568   3.828  20.221  0.00  0.00    +0.000 C 
ATOM     29  C   UNL     1       1.406   1.848  18.985  0.00  0.00    +0.000 C 
ENDBRANCH   3  26
TORSDOF 5
ENDMDL
MODEL 6
REMARK VINA RESULT:      -8.3      0.990      1.268
REMARK  Name = 
REMARK  10 active torsions:
REMARK  status: ('A' for Active; 'I' for Inactive)
REMARK    1  A    between atoms: C_1  and  C_2
REMARK    2  A    between atoms: C_4  and  C_5
REMARK    3  A    between atoms: C_7  and  C_8
REMARK    4  A    between atoms: N_10  and  N_11
REMARK    5  A    between atoms: N_10  and  C_24
REMARK    6  A    between atoms: C_12  and  C_14
REMARK    7  A    between atoms: C_17  and  C_18
REMARK    8  A    between atoms: C_24  and  C_25
REMARK    9  A    between atoms: C_24  and  C_26
REMARK   10  A    between atoms: C_24  and  C_27
REMARK                            x       y       z     vdW  Elec       q    Type
REMARK                         _______ _______ _______ _____ _____    ______ ____
ROOT
ATOM      1  C   UNL     1       3.865   3.173  18.517  0.00  0.00    +0.000 C 
ATOM      2  O   UNL     1       4.132   1.965  18.517  0.00  0.00    +0.000 OA
ATOM      3  N   UNL     1       2.671   3.669  19.079  0.00  0.00    +0.000 N 
ENDROOT
BRANCH   1  10
ATOM      4  C   UNL     1       7.824   6.334  18.786  0.00  0.00    +0.000 C 
ATOM      5  C   UNL     1       6.837   5.533  17.990  0.00  0.00    +0.000 A 
ATOM      6  C   UNL     1       6.904   5.526  16.590  0.00  0.00    +0.000 A 
ATOM      7  C   UNL     1       5.991   4.786  15.834  0.00  0.00    +0.000 A 
ATOM      8  C   UNL     1       6.075   4.753  14.340  0.00  0.00    +0.000 C 
ATOM      9  C   UNL     1       5.001   4.050  16.499  0.00  0.00    +0.000 A 
ATOM     10  C   UNL     1       4.902   4.054  17.903  0.00  0.00    +0.000 A 
ATOM     11  C   UNL     1       5.833   4.794  18.641  0.00  0.00    +0.000 A 
ENDBRANCH   1  10
BRANCH   3  12
ATOM     12  N   UNL     1       2.296   5.031  18.974  0.00  0.00    +0.000 N 
ATOM     13  C   UNL     1       2.354   5.865  20.080  0.00  0.00    +0.000 C 
ATOM     14  O   UNL     1       2.646   5.484  21.210  0.00  0.00    +0.000 OA
ATOM     15  H   UNL     1       2.032   5.355  18.052  0.00  0.00    +0.000 HD
BRANCH  13  16
ATOM     16  C   UNL     1       2.056   7.312  19.868  0.00  0.00    +0.000 A 
ATOM     17  C   UNL     1       1.477   8.123  20.853  0.00  0.00    +0.000 A 
ATOM     18  C   UNL     1       0.950   9.374  20.504  0.00  0.00    +0.000 A 
ATOM     19  C   UNL     1       1.000   9.828  19.175  0.00  0.00    +0.000 A 
ATOM     20  C   UNL     1       1.694   9.066  18.226  0.00  0.00    +0.000 A 
ATOM     21  C   UNL     1       2.219   7.820  18.572  0.00  0.00    +0.000 A 
BRANCH  19  22
ATOM     22  C   UNL     1       0.251  11.067  18.738  0.00  0.00    +0.000 C 
ATOM     23  F   UNL     1       1.055  12.025  18.198  0.00  0.00    +0.000 F 
ATOM     24  F   UNL     1      -0.706  10.808  17.808  0.00  0.00    +0.000 F 
ATOM     25  F   UNL     1      -0.390  11.668  19.779  0.00  0.00    +0.000 F 
ENDBRANCH  19  22
ENDBRANCH  13  16
ENDBRANCH   3  12
BRANCH   3  26
ATOM     26  C   UNL     1       1.627   2.762  19.673  0.00  0.00    +0.000 C 
ATOM     27  C   UNL     1       2.095   2.259  21.058  0.00  0.00    +0.000 C 
ATOM     28  C   UNL     1       0.258   3.452  19.902  0.00  0.00    +0.000 C 
ATOM     29  C   UNL     1       1.356   1.543  18.762  0.00  0.00    +0.000 C 
ENDBRANCH   3  26
TORSDOF 5
ENDMDL
MODEL 7
REMARK VINA RESULT:      -8.2      0.989      1.510
REMARK  Name = 
REMARK  10 active torsions:
REMARK  status: ('A' for Active; 'I' for Inactive)
REMARK    1  A    between atoms: C_1  and  C_2
REMARK    2  A    between atoms: C_4  and  C_5
REMARK    3  A    between atoms: C_7  and  C_8
REMARK    4  A    between atoms: N_10  and  N_11
REMARK    5  A    between atoms: N_10  and  C_24
REMARK    6  A    between atoms: C_12  and  C_14
REMARK    7  A    between atoms: C_17  and  C_18
REMARK    8  A    between atoms: C_24  and  C_25
REMARK    9  A    between atoms: C_24  and  C_26
REMARK   10  A    between atoms: C_24  and  C_27
REMARK                            x       y       z     vdW  Elec       q    Type
REMARK                         _______ _______ _______ _____ _____    ______ ____
ROOT
ATOM      1  C   UNL     1       3.882   3.200  18.521  0.00  0.00    +0.000 C 
ATOM      2  O   UNL     1       4.149   1.992  18.516  0.00  0.00    +0.000 OA
ATOM      3  N   UNL     1       2.688   3.694  19.085  0.00  0.00    +0.000 N 
ENDROOT
BRANCH   1  10
ATOM      4  C   UNL     1       7.829   6.374  18.805  0.00  0.00    +0.000 C 
ATOM      5  C   UNL     1       6.850   5.568  18.006  0.00  0.00    +0.000 A 
ATOM      6  C   UNL     1       6.924   5.560  16.606  0.00  0.00    +0.000 A 
ATOM      7  C   UNL     1       6.017   4.814  15.847  0.00  0.00    +0.000 A 
ATOM      8  C   UNL     1       6.109   4.779  14.353  0.00  0.00    +0.000 C 
ATOM      9  C   UNL     1       5.026   4.077  16.508  0.00  0.00    +0.000 A 
ATOM     10  C   UNL     1       4.920   4.084  17.911  0.00  0.00    +0.000 A 
ATOM     11  C   UNL     1       5.844   4.828  18.652  0.00  0.00    +0.000 A 
ENDBRANCH   1  10
BRANCH   3  12
ATOM     12  N   UNL     1       2.313   5.057  18.985  0.00  0.00    +0.000 N 
ATOM     13  C   UNL     1       2.345   5.879  20.099  0.00  0.00    +0.000 C 
ATOM     14  O   UNL     1       2.611   5.488  21.232  0.00  0.00    +0.000 OA
ATOM     15  H   UNL     1       2.070   5.389  18.060  0.00  0.00    +0.000 HD
BRANCH  13  16
ATOM     16  C   UNL     1       2.049   7.328  19.895  0.00  0.00    +0.000 A 
ATOM     17  C   UNL     1       1.450   8.129  20.875  0.00  0.00    +0.000 A 
ATOM     18  C   UNL     1       0.928   9.383  20.527  0.00  0.00    +0.000 A 
ATOM     19  C   UNL     1       1.004   9.850  19.204  0.00  0.00    +0.000 A 
ATOM     20  C   UNL     1       1.717   9.097  18.262  0.00  0.00    +0.000 A 
ATOM     21  C   UNL     1       2.237   7.848  18.606  0.00  0.00    +0.000 A 
BRANCH  19  22
ATOM     22  C   UNL     1       0.262  11.091  18.764  0.00  0.00    +0.000 C 
ATOM     23  F   UNL     1      -0.434  11.693  19.770  0.00  0.00    +0.000 F 
ATOM     24  F   UNL     1       1.082  12.045  18.248  0.00  0.00    +0.000 F 
ATOM     25  F   UNL     1      -0.655  10.819  17.794  0.00  0.00    +0.000 F 
ENDBRANCH  19  22
ENDBRANCH  13  16
ENDBRANCH   3  12
BRANCH   3  26
ATOM     26  C   UNL     1       1.643   2.784  19.675  0.00  0.00    +0.000 C 
ATOM     27  C   UNL     1       1.463   1.540  18.776  0.00  0.00    +0.000 C 
ATOM     28  C   UNL     1       2.005   2.253  21.086  0.00  0.00    +0.000 C 
ATOM     29  C   UNL     1       0.283   3.505  19.814  0.00  0.00    +0.000 C 
ENDBRANCH   3  26
TORSDOF 5
ENDMDL
MODEL 8
REMARK VINA RESULT:      -8.0      0.993      2.348
REMARK  Name = 
REMARK  10 active torsions:
REMARK  status: ('A' for Active; 'I' for Inactive)
REMARK    1  A    between atoms: C_1  and  C_2
REMARK    2  A    between atoms: C_4  and  C_5
REMARK    3  A    between atoms: C_7  and  C_8
REMARK    4  A    between atoms: N_10  and  N_11
REMARK    5  A    between atoms: N_10  and  C_24
REMARK    6  A    between atoms: C_12  and  C_14
REMARK    7  A    between atoms: C_17  and  C_18
REMARK    8  A    between atoms: C_24  and  C_25
REMARK    9  A    between atoms: C_24  and  C_26
REMARK   10  A    between atoms: C_24  and  C_27
REMARK                            x       y       z     vdW  Elec       q    Type
REMARK                         _______ _______ _______ _____ _____    ______ ____
ROOT
ATOM      1  C   UNL     1       4.040   3.308  18.762  0.00  0.00    +0.000 C 
ATOM      2  O   UNL     1       4.395   2.145  18.988  0.00  0.00    +0.000 OA
ATOM      3  N   UNL     1       2.816   3.816  19.242  0.00  0.00    +0.000 N 
ENDROOT
BRANCH   1  10
ATOM      4  C   UNL     1       5.758   5.313  14.431  0.00  0.00    +0.000 C 
ATOM      5  C   UNL     1       5.830   5.151  15.920  0.00  0.00    +0.000 A 
ATOM      6  C   UNL     1       6.800   5.845  16.656  0.00  0.00    +0.000 A 
ATOM      7  C   UNL     1       6.880   5.702  18.045  0.00  0.00    +0.000 A 
ATOM      8  C   UNL     1       7.895   6.463  18.840  0.00  0.00    +0.000 C 
ATOM      9  C   UNL     1       5.977   4.848  18.691  0.00  0.00    +0.000 A 
ATOM     10  C   UNL     1       5.006   4.126  17.972  0.00  0.00    +0.000 A 
ATOM     11  C   UNL     1       4.936   4.292  16.584  0.00  0.00    +0.000 A 
ENDBRANCH   1  10
BRANCH   3  12
ATOM     12  N   UNL     1       2.340   5.103  18.886  0.00  0.00    +0.000 N 
ATOM     13  C   UNL     1       2.388   6.147  19.795  0.00  0.00    +0.000 C 
ATOM     14  O   UNL     1       2.754   6.024  20.961  0.00  0.00    +0.000 OA
ATOM     15  H   UNL     1       2.015   5.213  17.934  0.00  0.00    +0.000 HD
BRANCH  13  16
ATOM     16  C   UNL     1       1.979   7.499  19.314  0.00  0.00    +0.000 A 
ATOM     17  C   UNL     1       2.377   8.020  18.076  0.00  0.00    +0.000 A 
ATOM     18  C   UNL     1       2.216   9.388  17.812  0.00  0.00    +0.000 A 
ATOM     19  C   UNL     1       1.653  10.243  18.774  0.00  0.00    +0.000 A 
ATOM     20  C   UNL     1       1.142   9.689  19.955  0.00  0.00    +0.000 A 
ATOM     21  C   UNL     1       1.302   8.328  20.220  0.00  0.00    +0.000 A 
BRANCH  19  22
ATOM     22  C   UNL     1       1.670  11.745  18.598  0.00  0.00    +0.000 C 
ATOM     23  F   UNL     1       1.983  12.421  19.739  0.00  0.00    +0.000 F 
ATOM     24  F   UNL     1       2.558  12.160  17.655  0.00  0.00    +0.000 F 
ATOM     25  F   UNL     1       0.456  12.225  18.207  0.00  0.00    +0.000 F 
ENDBRANCH  19  22
ENDBRANCH  13  16
ENDBRANCH   3  12
BRANCH   3  26
ATOM     26  C   UNL     1       1.844   2.968  20.019  0.00  0.00    +0.000 C 
ATOM     27  C   UNL     1       1.608   1.631  19.280  0.00  0.00    +0.000 C 
ATOM     28  C   UNL     1       2.340   2.596  21.440  0.00  0.00    +0.000 C 
ATOM     29  C   UNL     1       0.489   3.688  20.201  0.00  0.00    +0.000 C 
ENDBRANCH   3  26
TORSDOF 5
ENDMDL
MODEL 9
REMARK VINA RESULT:      -8.0      0.586      1.108
REMARK  Name = 
REMARK  10 active torsions:
REMARK  status: ('A' for Active; 'I' for Inactive)
REMARK    1  A    between atoms: C_1  and  C_2
REMARK    2  A    between atoms: C_4  and  C_5
REMARK    3  A    between atoms: C_7  and  C_8
REMARK    4  A    between atoms: N_10  and  N_11
REMARK    5  A    between atoms: N_10  and  C_24
REMARK    6  A    between atoms: C_12  and  C_14
REMARK    7  A    between atoms: C_17  and  C_18
REMARK    8  A    between atoms: C_24  and  C_25
REMARK    9  A    between atoms: C_24  and  C_26
REMARK   10  A    between atoms: C_24  and  C_27
REMARK                            x       y       z     vdW  Elec       q    Type
REMARK                         _______ _______ _______ _____ _____    ______ ____
ROOT
ATOM      1  C   UNL     1       4.371   3.641  18.958  0.00  0.00    +0.000 C 
ATOM      2  O   UNL     1       4.604   2.427  18.907  0.00  0.00    +0.000 OA
ATOM      3  N   UNL     1       3.268   4.156  19.669  0.00  0.00    +0.000 N 
ENDROOT
BRANCH   1  10
ATOM      4  C   UNL     1       8.191   6.977  18.820  0.00  0.00    +0.000 C 
ATOM      5  C   UNL     1       7.218   6.067  18.130  0.00  0.00    +0.000 A 
ATOM      6  C   UNL     1       7.245   5.940  16.734  0.00  0.00    +0.000 A 
ATOM      7  C   UNL     1       6.344   5.097  16.076  0.00  0.00    +0.000 A 
ATOM      8  C   UNL     1       6.386   4.936  14.589  0.00  0.00    +0.000 C 
ATOM      9  C   UNL     1       5.408   4.383  16.835  0.00  0.00    +0.000 A 
ATOM     10  C   UNL     1       5.349   4.507  18.236  0.00  0.00    +0.000 A 
ATOM     11  C   UNL     1       6.267   5.348  18.875  0.00  0.00    +0.000 A 
ENDBRANCH   1  10
BRANCH   3  12
ATOM     12  N   UNL     1       2.919   5.529  19.631  0.00  0.00    +0.000 N 
ATOM     13  C   UNL     1       2.250   6.055  18.537  0.00  0.00    +0.000 C 
ATOM     14  O   UNL     1       1.990   5.417  17.521  0.00  0.00    +0.000 OA
ATOM     15  H   UNL     1       3.146   6.073  20.453  0.00  0.00    +0.000 HD
BRANCH  13  16
ATOM     16  C   UNL     1       1.813   7.480  18.617  0.00  0.00    +0.000 A 
ATOM     17  C   UNL     1       2.033   8.404  17.588  0.00  0.00    +0.000 A 
ATOM     18  C   UNL     1       1.876   9.774  17.836  0.00  0.00    +0.000 A 
ATOM     19  C   UNL     1       1.494  10.234  19.107  0.00  0.00    +0.000 A 
ATOM     20  C   UNL     1       1.154   9.297  20.091  0.00  0.00    +0.000 A 
ATOM     21  C   UNL     1       1.310   7.931  19.846  0.00  0.00    +0.000 A 
BRANCH  19  22
ATOM     22  C   UNL     1       1.530  11.705  19.456  0.00  0.00    +0.000 C 
ATOM     23  F   UNL     1       2.577  12.371  18.893  0.00  0.00    +0.000 F 
ATOM     24  F   UNL     1       0.408  12.370  19.071  0.00  0.00    +0.000 F 
ATOM     25  F   UNL     1       1.645  11.908  20.799  0.00  0.00    +0.000 F 
ENDBRANCH  19  22
ENDBRANCH  13  16
ENDBRANCH   3  12
BRANCH   3  26
ATOM     26  C   UNL     1       2.279   3.264  20.371  0.00  0.00    +0.000 C 
ATOM     27  C   UNL     1       1.079   4.100  20.869  0.00  0.00    +0.000 C 
ATOM     28  C   UNL     1       1.689   2.153  19.465  0.00  0.00    +0.000 C 
ATOM     29  C   UNL     1       2.927   2.547  21.578  0.00  0.00    +0.000 C 
ENDBRANCH   3  26
TORSDOF 5
ENDMDL
