MODEL 1
REMARK VINA RESULT:      -8.4      0.000      0.000
REMARK  Name = 
REMARK  2 active torsions:
REMARK  status: ('A' for Active; 'I' for Inactive)
REMARK    1  A    between atoms: C_1  and  N_2
REMARK    2  A    between atoms: C_12  and  C_13
REMARK                            x       y       z     vdW  Elec       q    Type
REMARK                         _______ _______ _______ _____ _____    ______ ____
ROOT
ATOM      1  C   UNL     1      -0.084  14.029  22.154  0.00  0.00    +0.000 C 
ATOM      2  N   UNL     1       0.346  12.677  21.822  0.00  0.00    +0.000 NA
ATOM      3  C   UNL     1       0.885  12.567  20.426  0.00  0.00    +0.000 C 
ATOM      4  C   UNL     1       0.001  11.472  19.767  0.00  0.00    +0.000 C 
ATOM      5  C   UNL     1      -1.350  11.809  20.403  0.00  0.00    +0.000 C 
ATOM      6  C   UNL     1      -0.790  11.708  21.823  0.00  0.00    +0.000 C 
ATOM      7  C   UNL     1      -0.192  10.267  21.795  0.00  0.00    +0.000 C 
ATOM      8  N   UNL     1       0.277  10.179  20.409  0.00  0.00    +0.000 N 
ATOM      9  C   UNL     1       1.065   9.200  19.889  0.00  0.00    +0.000 A 
ATOM     10  C   UNL     1       1.399   8.076  20.628  0.00  0.00    +0.000 A 
ATOM     11  C   UNL     1       2.172   7.057  20.077  0.00  0.00    +0.000 A 
ATOM     12  C   UNL     1       2.598   7.159  18.763  0.00  0.00    +0.000 A 
ATOM     13  N   UNL     1       2.278   8.259  18.051  0.00  0.00    +0.000 NA
ATOM     14  N   UNL     1       1.512   9.277  18.619  0.00  0.00    +0.000 NA
ENDROOT
BRANCH  12  15
ATOM     15  C   UNL     1       3.409   6.120  18.105  0.00  0.00    +0.000 A 
ATOM     16  C   UNL     1       3.276   4.765  18.455  0.00  0.00    +0.000 A 
ATOM     17  C   UNL     1       4.002   3.747  17.817  0.00  0.00    +0.000 A 
ATOM     18  C   UNL     1       4.881   4.122  16.798  0.00  0.00    +0.000 A 
ATOM     19  N   UNL     1       5.703   3.359  16.000  0.00  0.00    +0.000 N 
ATOM     20  C   UNL     1       6.387   4.159  15.122  0.00  0.00    +0.000 A 
ATOM     21  C   UNL     1       6.013   5.462  15.361  0.00  0.00    +0.000 A 
ATOM     22  C   UNL     1       5.063   5.449  16.418  0.00  0.00    +0.000 A 
ATOM     23  C   UNL     1       4.332   6.449  17.088  0.00  0.00    +0.000 A 
ATOM     24  H   UNL     1       5.782   2.353  16.055  0.00  0.00    +0.000 HD
ENDBRANCH  12  15
TORSDOF 1
ENDMDL
MODEL 2
REMARK VINA RESULT:      -8.1      1.732      8.748
REMARK  Name = 
REMARK  2 active torsions:
REMARK  status: ('A' for Active; 'I' for Inactive)
REMARK    1  A    between atoms: C_1  and  N_2
REMARK    2  A    between atoms: C_12  and  C_13
REMARK                            x       y       z     vdW  Elec       q    Type
REMARK                         _______ _______ _______ _____ _____    ______ ____
ROOT
ATOM      1  C   UNL     1       7.797   4.444  17.810  0.00  0.00    +0.000 C 
ATOM      2  N   UNL     1       6.685   5.385  17.808  0.00  0.00    +0.000 NA
ATOM      3  C   UNL     1       5.938   5.401  19.109  0.00  0.00    +0.000 C 
ATOM      4  C   UNL     1       4.474   5.071  18.706  0.00  0.00    +0.000 C 
ATOM      5  C   UNL     1       4.733   4.048  17.597  0.00  0.00    +0.000 C 
ATOM      6  C   UNL     1       5.631   5.010  16.818  0.00  0.00    +0.000 C 
ATOM      7  C   UNL     1       4.673   6.230  16.652  0.00  0.00    +0.000 C 
ATOM      8  N   UNL     1       3.928   6.183  17.915  0.00  0.00    +0.000 N 
ATOM      9  C   UNL     1       3.091   7.143  18.390  0.00  0.00    +0.000 A 
ATOM     10  C   UNL     1       2.748   8.244  17.619  0.00  0.00    +0.000 A 
ATOM     11  C   UNL     1       1.858   9.203  18.095  0.00  0.00    +0.000 A 
ATOM     12  C   UNL     1       1.290   9.046  19.348  0.00  0.00    +0.000 A 
ATOM     13  N   UNL     1       1.634   7.978  20.097  0.00  0.00    +0.000 NA
ATOM     14  N   UNL     1       2.536   7.030  19.613  0.00  0.00    +0.000 NA
ENDROOT
BRANCH  12  15
ATOM     15  C   UNL     1       0.332  10.011  19.916  0.00  0.00    +0.000 A 
ATOM     16  C   UNL     1      -0.376  10.902  19.092  0.00  0.00    +0.000 A 
ATOM     17  C   UNL     1      -1.327  11.803  19.597  0.00  0.00    +0.000 A 
ATOM     18  C   UNL     1      -1.560  11.790  20.975  0.00  0.00    +0.000 A 
ATOM     19  N   UNL     1      -2.425  12.536  21.742  0.00  0.00    +0.000 N 
ATOM     20  C   UNL     1      -2.321  12.175  23.060  0.00  0.00    +0.000 A 
ATOM     21  C   UNL     1      -1.366  11.188  23.152  0.00  0.00    +0.000 A 
ATOM     22  C   UNL     1      -0.879  10.939  21.840  0.00  0.00    +0.000 A 
ATOM     23  C   UNL     1       0.080  10.058  21.305  0.00  0.00    +0.000 A 
ATOM     24  H   UNL     1      -3.048  13.244  21.379  0.00  0.00    +0.000 HD
ENDBRANCH  12  15
TORSDOF 1
ENDMDL
MODEL 3
REMARK VINA RESULT:      -8.0      1.711      8.740
REMARK  Name = 
REMARK  2 active torsions:
REMARK  status: ('A' for Active; 'I' for Inactive)
REMARK    1  A    between atoms: C_1  and  N_2
REMARK    2  A    between atoms: C_12  and  C_13
REMARK                            x       y       z     vdW  Elec       q    Type
REMARK                         _______ _______ _______ _____ _____    ______ ____
ROOT
ATOM      1  C   UNL     1       7.425   4.569  17.432  0.00  0.00    +0.000 C 
ATOM      2  N   UNL     1       6.325   5.495  17.669  0.00  0.00    +0.000 NA
ATOM      3  C   UNL     1       5.679   5.295  19.008  0.00  0.00    +0.000 C 
ATOM      4  C   UNL     1       4.186   5.031  18.670  0.00  0.00    +0.000 C 
ATOM      5  C   UNL     1       4.349   4.205  17.391  0.00  0.00    +0.000 C 
ATOM      6  C   UNL     1       5.196   5.285  16.715  0.00  0.00    +0.000 C 
ATOM      7  C   UNL     1       4.240   6.514  16.825  0.00  0.00    +0.000 C 
ATOM      8  N   UNL     1       3.593   6.257  18.116  0.00  0.00    +0.000 N 
ATOM      9  C   UNL     1       2.803   7.124  18.804  0.00  0.00    +0.000 A 
ATOM     10  C   UNL     1       2.414   8.335  18.254  0.00  0.00    +0.000 A 
ATOM     11  C   UNL     1       1.572   9.201  18.947  0.00  0.00    +0.000 A 
ATOM     12  C   UNL     1       1.100   8.839  20.197  0.00  0.00    +0.000 A 
ATOM     13  N   UNL     1       1.488   7.663  20.732  0.00  0.00    +0.000 NA
ATOM     14  N   UNL     1       2.342   6.810  20.032  0.00  0.00    +0.000 NA
ENDROOT
BRANCH  12  15
ATOM     15  C   UNL     1       0.197   9.694  20.987  0.00  0.00    +0.000 A 
ATOM     16  C   UNL     1      -0.036   9.439  22.350  0.00  0.00    +0.000 A 
ATOM     17  C   UNL     1      -0.855  10.260  23.141  0.00  0.00    +0.000 A 
ATOM     18  C   UNL     1      -1.447  11.366  22.526  0.00  0.00    +0.000 A 
ATOM     19  N   UNL     1      -2.275  12.338  23.040  0.00  0.00    +0.000 N 
ATOM     20  C   UNL     1      -2.608  13.241  22.064  0.00  0.00    +0.000 A 
ATOM     21  C   UNL     1      -1.998  12.843  20.896  0.00  0.00    +0.000 A 
ATOM     22  C   UNL     1      -1.263  11.659  21.178  0.00  0.00    +0.000 A 
ATOM     23  C   UNL     1      -0.448  10.809  20.407  0.00  0.00    +0.000 A 
ATOM     24  H   UNL     1      -2.585  12.377  24.000  0.00  0.00    +0.000 HD
ENDBRANCH  12  15
TORSDOF 1
ENDMDL
MODEL 4
REMARK VINA RESULT:      -7.9      1.567      2.692
REMARK  Name = 
REMARK  2 active torsions:
REMARK  status: ('A' for Active; 'I' for Inactive)
REMARK    1  A    between atoms: C_1  and  N_2
REMARK    2  A    between atoms: C_12  and  C_13
REMARK                            x       y       z     vdW  Elec       q    Type
REMARK                         _______ _______ _______ _____ _____    ______ ____
ROOT
ATOM      1  C   UNL     1      -2.791  13.696  20.861  0.00  0.00    +0.000 C 
ATOM      2  N   UNL     1      -1.882  12.773  20.195  0.00  0.00    +0.000 NA
ATOM      3  C   UNL     1      -1.560  11.571  21.034  0.00  0.00    +0.000 C 
ATOM      4  C   UNL     1      -0.010  11.592  21.140  0.00  0.00    +0.000 C 
ATOM      5  C   UNL     1       0.225  13.102  21.240  0.00  0.00    +0.000 C 
ATOM      6  C   UNL     1      -0.541  13.381  19.946  0.00  0.00    +0.000 C 
ATOM      7  C   UNL     1       0.228  12.458  18.950  0.00  0.00    +0.000 C 
ATOM      8  N   UNL     1       0.568  11.325  19.815  0.00  0.00    +0.000 N 
ATOM      9  C   UNL     1       1.075  10.130  19.410  0.00  0.00    +0.000 A 
ATOM     10  C   UNL     1       1.457   9.919  18.094  0.00  0.00    +0.000 A 
ATOM     11  C   UNL     1       2.013   8.707  17.693  0.00  0.00    +0.000 A 
ATOM     12  C   UNL     1       2.207   7.703  18.626  0.00  0.00    +0.000 A 
ATOM     13  N   UNL     1       1.825   7.910  19.904  0.00  0.00    +0.000 NA
ATOM     14  N   UNL     1       1.258   9.125  20.290  0.00  0.00    +0.000 NA
ENDROOT
BRANCH  12  15
ATOM     15  C   UNL     1       2.799   6.398  18.284  0.00  0.00    +0.000 A 
ATOM     16  C   UNL     1       4.069   6.312  17.686  0.00  0.00    +0.000 A 
ATOM     17  C   UNL     1       4.679   5.084  17.388  0.00  0.00    +0.000 A 
ATOM     18  C   UNL     1       3.977   3.919  17.708  0.00  0.00    +0.000 A 
ATOM     19  N   UNL     1       4.320   2.596  17.547  0.00  0.00    +0.000 N 
ATOM     20  C   UNL     1       3.318   1.787  18.017  0.00  0.00    +0.000 A 
ATOM     21  C   UNL     1       2.305   2.596  18.479  0.00  0.00    +0.000 A 
ATOM     22  C   UNL     1       2.713   3.944  18.288  0.00  0.00    +0.000 A 
ATOM     23  C   UNL     1       2.120   5.192  18.561  0.00  0.00    +0.000 A 
ATOM     24  H   UNL     1       5.188   2.274  17.143  0.00  0.00    +0.000 HD
ENDBRANCH  12  15
TORSDOF 1
ENDMDL
MODEL 5
REMARK VINA RESULT:      -7.9      6.159      9.135
REMARK  Name = 
REMARK  2 active torsions:
REMARK  status: ('A' for Active; 'I' for Inactive)
REMARK    1  A    between atoms: C_1  and  N_2
REMARK    2  A    between atoms: C_12  and  C_13
REMARK                            x       y       z     vdW  Elec       q    Type
REMARK                         _______ _______ _______ _____ _____    ______ ____
ROOT
ATOM      1  C   UNL     1       2.885   3.546  17.207  0.00  0.00    +0.000 C 
ATOM      2  N   UNL     1       4.035   4.355  17.590  0.00  0.00    +0.000 NA
ATOM      3  C   UNL     1       3.927   5.775  17.118  0.00  0.00    +0.000 C 
ATOM      4  C   UNL     1       5.209   5.986  16.266  0.00  0.00    +0.000 C 
ATOM      5  C   UNL     1       5.313   4.610  15.604  0.00  0.00    +0.000 C 
ATOM      6  C   UNL     1       5.297   3.880  16.949  0.00  0.00    +0.000 C 
ATOM      7  C   UNL     1       6.493   4.577  17.669  0.00  0.00    +0.000 C 
ATOM      8  N   UNL     1       6.386   5.943  17.146  0.00  0.00    +0.000 N 
ATOM      9  C   UNL     1       7.066   7.031  17.597  0.00  0.00    +0.000 A 
ATOM     10  C   UNL     1       8.067   6.910  18.548  0.00  0.00    +0.000 A 
ATOM     11  C   UNL     1       8.788   8.023  18.976  0.00  0.00    +0.000 A 
ATOM     12  C   UNL     1       8.515   9.265  18.429  0.00  0.00    +0.000 A 
ATOM     13  N   UNL     1       7.533   9.378  17.510  0.00  0.00    +0.000 NA
ATOM     14  N   UNL     1       6.811   8.258  17.099  0.00  0.00    +0.000 NA
ENDROOT
BRANCH  12  15
ATOM     15  C   UNL     1       9.240  10.486  18.821  0.00  0.00    +0.000 A 
ATOM     16  C   UNL     1       9.680  10.677  20.142  0.00  0.00    +0.000 A 
ATOM     17  C   UNL     1      10.411  11.808  20.537  0.00  0.00    +0.000 A 
ATOM     18  C   UNL     1      10.700  12.764  19.560  0.00  0.00    +0.000 A 
ATOM     19  N   UNL     1      11.396  13.948  19.645  0.00  0.00    +0.000 N 
ATOM     20  C   UNL     1      11.438  14.563  18.421  0.00  0.00    +0.000 A 
ATOM     21  C   UNL     1      10.748  13.772  17.529  0.00  0.00    +0.000 A 
ATOM     22  C   UNL     1      10.279  12.634  18.240  0.00  0.00    +0.000 A 
ATOM     23  C   UNL     1       9.534  11.496  17.878  0.00  0.00    +0.000 A 
ATOM     24  H   UNL     1      11.817  14.305  20.492  0.00  0.00    +0.000 HD
ENDBRANCH  12  15
TORSDOF 1
ENDMDL
MODEL 6
REMARK VINA RESULT:      -7.8      1.616      2.482
REMARK  Name = 
REMARK  2 active torsions:
REMARK  status: ('A' for Active; 'I' for Inactive)
REMARK    1  A    between atoms: C_1  and  N_2
REMARK    2  A    between atoms: C_12  and  C_13
REMARK                            x       y       z     vdW  Elec       q    Type
REMARK                         _______ _______ _______ _____ _____    ______ ____
ROOT
ATOM      1  C   UNL     1       1.208  15.713  20.226  0.00  0.00    +0.000 C 
ATOM      2  N   UNL     1       1.272  14.259  20.176  0.00  0.00    +0.000 NA
ATOM      3  C   UNL     1       1.999  13.752  18.965  0.00  0.00    +0.000 C 
ATOM      4  C   UNL     1       0.967  12.825  18.267  0.00  0.00    +0.000 C 
ATOM      5  C   UNL     1      -0.316  13.618  18.530  0.00  0.00    +0.000 C 
ATOM      6  C   UNL     1      -0.081  13.639  20.041  0.00  0.00    +0.000 C 
ATOM      7  C   UNL     1       0.059  12.113  20.333  0.00  0.00    +0.000 C 
ATOM      8  N   UNL     1       0.725  11.648  19.113  0.00  0.00    +0.000 N 
ATOM      9  C   UNL     1       1.269  10.417  18.915  0.00  0.00    +0.000 A 
ATOM     10  C   UNL     1       1.115   9.403  19.848  0.00  0.00    +0.000 A 
ATOM     11  C   UNL     1       1.639   8.133  19.621  0.00  0.00    +0.000 A 
ATOM     12  C   UNL     1       2.308   7.872  18.437  0.00  0.00    +0.000 A 
ATOM     13  N   UNL     1       2.464   8.865  17.537  0.00  0.00    +0.000 NA
ATOM     14  N   UNL     1       1.943  10.136  17.781  0.00  0.00    +0.000 NA
ENDROOT
BRANCH  12  15
ATOM     15  C   UNL     1       2.881   6.553  18.119  0.00  0.00    +0.000 A 
ATOM     16  C   UNL     1       4.168   6.435  17.564  0.00  0.00    +0.000 A 
ATOM     17  C   UNL     1       4.759   5.191  17.290  0.00  0.00    +0.000 A 
ATOM     18  C   UNL     1       4.020   4.045  17.590  0.00  0.00    +0.000 A 
ATOM     19  N   UNL     1       4.336   2.713  17.445  0.00  0.00    +0.000 N 
ATOM     20  C   UNL     1       3.301   1.929  17.884  0.00  0.00    +0.000 A 
ATOM     21  C   UNL     1       2.292   2.764  18.309  0.00  0.00    +0.000 A 
ATOM     22  C   UNL     1       2.737   4.102  18.127  0.00  0.00    +0.000 A 
ATOM     23  C   UNL     1       2.165   5.363  18.377  0.00  0.00    +0.000 A 
ATOM     24  H   UNL     1       5.210   2.370  17.071  0.00  0.00    +0.000 HD
ENDBRANCH  12  15
TORSDOF 1
ENDMDL
MODEL 7
REMARK VINA RESULT:      -7.8      1.307      2.209
REMARK  Name = 
REMARK  2 active torsions:
REMARK  status: ('A' for Active; 'I' for Inactive)
REMARK    1  A    between atoms: C_1  and  N_2
REMARK    2  A    between atoms: C_12  and  C_13
REMARK                            x       y       z     vdW  Elec       q    Type
REMARK                         _______ _______ _______ _____ _____    ______ ____
ROOT
ATOM      1  C   UNL     1       0.811  14.969  21.746  0.00  0.00    +0.000 C 
ATOM      2  N   UNL     1       0.954  13.528  21.588  0.00  0.00    +0.000 NA
ATOM      3  C   UNL     1       1.500  13.145  20.244  0.00  0.00    +0.000 C 
ATOM      4  C   UNL     1       0.424  12.187  19.661  0.00  0.00    +0.000 C 
ATOM      5  C   UNL     1      -0.843  12.870  20.181  0.00  0.00    +0.000 C 
ATOM      6  C   UNL     1      -0.361  12.823  21.632  0.00  0.00    +0.000 C 
ATOM      7  C   UNL     1      -0.082  11.296  21.794  0.00  0.00    +0.000 C 
ATOM      8  N   UNL     1       0.399  10.950  20.453  0.00  0.00    +0.000 N 
ATOM      9  C   UNL     1       0.977   9.774  20.087  0.00  0.00    +0.000 A 
ATOM     10  C   UNL     1       1.041   8.701  20.961  0.00  0.00    +0.000 A 
ATOM     11  C   UNL     1       1.597   7.486  20.567  0.00  0.00    +0.000 A 
ATOM     12  C   UNL     1       2.075   7.341  19.275  0.00  0.00    +0.000 A 
ATOM     13  N   UNL     1       2.017   8.392  18.431  0.00  0.00    +0.000 NA
ATOM     14  N   UNL     1       1.468   9.607  18.842  0.00  0.00    +0.000 NA
ENDROOT
BRANCH  12  15
ATOM     15  C   UNL     1       2.666   6.086  18.779  0.00  0.00    +0.000 A 
ATOM     16  C   UNL     1       3.705   6.098  17.832  0.00  0.00    +0.000 A 
ATOM     17  C   UNL     1       4.318   4.922  17.372  0.00  0.00    +0.000 A 
ATOM     18  C   UNL     1       3.861   3.709  17.893  0.00  0.00    +0.000 A 
ATOM     19  N   UNL     1       4.271   2.419  17.645  0.00  0.00    +0.000 N 
ATOM     20  C   UNL     1       3.538   1.537  18.396  0.00  0.00    +0.000 A 
ATOM     21  C   UNL     1       2.632   2.263  19.134  0.00  0.00    +0.000 A 
ATOM     22  C   UNL     1       2.829   3.637  18.823  0.00  0.00    +0.000 A 
ATOM     23  C   UNL     1       2.222   4.832  19.253  0.00  0.00    +0.000 A 
ATOM     24  H   UNL     1       5.009   2.165  17.003  0.00  0.00    +0.000 HD
ENDBRANCH  12  15
TORSDOF 1
ENDMDL
MODEL 8
REMARK VINA RESULT:      -7.8      1.049      1.123
REMARK  Name = 
REMARK  2 active torsions:
REMARK  status: ('A' for Active; 'I' for Inactive)
REMARK    1  A    between atoms: C_1  and  N_2
REMARK    2  A    between atoms: C_12  and  C_13
REMARK                            x       y       z     vdW  Elec       q    Type
REMARK                         _______ _______ _______ _____ _____    ______ ____
ROOT
ATOM      1  C   UNL     1       0.182  15.224  20.757  0.00  0.00    +0.000 C 
ATOM      2  N   UNL     1       0.492  13.808  20.617  0.00  0.00    +0.000 NA
ATOM      3  C   UNL     1       1.111  13.479  19.291  0.00  0.00    +0.000 C 
ATOM      4  C   UNL     1       0.166  12.401  18.691  0.00  0.00    +0.000 C 
ATOM      5  C   UNL     1      -1.184  12.939  19.174  0.00  0.00    +0.000 C 
ATOM      6  C   UNL     1      -0.736  12.958  20.637  0.00  0.00    +0.000 C 
ATOM      7  C   UNL     1      -0.289  11.473  20.821  0.00  0.00    +0.000 C 
ATOM      8  N   UNL     1       0.262  11.174  19.496  0.00  0.00    +0.000 N 
ATOM      9  C   UNL     1       0.978  10.069  19.155  0.00  0.00    +0.000 A 
ATOM     10  C   UNL     1       1.142   9.017  20.042  0.00  0.00    +0.000 A 
ATOM     11  C   UNL     1       1.843   7.871  19.673  0.00  0.00    +0.000 A 
ATOM     12  C   UNL     1       2.366   7.772  18.395  0.00  0.00    +0.000 A 
ATOM     13  N   UNL     1       2.211   8.803  17.539  0.00  0.00    +0.000 NA
ATOM     14  N   UNL     1       1.517   9.950  17.925  0.00  0.00    +0.000 NA
ENDROOT
BRANCH  12  15
ATOM     15  C   UNL     1       3.109   6.589  17.927  0.00  0.00    +0.000 A 
ATOM     16  C   UNL     1       2.663   5.288  18.221  0.00  0.00    +0.000 A 
ATOM     17  C   UNL     1       3.323   4.142  17.753  0.00  0.00    +0.000 A 
ATOM     18  C   UNL     1       4.462   4.328  16.965  0.00  0.00    +0.000 A 
ATOM     19  N   UNL     1       5.295   3.411  16.366  0.00  0.00    +0.000 N 
ATOM     20  C   UNL     1       6.290   4.054  15.677  0.00  0.00    +0.000 A 
ATOM     21  C   UNL     1       6.108   5.408  15.840  0.00  0.00    +0.000 A 
ATOM     22  C   UNL     1       4.956   5.591  16.653  0.00  0.00    +0.000 A 
ATOM     23  C   UNL     1       4.281   6.722  17.150  0.00  0.00    +0.000 A 
ATOM     24  H   UNL     1       5.181   2.409  16.426  0.00  0.00    +0.000 HD
ENDBRANCH  12  15
TORSDOF 1
ENDMDL
MODEL 9
REMARK VINA RESULT:      -7.8      2.313      8.406
REMARK  Name = 
REMARK  2 active torsions:
REMARK  status: ('A' for Active; 'I' for Inactive)
REMARK    1  A    between atoms: C_1  and  N_2
REMARK    2  A    between atoms: C_12  and  C_13
REMARK                            x       y       z     vdW  Elec       q    Type
REMARK                         _______ _______ _______ _____ _____    ______ ____
ROOT
ATOM      1  C   UNL     1       3.469   1.610  18.163  0.00  0.00    +0.000 C 
ATOM      2  N   UNL     1       3.034   2.934  18.587  0.00  0.00    +0.000 NA
ATOM      3  C   UNL     1       3.026   3.929  17.464  0.00  0.00    +0.000 C 
ATOM      4  C   UNL     1       3.956   5.069  17.965  0.00  0.00    +0.000 C 
ATOM      5  C   UNL     1       5.016   4.241  18.696  0.00  0.00    +0.000 C 
ATOM      6  C   UNL     1       3.973   3.547  19.574  0.00  0.00    +0.000 C 
ATOM      7  C   UNL     1       3.263   4.783  20.210  0.00  0.00    +0.000 C 
ATOM      8  N   UNL     1       3.320   5.745  19.105  0.00  0.00    +0.000 N 
ATOM      9  C   UNL     1       2.665   6.935  19.043  0.00  0.00    +0.000 A 
ATOM     10  C   UNL     1       1.959   7.426  20.131  0.00  0.00    +0.000 A 
ATOM     11  C   UNL     1       1.324   8.664  20.075  0.00  0.00    +0.000 A 
ATOM     12  C   UNL     1       1.416   9.427  18.923  0.00  0.00    +0.000 A 
ATOM     13  N   UNL     1       2.097   8.941  17.864  0.00  0.00    +0.000 NA
ATOM     14  N   UNL     1       2.718   7.694  17.929  0.00  0.00    +0.000 NA
ENDROOT
BRANCH  12  15
ATOM     15  C   UNL     1       0.783  10.751  18.791  0.00  0.00    +0.000 A 
ATOM     16  C   UNL     1      -0.597  10.875  18.548  0.00  0.00    +0.000 A 
ATOM     17  C   UNL     1      -1.237  12.121  18.460  0.00  0.00    +0.000 A 
ATOM     18  C   UNL     1      -0.451  13.264  18.625  0.00  0.00    +0.000 A 
ATOM     19  N   UNL     1      -0.795  14.596  18.603  0.00  0.00    +0.000 N 
ATOM     20  C   UNL     1       0.312  15.375  18.822  0.00  0.00    +0.000 A 
ATOM     21  C   UNL     1       1.393  14.537  18.977  0.00  0.00    +0.000 A 
ATOM     22  C   UNL     1       0.920  13.201  18.854  0.00  0.00    +0.000 A 
ATOM     23  C   UNL     1       1.537  11.938  18.922  0.00  0.00    +0.000 A 
ATOM     24  H   UNL     1      -1.731  14.944  18.450  0.00  0.00    +0.000 HD
ENDBRANCH  12  15
TORSDOF 1
ENDMDL
