MODEL 1
REMARK VINA RESULT:      -7.2      0.000      0.000
REMARK  Name = 
REMARK  6 active torsions:
REMARK  status: ('A' for Active; 'I' for Inactive)
REMARK    1  A    between atoms: C_1  and  C_2
REMARK    2  A    between atoms: C_2  and  S_3
REMARK    3  A    between atoms: S_3  and  C_4
REMARK    4  A    between atoms: C_9  and  C_11
REMARK    5  A    between atoms: C_11  and  O_12
REMARK    6  A    between atoms: O_12  and  C_13
REMARK                            x       y       z     vdW  Elec       q    Type
REMARK                         _______ _______ _______ _____ _____    ______ ____
ROOT
ATOM      1  C   UNL     1      -1.087  11.514  21.958  0.00  0.00    +0.000 A 
ATOM      2  N   UNL     1      -0.260  10.935  22.802  0.00  0.00    +0.000 NA
ATOM      3  N   UNL     1       0.702  10.187  22.147  0.00  0.00    +0.000 NA
ATOM      4  C   UNL     1       0.543  10.209  20.842  0.00  0.00    +0.000 A 
ATOM      5  N   UNL     1       1.401   9.563  19.987  0.00  0.00    +0.000 N 
ATOM      6  C   UNL     1       1.235   9.405  18.625  0.00  0.00    +0.000 C 
ATOM      7  O   UNL     1       0.283   9.796  17.958  0.00  0.00    +0.000 OA
ATOM      8  S   UNL     1      -0.774  11.159  20.314  0.00  0.00    +0.000 S 
ATOM      9  H   UNL     1       2.163   9.087  20.453  0.00  0.00    +0.000 HD
ENDROOT
BRANCH   1  10
ATOM     10  S   UNL     1      -2.383  12.571  22.469  0.00  0.00    +0.000 S 
BRANCH  10  12
ATOM     11  C   UNL     1      -4.318  12.950  20.566  0.00  0.00    +0.000 C 
ATOM     12  C   UNL     1      -2.868  13.285  20.870  0.00  0.00    +0.000 C 
ENDBRANCH  10  12
ENDBRANCH   1  10
BRANCH   6  13
ATOM     13  C   UNL     1       2.390   8.663  17.964  0.00  0.00    +0.000 C 
BRANCH  13  14
ATOM     14  O   UNL     1       2.582   7.427  18.639  0.00  0.00    +0.000 OA
BRANCH  14  15
ATOM     15  C   UNL     1       3.247   6.427  17.966  0.00  0.00    +0.000 A 
ATOM     16  C   UNL     1       4.356   6.643  17.140  0.00  0.00    +0.000 A 
ATOM     17  C   UNL     1       4.993   5.569  16.517  0.00  0.00    +0.000 A 
ATOM     18  C   UNL     1       4.528   4.272  16.713  0.00  0.00    +0.000 A 
ATOM     19  C   UNL     1       3.415   4.025  17.526  0.00  0.00    +0.000 A 
ATOM     20  C   UNL     1       2.952   2.712  17.716  0.00  0.00    +0.000 A 
ATOM     21  C   UNL     1       1.846   2.453  18.523  0.00  0.00    +0.000 A 
ATOM     22  C   UNL     1       1.182   3.504  19.142  0.00  0.00    +0.000 A 
ATOM     23  C   UNL     1       1.630   4.815  18.961  0.00  0.00    +0.000 A 
ATOM     24  C   UNL     1       2.755   5.108  18.158  0.00  0.00    +0.000 A 
ENDBRANCH  14  15
ENDBRANCH  13  14
ENDBRANCH   6  13
TORSDOF 5
ENDMDL
MODEL 2
REMARK VINA RESULT:      -7.2      1.031      1.213
REMARK  Name = 
REMARK  6 active torsions:
REMARK  status: ('A' for Active; 'I' for Inactive)
REMARK    1  A    between atoms: C_1  and  C_2
REMARK    2  A    between atoms: C_2  and  S_3
REMARK    3  A    between atoms: S_3  and  C_4
REMARK    4  A    between atoms: C_9  and  C_11
REMARK    5  A    between atoms: C_11  and  O_12
REMARK    6  A    between atoms: O_12  and  C_13
REMARK                            x       y       z     vdW  Elec       q    Type
REMARK                         _______ _______ _______ _____ _____    ______ ____
ROOT
ATOM      1  C   UNL     1      -0.653  10.832  22.229  0.00  0.00    +0.000 A 
ATOM      2  N   UNL     1      -0.379   9.715  22.867  0.00  0.00    +0.000 NA
ATOM      3  N   UNL     1       0.387   8.858  22.097  0.00  0.00    +0.000 NA
ATOM      4  C   UNL     1       0.633   9.350  20.903  0.00  0.00    +0.000 A 
ATOM      5  N   UNL     1       1.400   8.687  19.979  0.00  0.00    +0.000 N 
ATOM      6  C   UNL     1       1.590   9.049  18.659  0.00  0.00    +0.000 C 
ATOM      7  O   UNL     1       1.086  10.011  18.090  0.00  0.00    +0.000 OA
ATOM      8  S   UNL     1      -0.030  10.901  20.637  0.00  0.00    +0.000 S 
ATOM      9  H   UNL     1       1.765   7.802  20.307  0.00  0.00    +0.000 HD
ENDROOT
BRANCH   1  10
ATOM     10  S   UNL     1      -1.557  12.143  22.951  0.00  0.00    +0.000 S 
BRANCH  10  12
ATOM     11  C   UNL     1      -2.523  14.437  21.804  0.00  0.00    +0.000 C 
ATOM     12  C   UNL     1      -2.107  13.018  21.456  0.00  0.00    +0.000 C 
ENDBRANCH  10  12
ENDBRANCH   1  10
BRANCH   6  13
ATOM     13  C   UNL     1       2.530   8.113  17.911  0.00  0.00    +0.000 C 
BRANCH  13  14
ATOM     14  O   UNL     1       2.998   7.121  18.815  0.00  0.00    +0.000 OA
BRANCH  14  15
ATOM     15  C   UNL     1       3.272   5.870  18.308  0.00  0.00    +0.000 A 
ATOM     16  C   UNL     1       4.148   5.633  17.244  0.00  0.00    +0.000 A 
ATOM     17  C   UNL     1       4.394   4.329  16.809  0.00  0.00    +0.000 A 
ATOM     18  C   UNL     1       3.767   3.255  17.433  0.00  0.00    +0.000 A 
ATOM     19  C   UNL     1       2.879   3.462  18.495  0.00  0.00    +0.000 A 
ATOM     20  C   UNL     1       2.250   2.371  19.117  0.00  0.00    +0.000 A 
ATOM     21  C   UNL     1       1.363   2.563  20.175  0.00  0.00    +0.000 A 
ATOM     22  C   UNL     1       1.086   3.850  20.617  0.00  0.00    +0.000 A 
ATOM     23  C   UNL     1       1.703   4.945  20.008  0.00  0.00    +0.000 A 
ATOM     24  C   UNL     1       2.614   4.780  18.940  0.00  0.00    +0.000 A 
ENDBRANCH  14  15
ENDBRANCH  13  14
ENDBRANCH   6  13
TORSDOF 5
ENDMDL
MODEL 3
REMARK VINA RESULT:      -7.1      1.126      2.550
REMARK  Name = 
REMARK  6 active torsions:
REMARK  status: ('A' for Active; 'I' for Inactive)
REMARK    1  A    between atoms: C_1  and  C_2
REMARK    2  A    between atoms: C_2  and  S_3
REMARK    3  A    between atoms: S_3  and  C_4
REMARK    4  A    between atoms: C_9  and  C_11
REMARK    5  A    between atoms: C_11  and  O_12
REMARK    6  A    between atoms: O_12  and  C_13
REMARK                            x       y       z     vdW  Elec       q    Type
REMARK                         _______ _______ _______ _____ _____    ______ ____
ROOT
ATOM      1  C   UNL     1      -0.451  11.555  22.217  0.00  0.00    +0.000 A 
ATOM      2  N   UNL     1      -0.045  10.526  22.929  0.00  0.00    +0.000 NA
ATOM      3  N   UNL     1       0.606   9.586  22.150  0.00  0.00    +0.000 NA
ATOM      4  C   UNL     1       0.636   9.930  20.881  0.00  0.00    +0.000 A 
ATOM      5  N   UNL     1       1.258   9.164  19.928  0.00  0.00    +0.000 N 
ATOM      6  C   UNL     1       1.216   9.362  18.561  0.00  0.00    +0.000 C 
ATOM      7  O   UNL     1       0.598  10.244  17.973  0.00  0.00    +0.000 OA
ATOM      8  S   UNL     1      -0.103  11.432  20.546  0.00  0.00    +0.000 S 
ATOM      9  H   UNL     1       1.696   8.328  20.294  0.00  0.00    +0.000 HD
ENDROOT
BRANCH   1  10
ATOM     10  S   UNL     1      -1.259  12.938  22.917  0.00  0.00    +0.000 S 
BRANCH  10  12
ATOM     11  C   UNL     1      -3.719  12.395  23.994  0.00  0.00    +0.000 C 
ATOM     12  C   UNL     1      -2.994  12.464  22.661  0.00  0.00    +0.000 C 
ENDBRANCH  10  12
ENDBRANCH   1  10
BRANCH   6  13
ATOM     13  C   UNL     1       2.044   8.347  17.783  0.00  0.00    +0.000 C 
BRANCH  13  14
ATOM     14  O   UNL     1       2.566   7.391  18.697  0.00  0.00    +0.000 OA
BRANCH  14  15
ATOM     15  C   UNL     1       2.701   6.093  18.258  0.00  0.00    +0.000 A 
ATOM     16  C   UNL     1       1.728   5.103  18.431  0.00  0.00    +0.000 A 
ATOM     17  C   UNL     1       1.932   3.817  17.928  0.00  0.00    +0.000 A 
ATOM     18  C   UNL     1       3.107   3.510  17.250  0.00  0.00    +0.000 A 
ATOM     19  C   UNL     1       4.103   4.477  17.069  0.00  0.00    +0.000 A 
ATOM     20  C   UNL     1       5.287   4.158  16.384  0.00  0.00    +0.000 A 
ATOM     21  C   UNL     1       6.287   5.111  16.197  0.00  0.00    +0.000 A 
ATOM     22  C   UNL     1       6.119   6.394  16.701  0.00  0.00    +0.000 A 
ATOM     23  C   UNL     1       4.947   6.726  17.385  0.00  0.00    +0.000 A 
ATOM     24  C   UNL     1       3.912   5.784  17.581  0.00  0.00    +0.000 A 
ENDBRANCH  14  15
ENDBRANCH  13  14
ENDBRANCH   6  13
TORSDOF 5
ENDMDL
MODEL 4
REMARK VINA RESULT:      -7.1      8.094     11.092
REMARK  Name = 
REMARK  6 active torsions:
REMARK  status: ('A' for Active; 'I' for Inactive)
REMARK    1  A    between atoms: C_1  and  C_2
REMARK    2  A    between atoms: C_2  and  S_3
REMARK    3  A    between atoms: S_3  and  C_4
REMARK    4  A    between atoms: C_9  and  C_11
REMARK    5  A    between atoms: C_11  and  O_12
REMARK    6  A    between atoms: O_12  and  C_13
REMARK                            x       y       z     vdW  Elec       q    Type
REMARK                         _______ _______ _______ _____ _____    ______ ____
ROOT
ATOM      1  C   UNL     1       6.382   4.962  17.461  0.00  0.00    +0.000 A 
ATOM      2  N   UNL     1       7.170   4.400  18.352  0.00  0.00    +0.000 NA
ATOM      3  N   UNL     1       7.991   5.328  18.969  0.00  0.00    +0.000 NA
ATOM      4  C   UNL     1       7.809   6.542  18.498  0.00  0.00    +0.000 A 
ATOM      5  N   UNL     1       8.493   7.628  18.984  0.00  0.00    +0.000 N 
ATOM      6  C   UNL     1       8.481   8.906  18.459  0.00  0.00    +0.000 C 
ATOM      7  O   UNL     1       7.875   9.275  17.459  0.00  0.00    +0.000 OA
ATOM      8  S   UNL     1       6.611   6.649  17.286  0.00  0.00    +0.000 S 
ATOM      9  H   UNL     1       9.131   7.407  19.738  0.00  0.00    +0.000 HD
ENDROOT
BRANCH   1  10
ATOM     10  S   UNL     1       5.189   4.068  16.548  0.00  0.00    +0.000 S 
BRANCH  10  12
ATOM     11  C   UNL     1       6.375   3.992  14.079  0.00  0.00    +0.000 C 
ATOM     12  C   UNL     1       5.407   4.819  14.907  0.00  0.00    +0.000 C 
ENDBRANCH  10  12
ENDBRANCH   1  10
BRANCH   6  13
ATOM     13  C   UNL     1       9.327   9.889  19.259  0.00  0.00    +0.000 C 
BRANCH  13  14
ATOM     14  O   UNL     1       9.000  11.209  18.844  0.00  0.00    +0.000 OA
BRANCH  14  15
ATOM     15  C   UNL     1      10.039  12.087  18.628  0.00  0.00    +0.000 A 
ATOM     16  C   UNL     1      10.909  12.016  17.535  0.00  0.00    +0.000 A 
ATOM     17  C   UNL     1      11.920  12.965  17.375  0.00  0.00    +0.000 A 
ATOM     18  C   UNL     1      12.069  13.991  18.303  0.00  0.00    +0.000 A 
ATOM     19  C   UNL     1      11.219  14.083  19.411  0.00  0.00    +0.000 A 
ATOM     20  C   UNL     1      11.378  15.122  20.344  0.00  0.00    +0.000 A 
ATOM     21  C   UNL     1      10.539  15.225  21.452  0.00  0.00    +0.000 A 
ATOM     22  C   UNL     1       9.535  14.285  21.647  0.00  0.00    +0.000 A 
ATOM     23  C   UNL     1       9.365  13.246  20.728  0.00  0.00    +0.000 A 
ATOM     24  C   UNL     1      10.194  13.122  19.590  0.00  0.00    +0.000 A 
ENDBRANCH  14  15
ENDBRANCH  13  14
ENDBRANCH   6  13
TORSDOF 5
ENDMDL
MODEL 5
REMARK VINA RESULT:      -7.0      1.653      1.943
REMARK  Name = 
REMARK  6 active torsions:
REMARK  status: ('A' for Active; 'I' for Inactive)
REMARK    1  A    between atoms: C_1  and  C_2
REMARK    2  A    between atoms: C_2  and  S_3
REMARK    3  A    between atoms: S_3  and  C_4
REMARK    4  A    between atoms: C_9  and  C_11
REMARK    5  A    between atoms: C_11  and  O_12
REMARK    6  A    between atoms: O_12  and  C_13
REMARK                            x       y       z     vdW  Elec       q    Type
REMARK                         _______ _______ _______ _____ _____    ______ ____
ROOT
ATOM      1  C   UNL     1      -0.520  10.834  21.096  0.00  0.00    +0.000 A 
ATOM      2  N   UNL     1      -0.395   9.782  21.876  0.00  0.00    +0.000 NA
ATOM      3  N   UNL     1       0.463   8.840  21.335  0.00  0.00    +0.000 NA
ATOM      4  C   UNL     1       0.925   9.207  20.161  0.00  0.00    +0.000 A 
ATOM      5  N   UNL     1       1.818   8.444  19.452  0.00  0.00    +0.000 N 
ATOM      6  C   UNL     1       2.243   8.669  18.157  0.00  0.00    +0.000 C 
ATOM      7  O   UNL     1       1.875   9.577  17.419  0.00  0.00    +0.000 OA
ATOM      8  S   UNL     1       0.369  10.734  19.637  0.00  0.00    +0.000 S 
ATOM      9  H   UNL     1       2.091   7.590  19.922  0.00  0.00    +0.000 HD
ENDROOT
BRANCH   1  10
ATOM     10  S   UNL     1      -1.491  12.224  21.520  0.00  0.00    +0.000 S 
BRANCH  10  12
ATOM     11  C   UNL     1      -3.343  12.336  23.537  0.00  0.00    +0.000 C 
ATOM     12  C   UNL     1      -1.966  11.781  23.218  0.00  0.00    +0.000 C 
ENDBRANCH  10  12
ENDBRANCH   1  10
BRANCH   6  13
ATOM     13  C   UNL     1       3.266   7.648  17.676  0.00  0.00    +0.000 C 
BRANCH  13  14
ATOM     14  O   UNL     1       2.668   6.358  17.705  0.00  0.00    +0.000 OA
BRANCH  14  15
ATOM     15  C   UNL     1       3.417   5.317  18.207  0.00  0.00    +0.000 A 
ATOM     16  C   UNL     1       4.722   5.024  17.797  0.00  0.00    +0.000 A 
ATOM     17  C   UNL     1       5.424   3.966  18.379  0.00  0.00    +0.000 A 
ATOM     18  C   UNL     1       4.828   3.195  19.372  0.00  0.00    +0.000 A 
ATOM     19  C   UNL     1       3.520   3.459  19.797  0.00  0.00    +0.000 A 
ATOM     20  C   UNL     1       2.927   2.674  20.799  0.00  0.00    +0.000 A 
ATOM     21  C   UNL     1       1.626   2.926  21.230  0.00  0.00    +0.000 A 
ATOM     22  C   UNL     1       0.897   3.960  20.658  0.00  0.00    +0.000 A 
ATOM     23  C   UNL     1       1.474   4.749  19.659  0.00  0.00    +0.000 A 
ATOM     24  C   UNL     1       2.794   4.524  19.209  0.00  0.00    +0.000 A 
ENDBRANCH  14  15
ENDBRANCH  13  14
ENDBRANCH   6  13
TORSDOF 5
ENDMDL
MODEL 6
REMARK VINA RESULT:      -6.9      1.886      2.163
REMARK  Name = 
REMARK  6 active torsions:
REMARK  status: ('A' for Active; 'I' for Inactive)
REMARK    1  A    between atoms: C_1  and  C_2
REMARK    2  A    between atoms: C_2  and  S_3
REMARK    3  A    between atoms: S_3  and  C_4
REMARK    4  A    between atoms: C_9  and  C_11
REMARK    5  A    between atoms: C_11  and  O_12
REMARK    6  A    between atoms: O_12  and  C_13
REMARK                            x       y       z     vdW  Elec       q    Type
REMARK                         _______ _______ _______ _____ _____    ______ ____
ROOT
ATOM      1  C   UNL     1      -1.930  12.038  19.802  0.00  0.00    +0.000 A 
ATOM      2  N   UNL     1      -2.009  12.256  18.507  0.00  0.00    +0.000 NA
ATOM      3  N   UNL     1      -1.138  11.449  17.796  0.00  0.00    +0.000 NA
ATOM      4  C   UNL     1      -0.419  10.680  18.584  0.00  0.00    +0.000 A 
ATOM      5  N   UNL     1       0.489   9.774  18.097  0.00  0.00    +0.000 N 
ATOM      6  C   UNL     1       1.389   9.035  18.839  0.00  0.00    +0.000 C 
ATOM      7  O   UNL     1       1.540   9.083  20.056  0.00  0.00    +0.000 OA
ATOM      8  S   UNL     1      -0.766  10.865  20.245  0.00  0.00    +0.000 S 
ATOM      9  H   UNL     1       0.540   9.748  17.086  0.00  0.00    +0.000 HD
ENDROOT
BRANCH   1  10
ATOM     10  S   UNL     1      -2.940  12.859  20.969  0.00  0.00    +0.000 S 
BRANCH  10  12
ATOM     11  C   UNL     1      -1.433  13.373  23.200  0.00  0.00    +0.000 C 
ATOM     12  C   UNL     1      -2.202  12.256  22.516  0.00  0.00    +0.000 C 
ENDBRANCH  10  12
ENDBRANCH   1  10
BRANCH   6  13
ATOM     13  C   UNL     1       2.236   8.095  17.991  0.00  0.00    +0.000 C 
BRANCH  13  14
ATOM     14  O   UNL     1       2.879   7.164  18.852  0.00  0.00    +0.000 OA
BRANCH  14  15
ATOM     15  C   UNL     1       3.222   5.938  18.326  0.00  0.00    +0.000 A 
ATOM     16  C   UNL     1       4.131   5.764  17.276  0.00  0.00    +0.000 A 
ATOM     17  C   UNL     1       4.446   4.483  16.821  0.00  0.00    +0.000 A 
ATOM     18  C   UNL     1       3.858   3.367  17.409  0.00  0.00    +0.000 A 
ATOM     19  C   UNL     1       2.938   3.511  18.455  0.00  0.00    +0.000 A 
ATOM     20  C   UNL     1       2.347   2.379  19.041  0.00  0.00    +0.000 A 
ATOM     21  C   UNL     1       1.430   2.507  20.083  0.00  0.00    +0.000 A 
ATOM     22  C   UNL     1       1.084   3.770  20.545  0.00  0.00    +0.000 A 
ATOM     23  C   UNL     1       1.662   4.905  19.971  0.00  0.00    +0.000 A 
ATOM     24  C   UNL     1       2.603   4.806  18.921  0.00  0.00    +0.000 A 
ENDBRANCH  14  15
ENDBRANCH  13  14
ENDBRANCH   6  13
TORSDOF 5
ENDMDL
MODEL 7
REMARK VINA RESULT:      -6.9      3.838      8.457
REMARK  Name = 
REMARK  6 active torsions:
REMARK  status: ('A' for Active; 'I' for Inactive)
REMARK    1  A    between atoms: C_1  and  C_2
REMARK    2  A    between atoms: C_2  and  S_3
REMARK    3  A    between atoms: S_3  and  C_4
REMARK    4  A    between atoms: C_9  and  C_11
REMARK    5  A    between atoms: C_11  and  O_12
REMARK    6  A    between atoms: O_12  and  C_13
REMARK                            x       y       z     vdW  Elec       q    Type
REMARK                         _______ _______ _______ _____ _____    ______ ____
ROOT
ATOM      1  C   UNL     1       3.997   4.342  18.769  0.00  0.00    +0.000 A 
ATOM      2  N   UNL     1       4.367   4.636  17.541  0.00  0.00    +0.000 NA
ATOM      3  N   UNL     1       3.969   5.910  17.177  0.00  0.00    +0.000 NA
ATOM      4  C   UNL     1       3.292   6.510  18.131  0.00  0.00    +0.000 A 
ATOM      5  N   UNL     1       2.824   7.794  18.003  0.00  0.00    +0.000 N 
ATOM      6  C   UNL     1       1.983   8.451  18.880  0.00  0.00    +0.000 C 
ATOM      7  O   UNL     1       1.498   7.987  19.907  0.00  0.00    +0.000 OA
ATOM      8  S   UNL     1       3.108   5.578  19.549  0.00  0.00    +0.000 S 
ATOM      9  H   UNL     1       3.060   8.231  17.121  0.00  0.00    +0.000 HD
ENDROOT
BRANCH   1  10
ATOM     10  S   UNL     1       4.395   2.827  19.545  0.00  0.00    +0.000 S 
BRANCH  10  12
ATOM     11  C   UNL     1       1.839   1.979  19.034  0.00  0.00    +0.000 C 
ATOM     12  C   UNL     1       3.283   1.702  18.650  0.00  0.00    +0.000 C 
ENDBRANCH  10  12
ENDBRANCH   1  10
BRANCH   6  13
ATOM     13  C   UNL     1       1.679   9.883  18.459  0.00  0.00    +0.000 C 
BRANCH  13  14
ATOM     14  O   UNL     1       0.391   9.916  17.858  0.00  0.00    +0.000 OA
BRANCH  14  15
ATOM     15  C   UNL     1      -0.587  10.658  18.482  0.00  0.00    +0.000 A 
ATOM     16  C   UNL     1      -0.406  11.326  19.698  0.00  0.00    +0.000 A 
ATOM     17  C   UNL     1      -1.442  12.082  20.249  0.00  0.00    +0.000 A 
ATOM     18  C   UNL     1      -2.664  12.178  19.590  0.00  0.00    +0.000 A 
ATOM     19  C   UNL     1      -2.877  11.514  18.376  0.00  0.00    +0.000 A 
ATOM     20  C   UNL     1      -4.115  11.615  17.720  0.00  0.00    +0.000 A 
ATOM     21  C   UNL     1      -4.341  10.959  16.511  0.00  0.00    +0.000 A 
ATOM     22  C   UNL     1      -3.335  10.185  15.948  0.00  0.00    +0.000 A 
ATOM     23  C   UNL     1      -2.099  10.074  16.590  0.00  0.00    +0.000 A 
ATOM     24  C   UNL     1      -1.837  10.736  17.811  0.00  0.00    +0.000 A 
ENDBRANCH  14  15
ENDBRANCH  13  14
ENDBRANCH   6  13
TORSDOF 5
ENDMDL
MODEL 8
REMARK VINA RESULT:      -6.9      1.354      2.713
REMARK  Name = 
REMARK  6 active torsions:
REMARK  status: ('A' for Active; 'I' for Inactive)
REMARK    1  A    between atoms: C_1  and  C_2
REMARK    2  A    between atoms: C_2  and  S_3
REMARK    3  A    between atoms: S_3  and  C_4
REMARK    4  A    between atoms: C_9  and  C_11
REMARK    5  A    between atoms: C_11  and  O_12
REMARK    6  A    between atoms: O_12  and  C_13
REMARK                            x       y       z     vdW  Elec       q    Type
REMARK                         _______ _______ _______ _____ _____    ______ ____
ROOT
ATOM      1  C   UNL     1      -0.822  12.568  22.059  0.00  0.00    +0.000 A 
ATOM      2  N   UNL     1      -0.908  11.937  23.210  0.00  0.00    +0.000 NA
ATOM      3  N   UNL     1      -0.339  10.677  23.148  0.00  0.00    +0.000 NA
ATOM      4  C   UNL     1       0.125  10.400  21.950  0.00  0.00    +0.000 A 
ATOM      5  N   UNL     1       0.759   9.218  21.663  0.00  0.00    +0.000 N 
ATOM      6  C   UNL     1       1.145   8.777  20.412  0.00  0.00    +0.000 C 
ATOM      7  O   UNL     1       0.962   9.359  19.348  0.00  0.00    +0.000 OA
ATOM      8  S   UNL     1      -0.077  11.660  20.815  0.00  0.00    +0.000 S 
ATOM      9  H   UNL     1       0.847   8.596  22.457  0.00  0.00    +0.000 HD
ENDROOT
BRANCH   1  10
ATOM     10  S   UNL     1      -1.398  14.202  21.824  0.00  0.00    +0.000 S 
BRANCH  10  12
ATOM     11  C   UNL     1      -3.436  14.582  23.617  0.00  0.00    +0.000 C 
ATOM     12  C   UNL     1      -3.153  13.989  22.247  0.00  0.00    +0.000 C 
ENDBRANCH  10  12
ENDBRANCH   1  10
BRANCH   6  13
ATOM     13  C   UNL     1       1.858   7.431  20.445  0.00  0.00    +0.000 C 
BRANCH  13  14
ATOM     14  O   UNL     1       2.499   7.226  19.192  0.00  0.00    +0.000 OA
BRANCH  14  15
ATOM     15  C   UNL     1       2.659   5.929  18.759  0.00  0.00    +0.000 A 
ATOM     16  C   UNL     1       1.933   4.843  19.260  0.00  0.00    +0.000 A 
ATOM     17  C   UNL     1       2.135   3.561  18.745  0.00  0.00    +0.000 A 
ATOM     18  C   UNL     1       3.062   3.355  17.727  0.00  0.00    +0.000 A 
ATOM     19  C   UNL     1       3.810   4.421  17.213  0.00  0.00    +0.000 A 
ATOM     20  C   UNL     1       4.745   4.203  16.188  0.00  0.00    +0.000 A 
ATOM     21  C   UNL     1       5.496   5.255  15.667  0.00  0.00    +0.000 A 
ATOM     22  C   UNL     1       5.328   6.538  16.172  0.00  0.00    +0.000 A 
ATOM     23  C   UNL     1       4.403   6.770  17.192  0.00  0.00    +0.000 A 
ATOM     24  C   UNL     1       3.620   5.725  17.733  0.00  0.00    +0.000 A 
ENDBRANCH  14  15
ENDBRANCH  13  14
ENDBRANCH   6  13
TORSDOF 5
ENDMDL
MODEL 9
REMARK VINA RESULT:      -6.9      2.637      4.119
REMARK  Name = 
REMARK  6 active torsions:
REMARK  status: ('A' for Active; 'I' for Inactive)
REMARK    1  A    between atoms: C_1  and  C_2
REMARK    2  A    between atoms: C_2  and  S_3
REMARK    3  A    between atoms: S_3  and  C_4
REMARK    4  A    between atoms: C_9  and  C_11
REMARK    5  A    between atoms: C_11  and  O_12
REMARK    6  A    between atoms: O_12  and  C_13
REMARK                            x       y       z     vdW  Elec       q    Type
REMARK                         _______ _______ _______ _____ _____    ______ ____
ROOT
ATOM      1  C   UNL     1       0.981  10.162  19.709  0.00  0.00    +0.000 A 
ATOM      2  N   UNL     1       0.926   9.930  21.003  0.00  0.00    +0.000 NA
ATOM      3  N   UNL     1       1.380   8.661  21.317  0.00  0.00    +0.000 NA
ATOM      4  C   UNL     1       1.730   7.981  20.248  0.00  0.00    +0.000 A 
ATOM      5  N   UNL     1       2.240   6.709  20.321  0.00  0.00    +0.000 N 
ATOM      6  C   UNL     1       2.494   5.865  19.257  0.00  0.00    +0.000 C 
ATOM      7  O   UNL     1       2.284   6.105  18.073  0.00  0.00    +0.000 OA
ATOM      8  S   UNL     1       1.553   8.841  18.783  0.00  0.00    +0.000 S 
ATOM      9  H   UNL     1       2.332   6.357  21.266  0.00  0.00    +0.000 HD
ENDROOT
BRANCH   1  10
ATOM     10  S   UNL     1       0.530  11.693  18.996  0.00  0.00    +0.000 S 
BRANCH  10  12
ATOM     11  C   UNL     1       1.666  14.133  19.509  0.00  0.00    +0.000 C 
ATOM     12  C   UNL     1       1.267  12.839  20.198  0.00  0.00    +0.000 C 
ENDBRANCH  10  12
ENDBRANCH   1  10
BRANCH   6  13
ATOM     13  C   UNL     1       3.091   4.529  19.682  0.00  0.00    +0.000 C 
BRANCH  13  14
ATOM     14  O   UNL     1       3.883   4.026  18.614  0.00  0.00    +0.000 OA
BRANCH  14  15
ATOM     15  C   UNL     1       5.127   4.585  18.421  0.00  0.00    +0.000 A 
ATOM     16  C   UNL     1       5.918   5.105  19.451  0.00  0.00    +0.000 A 
ATOM     17  C   UNL     1       7.182   5.628  19.174  0.00  0.00    +0.000 A 
ATOM     18  C   UNL     1       7.665   5.635  17.869  0.00  0.00    +0.000 A 
ATOM     19  C   UNL     1       6.892   5.130  16.817  0.00  0.00    +0.000 A 
ATOM     20  C   UNL     1       7.388   5.143  15.502  0.00  0.00    +0.000 A 
ATOM     21  C   UNL     1       6.629   4.643  14.445  0.00  0.00    +0.000 A 
ATOM     22  C   UNL     1       5.360   4.133  14.688  0.00  0.00    +0.000 A 
ATOM     23  C   UNL     1       4.854   4.114  15.990  0.00  0.00    +0.000 A 
ATOM     24  C   UNL     1       5.604   4.604  17.083  0.00  0.00    +0.000 A 
ENDBRANCH  14  15
ENDBRANCH  13  14
ENDBRANCH   6  13
TORSDOF 5
ENDMDL
