MODEL 1
REMARK VINA RESULT:      -7.8      0.000      0.000
REMARK  Name = 
REMARK  16 active torsions:
REMARK  status: ('A' for Active; 'I' for Inactive)
REMARK    1  A    between atoms: C_1  and  C_2
REMARK    2  A    between atoms: C_2  and  C_3
REMARK    3  A    between atoms: C_8  and  C_9
REMARK    4  A    between atoms: C_9  and  C_10
REMARK    5  A    between atoms: N_13  and  C_14
REMARK    6  A    between atoms: C_14  and  C_15
REMARK    7  A    between atoms: C_15  and  C_16
REMARK    8  A    between atoms: C_16  and  C_17
REMARK    9  A    between atoms: N_18  and  O_19
REMARK   10  A    between atoms: O_19  and  C_20
REMARK   11  A    between atoms: C_20  and  C_21
REMARK   12  A    between atoms: C_21  and  O_22
REMARK   13  A    between atoms: C_21  and  C_23
REMARK   14  A    between atoms: C_27  and  C_28
REMARK   15  A    between atoms: C_27  and  C_29
REMARK   16  A    between atoms: C_32  and  O_33
REMARK                            x       y       z     vdW  Elec       q    Type
REMARK                         _______ _______ _______ _____ _____    ______ ____
ROOT
ATOM      1  C   UNL     1       1.492   4.434  20.015  0.00  0.00    +0.000 C 
ATOM      2  C   UNL     1       1.093   3.132  20.687  0.00  0.00    +0.000 C 
ATOM      3  N   UNL     1       1.924   4.498  18.802  0.00  0.00    +0.000 NA
ENDROOT
BRANCH   1   4
ATOM      4  C   UNL     1       1.438   5.696  20.850  0.00  0.00    +0.000 C 
BRANCH   4   5
ATOM      5  C   UNL     1       2.232   6.849  20.221  0.00  0.00    +0.000 C 
BRANCH   5  14
ATOM      6  C   UNL     1      -0.653  12.055  21.857  0.00  0.00    +0.000 A 
ATOM      7  C   UNL     1       0.012  10.837  22.058  0.00  0.00    +0.000 A 
ATOM      8  C   UNL     1       0.553  10.143  20.983  0.00  0.00    +0.000 A 
ATOM      9  C   UNL     1       0.440  10.721  19.725  0.00  0.00    +0.000 A 
ATOM     10  N   UNL     1      -0.146  11.921  19.504  0.00  0.00    +0.000 NA
ATOM     11  C   UNL     1      -0.692  12.582  20.552  0.00  0.00    +0.000 A 
ATOM     12  C   UNL     1       0.880   9.961  18.513  0.00  0.00    +0.000 C 
ATOM     13  C   UNL     1       1.893   8.875  18.860  0.00  0.00    +0.000 C 
ATOM     14  N   UNL     1       1.388   8.032  19.958  0.00  0.00    +0.000 NA
ATOM     15  C   UNL     1       1.279   8.841  21.187  0.00  0.00    +0.000 C 
BRANCH   6  17
ATOM     16  C   UNL     1      -2.754  12.050  23.210  0.00  0.00    +0.000 C 
ATOM     17  C   UNL     1      -1.365  12.656  23.044  0.00  0.00    +0.000 C 
ENDBRANCH   6  17
BRANCH  11  18
ATOM     18  C   UNL     1      -1.377  13.893  20.226  0.00  0.00    +0.000 C 
ATOM     19  C   UNL     1      -0.547  14.902  19.422  0.00  0.00    +0.000 C 
ENDBRANCH  11  18
ENDBRANCH   5  14
ENDBRANCH   4   5
ENDBRANCH   1   4
BRANCH   3  20
ATOM     20  O   UNL     1       1.909   3.220  18.246  0.00  0.00    +0.000 OA
BRANCH  20  21
ATOM     21  C   UNL     1       2.516   3.247  16.960  0.00  0.00    +0.000 C 
BRANCH  21  22
ATOM     22  C   UNL     1       3.986   3.590  17.212  0.00  0.00    +0.000 C 
BRANCH  22  23
ATOM     23  C   UNL     1       4.683   4.214  15.978  0.00  0.00    +0.000 C 
ATOM     24  O   UNL     1       4.945   5.633  16.164  0.00  0.00    +0.000 OA
ATOM     25  C   UNL     1       6.373   5.828  16.312  0.00  0.00    +0.000 C 
ATOM     26  O   UNL     1       6.734   6.527  17.501  0.00  0.00    +0.000 OA
ATOM     27  C   UNL     1       6.752   5.524  18.519  0.00  0.00    +0.000 C 
ATOM     28  C   UNL     1       5.432   5.621  19.292  0.00  0.00    +0.000 C 
ATOM     29  C   UNL     1       7.867   5.733  19.538  0.00  0.00    +0.000 C 
ATOM     30  O   UNL     1       6.923   4.233  17.903  0.00  0.00    +0.000 OA
ATOM     31  C   UNL     1       6.990   4.469  16.486  0.00  0.00    +0.000 C 
ATOM     32  C   UNL     1       6.050   3.580  15.694  0.00  0.00    +0.000 C 
BRANCH  32  33
ATOM     33  O   UNL     1       6.368   3.663  14.293  0.00  0.00    +0.000 OA
ATOM     34  H   UNL     1       5.767   4.298  13.865  0.00  0.00    +0.000 HD
ENDBRANCH  32  33
ENDBRANCH  22  23
BRANCH  22  35
ATOM     35  O   UNL     1       4.689   2.415  17.642  0.00  0.00    +0.000 OA
ATOM     36  H   UNL     1       5.289   2.167  16.916  0.00  0.00    +0.000 HD
ENDBRANCH  22  35
ENDBRANCH  21  22
ENDBRANCH  20  21
ENDBRANCH   3  20
TORSDOF 11
ENDMDL
MODEL 2
REMARK VINA RESULT:      -7.7      4.091      9.945
REMARK  Name = 
REMARK  16 active torsions:
REMARK  status: ('A' for Active; 'I' for Inactive)
REMARK    1  A    between atoms: C_1  and  C_2
REMARK    2  A    between atoms: C_2  and  C_3
REMARK    3  A    between atoms: C_8  and  C_9
REMARK    4  A    between atoms: C_9  and  C_10
REMARK    5  A    between atoms: N_13  and  C_14
REMARK    6  A    between atoms: C_14  and  C_15
REMARK    7  A    between atoms: C_15  and  C_16
REMARK    8  A    between atoms: C_16  and  C_17
REMARK    9  A    between atoms: N_18  and  O_19
REMARK   10  A    between atoms: O_19  and  C_20
REMARK   11  A    between atoms: C_20  and  C_21
REMARK   12  A    between atoms: C_21  and  O_22
REMARK   13  A    between atoms: C_21  and  C_23
REMARK   14  A    between atoms: C_27  and  C_28
REMARK   15  A    between atoms: C_27  and  C_29
REMARK   16  A    between atoms: C_32  and  O_33
REMARK                            x       y       z     vdW  Elec       q    Type
REMARK                         _______ _______ _______ _____ _____    ______ ____
ROOT
ATOM      1  C   UNL     1       2.201   5.113  20.053  0.00  0.00    +0.000 C 
ATOM      2  C   UNL     1       2.057   4.373  21.371  0.00  0.00    +0.000 C 
ATOM      3  N   UNL     1       1.804   6.329  19.880  0.00  0.00    +0.000 NA
ENDROOT
BRANCH   1   4
ATOM      4  C   UNL     1       2.777   4.348  18.880  0.00  0.00    +0.000 C 
BRANCH   4   5
ATOM      5  C   UNL     1       4.098   3.649  19.230  0.00  0.00    +0.000 C 
BRANCH   5  14
ATOM      6  C   UNL     1       6.374   4.054  13.507  0.00  0.00    +0.000 A 
ATOM      7  C   UNL     1       5.472   3.661  14.505  0.00  0.00    +0.000 A 
ATOM      8  C   UNL     1       5.608   4.135  15.804  0.00  0.00    +0.000 A 
ATOM      9  C   UNL     1       6.638   5.032  16.054  0.00  0.00    +0.000 A 
ATOM     10  N   UNL     1       7.492   5.475  15.101  0.00  0.00    +0.000 NA
ATOM     11  C   UNL     1       7.369   4.991  13.842  0.00  0.00    +0.000 A 
ATOM     12  C   UNL     1       6.920   5.472  17.457  0.00  0.00    +0.000 C 
ATOM     13  C   UNL     1       5.703   5.305  18.361  0.00  0.00    +0.000 C 
ATOM     14  N   UNL     1       5.161   3.939  18.247  0.00  0.00    +0.000 NA
ATOM     15  C   UNL     1       4.640   3.730  16.882  0.00  0.00    +0.000 C 
BRANCH   6  17
ATOM     16  C   UNL     1       4.811   3.208  11.750  0.00  0.00    +0.000 C 
ATOM     17  C   UNL     1       6.268   3.361  12.170  0.00  0.00    +0.000 C 
ENDBRANCH   6  17
BRANCH  11  18
ATOM     18  C   UNL     1       8.387   5.488  12.838  0.00  0.00    +0.000 C 
ATOM     19  C   UNL     1       7.820   6.208  11.606  0.00  0.00    +0.000 C 
ENDBRANCH  11  18
ENDBRANCH   5  14
ENDBRANCH   4   5
ENDBRANCH   1   4
BRANCH   3  20
ATOM     20  O   UNL     1       1.290   6.815  21.081  0.00  0.00    +0.000 OA
BRANCH  20  21
ATOM     21  C   UNL     1       1.685   8.169  21.260  0.00  0.00    +0.000 C 
BRANCH  21  22
ATOM     22  C   UNL     1       0.408   8.992  21.078  0.00  0.00    +0.000 C 
BRANCH  22  23
ATOM     23  C   UNL     1       0.527  10.428  21.644  0.00  0.00    +0.000 C 
ATOM     24  O   UNL     1       1.059  11.356  20.657  0.00  0.00    +0.000 OA
ATOM     25  C   UNL     1       0.001  12.256  20.245  0.00  0.00    +0.000 C 
ATOM     26  O   UNL     1      -0.208  12.285  18.834  0.00  0.00    +0.000 OA
ATOM     27  C   UNL     1      -1.045  11.158  18.569  0.00  0.00    +0.000 C 
ATOM     28  C   UNL     1      -0.151  10.026  18.051  0.00  0.00    +0.000 C 
ATOM     29  C   UNL     1      -2.076  11.429  17.479  0.00  0.00    +0.000 C 
ATOM     30  O   UNL     1      -1.735  10.791  19.779  0.00  0.00    +0.000 OA
ATOM     31  C   UNL     1      -1.287  11.707  20.793  0.00  0.00    +0.000 C 
ATOM     32  C   UNL     1      -0.830  11.009  22.060  0.00  0.00    +0.000 C 
BRANCH  32  33
ATOM     33  O   UNL     1      -0.668  11.975  23.115  0.00  0.00    +0.000 OA
ATOM     34  H   UNL     1       0.023  11.667  23.728  0.00  0.00    +0.000 HD
ENDBRANCH  32  33
ENDBRANCH  22  23
BRANCH  22  35
ATOM     35  O   UNL     1      -0.697   8.306  21.684  0.00  0.00    +0.000 OA
ATOM     36  H   UNL     1      -0.319   7.671  22.319  0.00  0.00    +0.000 HD
ENDBRANCH  22  35
ENDBRANCH  21  22
ENDBRANCH  20  21
ENDBRANCH   3  20
TORSDOF 11
ENDMDL
MODEL 3
REMARK VINA RESULT:      -7.6      1.083      1.451
REMARK  Name = 
REMARK  16 active torsions:
REMARK  status: ('A' for Active; 'I' for Inactive)
REMARK    1  A    between atoms: C_1  and  C_2
REMARK    2  A    between atoms: C_2  and  C_3
REMARK    3  A    between atoms: C_8  and  C_9
REMARK    4  A    between atoms: C_9  and  C_10
REMARK    5  A    between atoms: N_13  and  C_14
REMARK    6  A    between atoms: C_14  and  C_15
REMARK    7  A    between atoms: C_15  and  C_16
REMARK    8  A    between atoms: C_16  and  C_17
REMARK    9  A    between atoms: N_18  and  O_19
REMARK   10  A    between atoms: O_19  and  C_20
REMARK   11  A    between atoms: C_20  and  C_21
REMARK   12  A    between atoms: C_21  and  O_22
REMARK   13  A    between atoms: C_21  and  C_23
REMARK   14  A    between atoms: C_27  and  C_28
REMARK   15  A    between atoms: C_27  and  C_29
REMARK   16  A    between atoms: C_32  and  O_33
REMARK                            x       y       z     vdW  Elec       q    Type
REMARK                         _______ _______ _______ _____ _____    ______ ____
ROOT
ATOM      1  C   UNL     1       1.996   6.031  19.503  0.00  0.00    +0.000 C 
ATOM      2  C   UNL     1       1.653   5.158  20.697  0.00  0.00    +0.000 C 
ATOM      3  N   UNL     1       2.168   5.563  18.313  0.00  0.00    +0.000 NA
ENDROOT
BRANCH   1   4
ATOM      4  C   UNL     1       2.209   7.509  19.756  0.00  0.00    +0.000 C 
BRANCH   4   5
ATOM      5  C   UNL     1       1.522   7.988  21.042  0.00  0.00    +0.000 C 
BRANCH   5  14
ATOM      6  C   UNL     1      -2.273  12.606  22.582  0.00  0.00    +0.000 A 
ATOM      7  C   UNL     1      -1.364  11.561  22.804  0.00  0.00    +0.000 A 
ATOM      8  C   UNL     1      -0.750  10.922  21.735  0.00  0.00    +0.000 A 
ATOM      9  C   UNL     1      -1.043  11.383  20.458  0.00  0.00    +0.000 A 
ATOM     10  N   UNL     1      -1.872  12.425  20.212  0.00  0.00    +0.000 NA
ATOM     11  C   UNL     1      -2.486  13.029  21.256  0.00  0.00    +0.000 A 
ATOM     12  C   UNL     1      -0.521  10.650  19.262  0.00  0.00    +0.000 C 
ATOM     13  C   UNL     1       0.708   9.813  19.600  0.00  0.00    +0.000 C 
ATOM     14  N   UNL     1       0.443   8.958  20.772  0.00  0.00    +0.000 NA
ATOM     15  C   UNL     1       0.235   9.807  21.961  0.00  0.00    +0.000 C 
BRANCH   6  17
ATOM     16  C   UNL     1      -2.357  14.372  24.348  0.00  0.00    +0.000 C 
ATOM     17  C   UNL     1      -3.030  13.128  23.778  0.00  0.00    +0.000 C 
ENDBRANCH   6  17
BRANCH  11  18
ATOM     18  C   UNL     1      -3.439  14.153  20.907  0.00  0.00    +0.000 C 
ATOM     19  C   UNL     1      -2.828  15.559  20.853  0.00  0.00    +0.000 C 
ENDBRANCH  11  18
ENDBRANCH   5  14
ENDBRANCH   4   5
ENDBRANCH   1   4
BRANCH   3  20
ATOM     20  O   UNL     1       1.944   4.187  18.329  0.00  0.00    +0.000 OA
BRANCH  20  21
ATOM     21  C   UNL     1       2.485   3.598  17.154  0.00  0.00    +0.000 C 
BRANCH  21  22
ATOM     22  C   UNL     1       4.003   3.717  17.302  0.00  0.00    +0.000 C 
BRANCH  22  23
ATOM     23  C   UNL     1       4.690   4.305  16.045  0.00  0.00    +0.000 C 
ATOM     24  O   UNL     1       5.018   5.713  16.216  0.00  0.00    +0.000 OA
ATOM     25  C   UNL     1       6.457   5.846  16.321  0.00  0.00    +0.000 C 
ATOM     26  O   UNL     1       6.883   6.534  17.496  0.00  0.00    +0.000 OA
ATOM     27  C   UNL     1       6.887   5.535  18.518  0.00  0.00    +0.000 C 
ATOM     28  C   UNL     1       5.595   5.692  19.329  0.00  0.00    +0.000 C 
ATOM     29  C   UNL     1       8.039   5.700  19.503  0.00  0.00    +0.000 C 
ATOM     30  O   UNL     1       6.984   4.235  17.904  0.00  0.00    +0.000 OA
ATOM     31  C   UNL     1       7.020   4.463  16.484  0.00  0.00    +0.000 C 
ATOM     32  C   UNL     1       6.020   3.612  15.724  0.00  0.00    +0.000 C 
BRANCH  32  33
ATOM     33  O   UNL     1       6.301   3.677  14.314  0.00  0.00    +0.000 OA
ATOM     34  H   UNL     1       5.944   2.881  13.880  0.00  0.00    +0.000 HD
ENDBRANCH  32  33
ENDBRANCH  22  23
BRANCH  22  35
ATOM     35  O   UNL     1       4.560   2.433  17.619  0.00  0.00    +0.000 OA
ATOM     36  H   UNL     1       5.329   2.308  17.035  0.00  0.00    +0.000 HD
ENDBRANCH  22  35
ENDBRANCH  21  22
ENDBRANCH  20  21
ENDBRANCH   3  20
TORSDOF 11
ENDMDL
MODEL 4
REMARK VINA RESULT:      -7.5      6.130      8.000
REMARK  Name = 
REMARK  16 active torsions:
REMARK  status: ('A' for Active; 'I' for Inactive)
REMARK    1  A    between atoms: C_1  and  C_2
REMARK    2  A    between atoms: C_2  and  C_3
REMARK    3  A    between atoms: C_8  and  C_9
REMARK    4  A    between atoms: C_9  and  C_10
REMARK    5  A    between atoms: N_13  and  C_14
REMARK    6  A    between atoms: C_14  and  C_15
REMARK    7  A    between atoms: C_15  and  C_16
REMARK    8  A    between atoms: C_16  and  C_17
REMARK    9  A    between atoms: N_18  and  O_19
REMARK   10  A    between atoms: O_19  and  C_20
REMARK   11  A    between atoms: C_20  and  C_21
REMARK   12  A    between atoms: C_21  and  O_22
REMARK   13  A    between atoms: C_21  and  C_23
REMARK   14  A    between atoms: C_27  and  C_28
REMARK   15  A    between atoms: C_27  and  C_29
REMARK   16  A    between atoms: C_32  and  O_33
REMARK                            x       y       z     vdW  Elec       q    Type
REMARK                         _______ _______ _______ _____ _____    ______ ____
ROOT
ATOM      1  C   UNL     1       7.565   7.285  17.765  0.00  0.00    +0.000 C 
ATOM      2  C   UNL     1       8.140   6.511  18.938  0.00  0.00    +0.000 C 
ATOM      3  N   UNL     1       6.915   6.725  16.801  0.00  0.00    +0.000 NA
ENDROOT
BRANCH   1   4
ATOM      4  C   UNL     1       7.838   8.773  17.708  0.00  0.00    +0.000 C 
BRANCH   4   5
ATOM      5  C   UNL     1       8.855   9.223  18.766  0.00  0.00    +0.000 C 
BRANCH   5  14
ATOM      6  C   UNL     1      10.078  14.621  21.498  0.00  0.00    +0.000 A 
ATOM      7  C   UNL     1       9.741  13.262  21.432  0.00  0.00    +0.000 A 
ATOM      8  C   UNL     1       9.758  12.589  20.218  0.00  0.00    +0.000 A 
ATOM      9  C   UNL     1      10.157  13.303  19.095  0.00  0.00    +0.000 A 
ATOM     10  N   UNL     1      10.543  14.600  19.132  0.00  0.00    +0.000 NA
ATOM     11  C   UNL     1      10.501  15.257  20.315  0.00  0.00    +0.000 A 
ATOM     12  C   UNL     1      10.066  12.674  17.740  0.00  0.00    +0.000 C 
ATOM     13  C   UNL     1      10.062  11.151  17.819  0.00  0.00    +0.000 C 
ATOM     14  N   UNL     1       9.042  10.687  18.776  0.00  0.00    +0.000 NA
ATOM     15  C   UNL     1       9.409  11.127  20.136  0.00  0.00    +0.000 C 
BRANCH   6  17
ATOM     16  C   UNL     1       8.394  15.677  23.012  0.00  0.00    +0.000 C 
ATOM     17  C   UNL     1       9.864  15.322  22.817  0.00  0.00    +0.000 C 
ENDBRANCH   6  17
BRANCH  11  18
ATOM     18  C   UNL     1      10.896  16.719  20.277  0.00  0.00    +0.000 C 
ATOM     19  C   UNL     1      11.340  17.259  18.911  0.00  0.00    +0.000 C 
ENDBRANCH  11  18
ENDBRANCH   5  14
ENDBRANCH   4   5
ENDBRANCH   1   4
BRANCH   3  20
ATOM     20  O   UNL     1       6.811   5.359  17.056  0.00  0.00    +0.000 OA
BRANCH  20  21
ATOM     21  C   UNL     1       5.585   4.863  16.534  0.00  0.00    +0.000 C 
BRANCH  21  22
ATOM     22  C   UNL     1       4.676   4.668  17.749  0.00  0.00    +0.000 C 
BRANCH  22  23
ATOM     23  C   UNL     1       3.390   5.529  17.688  0.00  0.00    +0.000 C 
ATOM     24  O   UNL     1       2.192   4.707  17.601  0.00  0.00    +0.000 OA
ATOM     25  C   UNL     1       1.470   4.801  18.853  0.00  0.00    +0.000 C 
ATOM     26  O   UNL     1       1.202   3.537  19.455  0.00  0.00    +0.000 OA
ATOM     27  C   UNL     1       2.402   3.208  20.158  0.00  0.00    +0.000 C 
ATOM     28  C   UNL     1       3.195   2.224  19.290  0.00  0.00    +0.000 C 
ATOM     29  C   UNL     1       2.140   2.503  21.483  0.00  0.00    +0.000 C 
ATOM     30  O   UNL     1       3.142   4.418  20.413  0.00  0.00    +0.000 OA
ATOM     31  C   UNL     1       2.375   5.489  19.837  0.00  0.00    +0.000 C 
ATOM     32  C   UNL     1       3.202   6.393  18.941  0.00  0.00    +0.000 C 
BRANCH  32  33
ATOM     33  O   UNL     1       2.456   7.583  18.632  0.00  0.00    +0.000 OA
ATOM     34  H   UNL     1       2.337   7.645  17.667  0.00  0.00    +0.000 HD
ENDBRANCH  32  33
ENDBRANCH  22  23
BRANCH  22  35
ATOM     35  O   UNL     1       5.409   4.951  18.950  0.00  0.00    +0.000 OA
ATOM     36  H   UNL     1       4.792   4.820  19.692  0.00  0.00    +0.000 HD
ENDBRANCH  22  35
ENDBRANCH  21  22
ENDBRANCH  20  21
ENDBRANCH   3  20
TORSDOF 11
ENDMDL
MODEL 5
REMARK VINA RESULT:      -7.4      4.048      9.884
REMARK  Name = 
REMARK  16 active torsions:
REMARK  status: ('A' for Active; 'I' for Inactive)
REMARK    1  A    between atoms: C_1  and  C_2
REMARK    2  A    between atoms: C_2  and  C_3
REMARK    3  A    between atoms: C_8  and  C_9
REMARK    4  A    between atoms: C_9  and  C_10
REMARK    5  A    between atoms: N_13  and  C_14
REMARK    6  A    between atoms: C_14  and  C_15
REMARK    7  A    between atoms: C_15  and  C_16
REMARK    8  A    between atoms: C_16  and  C_17
REMARK    9  A    between atoms: N_18  and  O_19
REMARK   10  A    between atoms: O_19  and  C_20
REMARK   11  A    between atoms: C_20  and  C_21
REMARK   12  A    between atoms: C_21  and  O_22
REMARK   13  A    between atoms: C_21  and  C_23
REMARK   14  A    between atoms: C_27  and  C_28
REMARK   15  A    between atoms: C_27  and  C_29
REMARK   16  A    between atoms: C_32  and  O_33
REMARK                            x       y       z     vdW  Elec       q    Type
REMARK                         _______ _______ _______ _____ _____    ______ ____
ROOT
ATOM      1  C   UNL     1       2.334   5.210  19.570  0.00  0.00    +0.000 C 
ATOM      2  C   UNL     1       1.573   5.097  20.879  0.00  0.00    +0.000 C 
ATOM      3  N   UNL     1       2.460   6.318  18.920  0.00  0.00    +0.000 NA
ENDROOT
BRANCH   1   4
ATOM      4  C   UNL     1       2.905   3.937  18.981  0.00  0.00    +0.000 C 
BRANCH   4   5
ATOM      5  C   UNL     1       4.358   3.695  19.410  0.00  0.00    +0.000 C 
BRANCH   5  14
ATOM      6  C   UNL     1       6.229   3.963  13.534  0.00  0.00    +0.000 A 
ATOM      7  C   UNL     1       5.440   3.540  14.612  0.00  0.00    +0.000 A 
ATOM      8  C   UNL     1       5.596   4.114  15.868  0.00  0.00    +0.000 A 
ATOM      9  C   UNL     1       6.528   5.136  15.994  0.00  0.00    +0.000 A 
ATOM     10  N   UNL     1       7.266   5.606  14.961  0.00  0.00    +0.000 NA
ATOM     11  C   UNL     1       7.126   5.028  13.745  0.00  0.00    +0.000 A 
ATOM     12  C   UNL     1       6.839   5.699  17.346  0.00  0.00    +0.000 C 
ATOM     13  C   UNL     1       5.705   5.457  18.337  0.00  0.00    +0.000 C 
ATOM     14  N   UNL     1       5.320   4.035  18.343  0.00  0.00    +0.000 NA
ATOM     15  C   UNL     1       4.747   3.676  17.031  0.00  0.00    +0.000 C 
BRANCH   6  17
ATOM     16  C   UNL     1       4.736   3.306  11.641  0.00  0.00    +0.000 C 
ATOM     17  C   UNL     1       6.126   3.174  12.252  0.00  0.00    +0.000 C 
ENDBRANCH   6  17
BRANCH  11  18
ATOM     18  C   UNL     1       8.018   5.567  12.647  0.00  0.00    +0.000 C 
ATOM     19  C   UNL     1       9.476   5.840  13.040  0.00  0.00    +0.000 C 
ENDBRANCH  11  18
ENDBRANCH   5  14
ENDBRANCH   4   5
ENDBRANCH   1   4
BRANCH   3  20
ATOM     20  O   UNL     1       1.838   7.339  19.637  0.00  0.00    +0.000 OA
BRANCH  20  21
ATOM     21  C   UNL     1       2.009   8.577  18.959  0.00  0.00    +0.000 C 
BRANCH  21  22
ATOM     22  C   UNL     1       0.892   9.483  19.481  0.00  0.00    +0.000 C 
BRANCH  22  23
ATOM     23  C   UNL     1       1.338  10.956  19.654  0.00  0.00    +0.000 C 
ATOM     24  O   UNL     1       1.017  11.759  18.484  0.00  0.00    +0.000 OA
ATOM     25  C   UNL     1      -0.051  12.676  18.827  0.00  0.00    +0.000 C 
ATOM     26  O   UNL     1      -1.180  12.589  17.959  0.00  0.00    +0.000 OA
ATOM     27  C   UNL     1      -1.943  11.492  18.465  0.00  0.00    +0.000 C 
ATOM     28  C   UNL     1      -1.632  10.268  17.596  0.00  0.00    +0.000 C 
ATOM     29  C   UNL     1      -3.447  11.721  18.370  0.00  0.00    +0.000 C 
ATOM     30  O   UNL     1      -1.592  11.275  19.846  0.00  0.00    +0.000 OA
ATOM     31  C   UNL     1      -0.587  12.252  20.166  0.00  0.00    +0.000 C 
ATOM     32  C   UNL     1       0.635  11.648  20.829  0.00  0.00    +0.000 C 
BRANCH  32  33
ATOM     33  O   UNL     1       1.461  12.694  21.371  0.00  0.00    +0.000 OA
ATOM     34  H   UNL     1       2.167  12.297  21.912  0.00  0.00    +0.000 HD
ENDBRANCH  32  33
ENDBRANCH  22  23
BRANCH  22  35
ATOM     35  O   UNL     1       0.391   8.964  20.723  0.00  0.00    +0.000 OA
ATOM     36  H   UNL     1      -0.176   8.203  20.501  0.00  0.00    +0.000 HD
ENDBRANCH  22  35
ENDBRANCH  21  22
ENDBRANCH  20  21
ENDBRANCH   3  20
TORSDOF 11
ENDMDL
MODEL 6
REMARK VINA RESULT:      -7.4      0.986      2.027
REMARK  Name = 
REMARK  16 active torsions:
REMARK  status: ('A' for Active; 'I' for Inactive)
REMARK    1  A    between atoms: C_1  and  C_2
REMARK    2  A    between atoms: C_2  and  C_3
REMARK    3  A    between atoms: C_8  and  C_9
REMARK    4  A    between atoms: C_9  and  C_10
REMARK    5  A    between atoms: N_13  and  C_14
REMARK    6  A    between atoms: C_14  and  C_15
REMARK    7  A    between atoms: C_15  and  C_16
REMARK    8  A    between atoms: C_16  and  C_17
REMARK    9  A    between atoms: N_18  and  O_19
REMARK   10  A    between atoms: O_19  and  C_20
REMARK   11  A    between atoms: C_20  and  C_21
REMARK   12  A    between atoms: C_21  and  O_22
REMARK   13  A    between atoms: C_21  and  C_23
REMARK   14  A    between atoms: C_27  and  C_28
REMARK   15  A    between atoms: C_27  and  C_29
REMARK   16  A    between atoms: C_32  and  O_33
REMARK                            x       y       z     vdW  Elec       q    Type
REMARK                         _______ _______ _______ _____ _____    ______ ____
ROOT
ATOM      1  C   UNL     1       1.689   4.759  20.234  0.00  0.00    +0.000 C 
ATOM      2  C   UNL     1       2.450   3.755  21.082  0.00  0.00    +0.000 C 
ATOM      3  N   UNL     1       1.472   4.596  18.972  0.00  0.00    +0.000 NA
ENDROOT
BRANCH   1   4
ATOM      4  C   UNL     1       1.232   6.037  20.906  0.00  0.00    +0.000 C 
BRANCH   4   5
ATOM      5  C   UNL     1       1.945   7.278  20.351  0.00  0.00    +0.000 C 
BRANCH   5  14
ATOM      6  C   UNL     1      -0.501  12.944  20.239  0.00  0.00    +0.000 A 
ATOM      7  C   UNL     1       0.104  11.795  19.709  0.00  0.00    +0.000 A 
ATOM      8  C   UNL     1       0.299  10.672  20.502  0.00  0.00    +0.000 A 
ATOM      9  C   UNL     1      -0.162  10.724  21.812  0.00  0.00    +0.000 A 
ATOM     10  N   UNL     1      -0.801  11.796  22.337  0.00  0.00    +0.000 NA
ATOM     11  C   UNL     1      -0.966  12.897  21.567  0.00  0.00    +0.000 A 
ATOM     12  C   UNL     1       0.138   9.600  22.753  0.00  0.00    +0.000 C 
ATOM     13  C   UNL     1       0.440   8.302  22.011  0.00  0.00    +0.000 C 
ATOM     14  N   UNL     1       1.470   8.525  20.981  0.00  0.00    +0.000 NA
ATOM     15  C   UNL     1       0.937   9.429  19.943  0.00  0.00    +0.000 C 
BRANCH   6  17
ATOM     16  C   UNL     1       0.897  14.715  19.165  0.00  0.00    +0.000 C 
ATOM     17  C   UNL     1      -0.515  14.178  19.371  0.00  0.00    +0.000 C 
ENDBRANCH   6  17
BRANCH  11  18
ATOM     18  C   UNL     1      -1.641  14.077  22.232  0.00  0.00    +0.000 C 
ATOM     19  C   UNL     1      -1.310  14.291  23.715  0.00  0.00    +0.000 C 
ENDBRANCH  11  18
ENDBRANCH   5  14
ENDBRANCH   4   5
ENDBRANCH   1   4
BRANCH   3  20
ATOM     20  O   UNL     1       2.001   3.369  18.574  0.00  0.00    +0.000 OA
BRANCH  20  21
ATOM     21  C   UNL     1       2.462   3.456  17.232  0.00  0.00    +0.000 C 
BRANCH  21  22
ATOM     22  C   UNL     1       3.985   3.553  17.332  0.00  0.00    +0.000 C 
BRANCH  22  23
ATOM     23  C   UNL     1       4.638   4.162  16.067  0.00  0.00    +0.000 C 
ATOM     24  O   UNL     1       4.883   5.588  16.217  0.00  0.00    +0.000 OA
ATOM     25  C   UNL     1       6.311   5.807  16.321  0.00  0.00    +0.000 C 
ATOM     26  O   UNL     1       6.695   6.536  17.486  0.00  0.00    +0.000 OA
ATOM     27  C   UNL     1       6.757   5.554  18.523  0.00  0.00    +0.000 C 
ATOM     28  C   UNL     1       5.457   5.647  19.330  0.00  0.00    +0.000 C 
ATOM     29  C   UNL     1       7.896   5.800  19.505  0.00  0.00    +0.000 C 
ATOM     30  O   UNL     1       6.930   4.253  17.927  0.00  0.00    +0.000 OA
ATOM     31  C   UNL     1       6.955   4.462  16.504  0.00  0.00    +0.000 C 
ATOM     32  C   UNL     1       6.007   3.543  15.756  0.00  0.00    +0.000 C 
BRANCH  32  33
ATOM     33  O   UNL     1       6.284   3.603  14.346  0.00  0.00    +0.000 OA
ATOM     34  H   UNL     1       6.387   2.699  14.000  0.00  0.00    +0.000 HD
ENDBRANCH  32  33
ENDBRANCH  22  23
BRANCH  22  35
ATOM     35  O   UNL     1       4.535   2.254  17.601  0.00  0.00    +0.000 OA
ATOM     36  H   UNL     1       5.395   2.215  17.146  0.00  0.00    +0.000 HD
ENDBRANCH  22  35
ENDBRANCH  21  22
ENDBRANCH  20  21
ENDBRANCH   3  20
TORSDOF 11
ENDMDL
MODEL 7
REMARK VINA RESULT:      -7.2      3.944      9.748
REMARK  Name = 
REMARK  16 active torsions:
REMARK  status: ('A' for Active; 'I' for Inactive)
REMARK    1  A    between atoms: C_1  and  C_2
REMARK    2  A    between atoms: C_2  and  C_3
REMARK    3  A    between atoms: C_8  and  C_9
REMARK    4  A    between atoms: C_9  and  C_10
REMARK    5  A    between atoms: N_13  and  C_14
REMARK    6  A    between atoms: C_14  and  C_15
REMARK    7  A    between atoms: C_15  and  C_16
REMARK    8  A    between atoms: C_16  and  C_17
REMARK    9  A    between atoms: N_18  and  O_19
REMARK   10  A    between atoms: O_19  and  C_20
REMARK   11  A    between atoms: C_20  and  C_21
REMARK   12  A    between atoms: C_21  and  O_22
REMARK   13  A    between atoms: C_21  and  C_23
REMARK   14  A    between atoms: C_27  and  C_28
REMARK   15  A    between atoms: C_27  and  C_29
REMARK   16  A    between atoms: C_32  and  O_33
REMARK                            x       y       z     vdW  Elec       q    Type
REMARK                         _______ _______ _______ _____ _____    ______ ____
ROOT
ATOM      1  C   UNL     1       2.390   5.817  19.071  0.00  0.00    +0.000 C 
ATOM      2  C   UNL     1       2.197   6.557  17.759  0.00  0.00    +0.000 C 
ATOM      3  N   UNL     1       2.252   6.378  20.224  0.00  0.00    +0.000 NA
ENDROOT
BRANCH   1   4
ATOM      4  C   UNL     1       2.833   4.371  18.998  0.00  0.00    +0.000 C 
BRANCH   4   5
ATOM      5  C   UNL     1       4.274   4.175  19.488  0.00  0.00    +0.000 C 
BRANCH   5  14
ATOM      6  C   UNL     1       6.105   4.007  13.595  0.00  0.00    +0.000 A 
ATOM      7  C   UNL     1       5.277   3.727  14.692  0.00  0.00    +0.000 A 
ATOM      8  C   UNL     1       5.520   4.314  15.927  0.00  0.00    +0.000 A 
ATOM      9  C   UNL     1       6.580   5.208  16.014  0.00  0.00    +0.000 A 
ATOM     10  N   UNL     1       7.363   5.544  14.962  0.00  0.00    +0.000 NA
ATOM     11  C   UNL     1       7.136   4.950  13.766  0.00  0.00    +0.000 A 
ATOM     12  C   UNL     1       6.976   5.767  17.345  0.00  0.00    +0.000 C 
ATOM     13  C   UNL     1       5.830   5.709  18.350  0.00  0.00    +0.000 C 
ATOM     14  N   UNL     1       5.262   4.351  18.405  0.00  0.00    +0.000 NA
ATOM     15  C   UNL     1       4.633   4.030  17.108  0.00  0.00    +0.000 C 
BRANCH   6  17
ATOM     16  C   UNL     1       4.519   3.493  11.733  0.00  0.00    +0.000 C 
ATOM     17  C   UNL     1       5.886   3.198  12.341  0.00  0.00    +0.000 C 
ENDBRANCH   6  17
BRANCH  11  18
ATOM     18  C   UNL     1       8.080   5.332  12.646  0.00  0.00    +0.000 C 
ATOM     19  C   UNL     1       9.424   5.935  13.076  0.00  0.00    +0.000 C 
ENDBRANCH  11  18
ENDBRANCH   5  14
ENDBRANCH   4   5
ENDBRANCH   1   4
BRANCH   3  20
ATOM     20  O   UNL     1       1.867   7.705  20.041  0.00  0.00    +0.000 OA
BRANCH  20  21
ATOM     21  C   UNL     1       1.311   8.216  21.246  0.00  0.00    +0.000 C 
BRANCH  21  22
ATOM     22  C   UNL     1       0.752   9.593  20.883  0.00  0.00    +0.000 C 
BRANCH  22  23
ATOM     23  C   UNL     1       0.676   9.832  19.354  0.00  0.00    +0.000 C 
ATOM     24  O   UNL     1      -0.683  10.111  18.918  0.00  0.00    +0.000 OA
ATOM     25  C   UNL     1      -0.772  11.504  18.529  0.00  0.00    +0.000 C 
ATOM     26  O   UNL     1      -1.804  12.222  19.203  0.00  0.00    +0.000 OA
ATOM     27  C   UNL     1      -1.226  12.595  20.456  0.00  0.00    +0.000 C 
ATOM     28  C   UNL     1      -1.721  11.600  21.512  0.00  0.00    +0.000 C 
ATOM     29  C   UNL     1      -1.664  13.978  20.923  0.00  0.00    +0.000 C 
ATOM     30  O   UNL     1       0.210  12.580  20.333  0.00  0.00    +0.000 OA
ATOM     31  C   UNL     1       0.495  12.173  18.983  0.00  0.00    +0.000 C 
ATOM     32  C   UNL     1       1.505  11.043  18.907  0.00  0.00    +0.000 C 
BRANCH  32  33
ATOM     33  O   UNL     1       1.951  10.881  17.549  0.00  0.00    +0.000 OA
ATOM     34  H   UNL     1       2.710  10.272  17.532  0.00  0.00    +0.000 HD
ENDBRANCH  32  33
ENDBRANCH  22  23
BRANCH  22  35
ATOM     35  O   UNL     1       1.544  10.615  21.508  0.00  0.00    +0.000 OA
ATOM     36  H   UNL     1       0.925  11.307  21.804  0.00  0.00    +0.000 HD
ENDBRANCH  22  35
ENDBRANCH  21  22
ENDBRANCH  20  21
ENDBRANCH   3  20
TORSDOF 11
ENDMDL
MODEL 8
REMARK VINA RESULT:      -7.1      5.911     11.670
REMARK  Name = 
REMARK  16 active torsions:
REMARK  status: ('A' for Active; 'I' for Inactive)
REMARK    1  A    between atoms: C_1  and  C_2
REMARK    2  A    between atoms: C_2  and  C_3
REMARK    3  A    between atoms: C_8  and  C_9
REMARK    4  A    between atoms: C_9  and  C_10
REMARK    5  A    between atoms: N_13  and  C_14
REMARK    6  A    between atoms: C_14  and  C_15
REMARK    7  A    between atoms: C_15  and  C_16
REMARK    8  A    between atoms: C_16  and  C_17
REMARK    9  A    between atoms: N_18  and  O_19
REMARK   10  A    between atoms: O_19  and  C_20
REMARK   11  A    between atoms: C_20  and  C_21
REMARK   12  A    between atoms: C_21  and  O_22
REMARK   13  A    between atoms: C_21  and  C_23
REMARK   14  A    between atoms: C_27  and  C_28
REMARK   15  A    between atoms: C_27  and  C_29
REMARK   16  A    between atoms: C_32  and  O_33
REMARK                            x       y       z     vdW  Elec       q    Type
REMARK                         _______ _______ _______ _____ _____    ______ ____
ROOT
ATOM      1  C   UNL     1      -0.120  11.003  22.041  0.00  0.00    +0.000 C 
ATOM      2  C   UNL     1      -0.471  10.170  23.261  0.00  0.00    +0.000 C 
ATOM      3  N   UNL     1      -0.565  12.200  21.852  0.00  0.00    +0.000 NA
ENDROOT
BRANCH   1   4
ATOM      4  C   UNL     1       0.739  10.355  20.976  0.00  0.00    +0.000 C 
BRANCH   4   5
ATOM      5  C   UNL     1       0.751   8.824  21.086  0.00  0.00    +0.000 C 
BRANCH   5  14
ATOM      6  C   UNL     1       3.512   4.027  18.354  0.00  0.00    +0.000 A 
ATOM      7  C   UNL     1       2.693   4.676  19.288  0.00  0.00    +0.000 A 
ATOM      8  C   UNL     1       2.445   6.039  19.182  0.00  0.00    +0.000 A 
ATOM      9  C   UNL     1       3.006   6.710  18.103  0.00  0.00    +0.000 A 
ATOM     10  N   UNL     1       3.755   6.103  17.153  0.00  0.00    +0.000 NA
ATOM     11  C   UNL     1       4.013   4.779  17.274  0.00  0.00    +0.000 A 
ATOM     12  C   UNL     1       2.890   8.199  18.009  0.00  0.00    +0.000 C 
ATOM     13  C   UNL     1       1.711   8.730  18.818  0.00  0.00    +0.000 C 
ATOM     14  N   UNL     1       1.755   8.207  20.196  0.00  0.00    +0.000 NA
ATOM     15  C   UNL     1       1.559   6.745  20.172  0.00  0.00    +0.000 C 
BRANCH   6  17
ATOM     16  C   UNL     1       4.349   2.421  20.075  0.00  0.00    +0.000 C 
ATOM     17  C   UNL     1       3.876   2.590  18.636  0.00  0.00    +0.000 C 
ENDBRANCH   6  17
BRANCH  11  18
ATOM     18  C   UNL     1       4.899   4.175  16.206  0.00  0.00    +0.000 C 
ATOM     19  C   UNL     1       6.410   4.261  16.458  0.00  0.00    +0.000 C 
ENDBRANCH  11  18
ENDBRANCH   5  14
ENDBRANCH   4   5
ENDBRANCH   1   4
BRANCH   3  20
ATOM     20  O   UNL     1      -1.346  12.572  22.945  0.00  0.00    +0.000 OA
BRANCH  20  21
ATOM     21  C   UNL     1      -2.381  13.450  22.519  0.00  0.00    +0.000 C 
BRANCH  21  22
ATOM     22  C   UNL     1      -3.688  12.720  22.834  0.00  0.00    +0.000 C 
BRANCH  22  23
ATOM     23  C   UNL     1      -4.841  13.679  23.216  0.00  0.00    +0.000 C 
ATOM     24  O   UNL     1      -5.273  14.484  22.083  0.00  0.00    +0.000 OA
ATOM     25  C   UNL     1      -6.589  14.040  21.669  0.00  0.00    +0.000 C 
ATOM     26  O   UNL     1      -6.665  13.683  20.291  0.00  0.00    +0.000 OA
ATOM     27  C   UNL     1      -6.180  12.340  20.237  0.00  0.00    +0.000 C 
ATOM     28  C   UNL     1      -4.720  12.390  19.773  0.00  0.00    +0.000 C 
ATOM     29  C   UNL     1      -6.927  11.480  19.224  0.00  0.00    +0.000 C 
ATOM     30  O   UNL     1      -6.312  11.741  21.541  0.00  0.00    +0.000 OA
ATOM     31  C   UNL     1      -6.871  12.754  22.395  0.00  0.00    +0.000 C 
ATOM     32  C   UNL     1      -6.095  12.932  23.687  0.00  0.00    +0.000 C 
BRANCH  32  33
ATOM     33  O   UNL     1      -6.856  13.740  24.602  0.00  0.00    +0.000 OA
ATOM     34  H   UNL     1      -7.722  13.945  24.206  0.00  0.00    +0.000 HD
ENDBRANCH  32  33
ENDBRANCH  22  23
BRANCH  22  35
ATOM     35  O   UNL     1      -3.466  11.764  23.882  0.00  0.00    +0.000 OA
ATOM     36  H   UNL     1      -2.793  12.149  24.474  0.00  0.00    +0.000 HD
ENDBRANCH  22  35
ENDBRANCH  21  22
ENDBRANCH  20  21
ENDBRANCH   3  20
TORSDOF 11
ENDMDL
MODEL 9
REMARK VINA RESULT:      -7.0      5.946     11.861
REMARK  Name = 
REMARK  16 active torsions:
REMARK  status: ('A' for Active; 'I' for Inactive)
REMARK    1  A    between atoms: C_1  and  C_2
REMARK    2  A    between atoms: C_2  and  C_3
REMARK    3  A    between atoms: C_8  and  C_9
REMARK    4  A    between atoms: C_9  and  C_10
REMARK    5  A    between atoms: N_13  and  C_14
REMARK    6  A    between atoms: C_14  and  C_15
REMARK    7  A    between atoms: C_15  and  C_16
REMARK    8  A    between atoms: C_16  and  C_17
REMARK    9  A    between atoms: N_18  and  O_19
REMARK   10  A    between atoms: O_19  and  C_20
REMARK   11  A    between atoms: C_20  and  C_21
REMARK   12  A    between atoms: C_21  and  O_22
REMARK   13  A    between atoms: C_21  and  C_23
REMARK   14  A    between atoms: C_27  and  C_28
REMARK   15  A    between atoms: C_27  and  C_29
REMARK   16  A    between atoms: C_32  and  O_33
REMARK                            x       y       z     vdW  Elec       q    Type
REMARK                         _______ _______ _______ _____ _____    ______ ____
ROOT
ATOM      1  C   UNL     1      -1.303  11.254  18.723  0.00  0.00    +0.000 C 
ATOM      2  C   UNL     1      -2.587  11.508  17.952  0.00  0.00    +0.000 C 
ATOM      3  N   UNL     1      -0.998  11.879  19.810  0.00  0.00    +0.000 NA
ENDROOT
BRANCH   1   4
ATOM      4  C   UNL     1      -0.318  10.268  18.133  0.00  0.00    +0.000 C 
BRANCH   4   5
ATOM      5  C   UNL     1       0.904  10.049  19.036  0.00  0.00    +0.000 C 
BRANCH   5  14
ATOM      6  C   UNL     1       4.188   5.027  17.593  0.00  0.00    +0.000 A 
ATOM      7  C   UNL     1       3.693   6.328  17.429  0.00  0.00    +0.000 A 
ATOM      8  C   UNL     1       2.922   6.918  18.423  0.00  0.00    +0.000 A 
ATOM      9  C   UNL     1       2.701   6.187  19.582  0.00  0.00    +0.000 A 
ATOM     10  N   UNL     1       3.212   4.951  19.795  0.00  0.00    +0.000 NA
ATOM     11  C   UNL     1       3.943   4.371  18.814  0.00  0.00    +0.000 A 
ATOM     12  C   UNL     1       1.768   6.711  20.629  0.00  0.00    +0.000 C 
ATOM     13  C   UNL     1       1.604   8.225  20.537  0.00  0.00    +0.000 C 
ATOM     14  N   UNL     1       1.260   8.622  19.160  0.00  0.00    +0.000 NA
ATOM     15  C   UNL     1       2.394   8.318  18.265  0.00  0.00    +0.000 C 
BRANCH   6  17
ATOM     16  C   UNL     1       5.876   5.344  15.777  0.00  0.00    +0.000 C 
ATOM     17  C   UNL     1       4.863   4.391  16.402  0.00  0.00    +0.000 C 
ENDBRANCH   6  17
BRANCH  11  18
ATOM     18  C   UNL     1       4.439   2.969  19.096  0.00  0.00    +0.000 C 
ATOM     19  C   UNL     1       3.536   1.826  18.613  0.00  0.00    +0.000 C 
ENDBRANCH  11  18
ENDBRANCH   5  14
ENDBRANCH   4   5
ENDBRANCH   1   4
BRANCH   3  20
ATOM     20  O   UNL     1      -2.037  12.747  20.143  0.00  0.00    +0.000 OA
BRANCH  20  21
ATOM     21  C   UNL     1      -2.276  12.696  21.544  0.00  0.00    +0.000 C 
BRANCH  21  22
ATOM     22  C   UNL     1      -3.648  13.340  21.745  0.00  0.00    +0.000 C 
BRANCH  22  23
ATOM     23  C   UNL     1      -4.662  12.964  20.636  0.00  0.00    +0.000 C 
ATOM     24  O   UNL     1      -5.597  11.942  21.082  0.00  0.00    +0.000 OA
ATOM     25  C   UNL     1      -6.907  12.542  21.234  0.00  0.00    +0.000 C 
ATOM     26  O   UNL     1      -7.478  12.349  22.526  0.00  0.00    +0.000 OA
ATOM     27  C   UNL     1      -6.900  13.375  23.335  0.00  0.00    +0.000 C 
ATOM     28  C   UNL     1      -5.757  12.745  24.140  0.00  0.00    +0.000 C 
ATOM     29  C   UNL     1      -7.879  13.953  24.351  0.00  0.00    +0.000 C 
ATOM     30  O   UNL     1      -6.435  14.439  22.482  0.00  0.00    +0.000 OA
ATOM     31  C   UNL     1      -6.727  14.031  21.134  0.00  0.00    +0.000 C 
ATOM     32  C   UNL     1      -5.532  14.153  20.208  0.00  0.00    +0.000 C 
BRANCH  32  33
ATOM     33  O   UNL     1      -5.959  14.005  18.842  0.00  0.00    +0.000 OA
ATOM     34  H   UNL     1      -5.477  13.264  18.434  0.00  0.00    +0.000 HD
ENDBRANCH  32  33
ENDBRANCH  22  23
BRANCH  22  35
ATOM     35  O   UNL     1      -3.504  14.766  21.826  0.00  0.00    +0.000 OA
ATOM     36  H   UNL     1      -2.560  14.961  21.685  0.00  0.00    +0.000 HD
ENDBRANCH  22  35
ENDBRANCH  21  22
ENDBRANCH  20  21
ENDBRANCH   3  20
TORSDOF 11
ENDMDL
