MODEL 1
REMARK VINA RESULT:      -6.9      0.000      0.000
REMARK  Name = 
REMARK  9 active torsions:
REMARK  status: ('A' for Active; 'I' for Inactive)
REMARK    1  A    between atoms: N_1  and  CA_2
REMARK    2  A    between atoms: CA_2  and  C_3
REMARK    3  A    between atoms: CA_2  and  C_15
REMARK    4  A    between atoms: C_3  and  C_4
REMARK    5  A    between atoms: C_4  and  C_5
REMARK    6  A    between atoms: C_4  and  C_12
REMARK    7  A    between atoms: C_5  and  C_6
REMARK    8  A    between atoms: C_12  and  O_14
REMARK    9  A    between atoms: C_15  and  OXT_17
REMARK                            x       y       z     vdW  Elec       q    Type
REMARK                         _______ _______ _______ _____ _____    ______ ____
ROOT
ATOM      1  C   UNL     1       4.522   5.272  17.557  0.00  0.00    +0.000 C 
ENDROOT
BRANCH   1   2
ATOM      2  C   UNL     1       5.170   4.667  18.784  0.00  0.00    +0.000 C 
ATOM      3  O   UNL     1       5.389   5.283  19.816  0.00  0.00    +0.000 OA
BRANCH   2   4
ATOM      4  O   UNL     1       5.579   3.394  18.607  0.00  0.00    +0.000 OA
ATOM      5  H   UNL     1       4.974   2.824  18.105  0.00  0.00    +0.000 HD
ENDBRANCH   2   4
ENDBRANCH   1   2
BRANCH   1   6
ATOM      6  C   UNL     1       5.342   6.434  16.942  0.00  0.00    +0.000 C 
BRANCH   6   7
ATOM      7  CA  UNL     1       6.880   6.333  17.095  0.00  0.00    +0.000 C 
BRANCH   7   8
ATOM      8  N   UNL     1       7.643   7.578  16.878  0.00  0.00    +0.000 NA
ATOM      9  H1  UNL     1       7.014   8.391  16.919  0.00  0.00    +0.000 HD
ATOM     10  H2  UNL     1       7.944   7.619  15.899  0.00  0.00    +0.000 HD
ENDBRANCH   7   8
BRANCH   7  11
ATOM     11  C   UNL     1       7.437   5.257  16.118  0.00  0.00    +0.000 C 
ATOM     12  O   UNL     1       7.477   5.354  14.905  0.00  0.00    +0.000 OA
BRANCH  11  13
ATOM     13  OXT UNL     1       7.891   4.177  16.795  0.00  0.00    +0.000 OA
ATOM     14  HXT UNL     1       8.671   4.430  17.335  0.00  0.00    +0.000 HD
ENDBRANCH  11  13
ENDBRANCH   7  11
ENDBRANCH   6   7
ENDBRANCH   1   6
BRANCH   1  15
ATOM     15  C   UNL     1       3.053   5.653  17.851  0.00  0.00    +0.000 C 
BRANCH  15  16
ATOM     16  C   UNL     1       2.127   4.703  18.591  0.00  0.00    +0.000 A 
ATOM     17  C   UNL     1       1.655   3.516  18.016  0.00  0.00    +0.000 A 
ATOM     18  C   UNL     1       0.933   2.590  18.776  0.00  0.00    +0.000 A 
ATOM     19  C   UNL     1       0.679   2.823  20.125  0.00  0.00    +0.000 A 
ATOM     20  C   UNL     1       1.134   3.999  20.710  0.00  0.00    +0.000 A 
ATOM     21  C   UNL     1       1.846   4.932  19.948  0.00  0.00    +0.000 A 
ENDBRANCH  15  16
ENDBRANCH   1  15
TORSDOF 9
ENDMDL
MODEL 2
REMARK VINA RESULT:      -6.8      1.863      2.722
REMARK  Name = 
REMARK  9 active torsions:
REMARK  status: ('A' for Active; 'I' for Inactive)
REMARK    1  A    between atoms: N_1  and  CA_2
REMARK    2  A    between atoms: CA_2  and  C_3
REMARK    3  A    between atoms: CA_2  and  C_15
REMARK    4  A    between atoms: C_3  and  C_4
REMARK    5  A    between atoms: C_4  and  C_5
REMARK    6  A    between atoms: C_4  and  C_12
REMARK    7  A    between atoms: C_5  and  C_6
REMARK    8  A    between atoms: C_12  and  O_14
REMARK    9  A    between atoms: C_15  and  OXT_17
REMARK                            x       y       z     vdW  Elec       q    Type
REMARK                         _______ _______ _______ _____ _____    ______ ____
ROOT
ATOM      1  C   UNL     1       4.693   5.258  17.253  0.00  0.00    +0.000 C 
ENDROOT
BRANCH   1   2
ATOM      2  C   UNL     1       5.238   5.623  15.888  0.00  0.00    +0.000 C 
ATOM      3  O   UNL     1       5.378   6.770  15.491  0.00  0.00    +0.000 OA
BRANCH   2   4
ATOM      4  O   UNL     1       5.474   4.556  15.097  0.00  0.00    +0.000 OA
ATOM      5  H   UNL     1       4.969   4.527  14.268  0.00  0.00    +0.000 HD
ENDBRANCH   2   4
ENDBRANCH   1   2
BRANCH   1   6
ATOM      6  C   UNL     1       5.757   4.630  18.188  0.00  0.00    +0.000 C 
BRANCH   6   7
ATOM      7  CA  UNL     1       7.217   5.096  17.962  0.00  0.00    +0.000 C 
BRANCH   7   8
ATOM      8  N   UNL     1       8.185   4.052  17.573  0.00  0.00    +0.000 NA
ATOM      9  H1  UNL     1       8.709   3.730  18.397  0.00  0.00    +0.000 HD
ATOM     10  H2  UNL     1       8.937   4.481  17.025  0.00  0.00    +0.000 HD
ENDBRANCH   7   8
BRANCH   7  11
ATOM     11  C   UNL     1       7.755   5.788  19.249  0.00  0.00    +0.000 C 
ATOM     12  O   UNL     1       7.680   5.339  20.378  0.00  0.00    +0.000 OA
BRANCH  11  13
ATOM     13  OXT UNL     1       8.338   6.973  18.955  0.00  0.00    +0.000 OA
ATOM     14  HXT UNL     1       9.278   6.957  19.239  0.00  0.00    +0.000 HD
ENDBRANCH  11  13
ENDBRANCH   7  11
ENDBRANCH   6   7
ENDBRANCH   1   6
BRANCH   1  15
ATOM     15  C   UNL     1       3.419   4.393  17.115  0.00  0.00    +0.000 C 
BRANCH  15  16
ATOM     16  C   UNL     1       2.536   4.097  18.314  0.00  0.00    +0.000 A 
ATOM     17  C   UNL     1       2.154   2.795  18.662  0.00  0.00    +0.000 A 
ATOM     18  C   UNL     1       1.473   2.543  19.858  0.00  0.00    +0.000 A 
ATOM     19  C   UNL     1       1.170   3.582  20.734  0.00  0.00    +0.000 A 
ATOM     20  C   UNL     1       1.535   4.881  20.401  0.00  0.00    +0.000 A 
ATOM     21  C   UNL     1       2.207   5.136  19.200  0.00  0.00    +0.000 A 
ENDBRANCH  15  16
ENDBRANCH   1  15
TORSDOF 9
ENDMDL
MODEL 3
REMARK VINA RESULT:      -6.7      1.894      2.986
REMARK  Name = 
REMARK  9 active torsions:
REMARK  status: ('A' for Active; 'I' for Inactive)
REMARK    1  A    between atoms: N_1  and  CA_2
REMARK    2  A    between atoms: CA_2  and  C_3
REMARK    3  A    between atoms: CA_2  and  C_15
REMARK    4  A    between atoms: C_3  and  C_4
REMARK    5  A    between atoms: C_4  and  C_5
REMARK    6  A    between atoms: C_4  and  C_12
REMARK    7  A    between atoms: C_5  and  C_6
REMARK    8  A    between atoms: C_12  and  O_14
REMARK    9  A    between atoms: C_15  and  OXT_17
REMARK                            x       y       z     vdW  Elec       q    Type
REMARK                         _______ _______ _______ _____ _____    ______ ____
ROOT
ATOM      1  C   UNL     1       4.686   5.279  17.260  0.00  0.00    +0.000 C 
ENDROOT
BRANCH   1   2
ATOM      2  C   UNL     1       5.259   5.379  15.862  0.00  0.00    +0.000 C 
ATOM      3  O   UNL     1       5.673   4.424  15.222  0.00  0.00    +0.000 OA
BRANCH   2   4
ATOM      4  O   UNL     1       5.362   6.646  15.410  0.00  0.00    +0.000 OA
ATOM      5  H   UNL     1       6.213   6.880  15.004  0.00  0.00    +0.000 HD
ENDBRANCH   2   4
ENDBRANCH   1   2
BRANCH   1   6
ATOM      6  C   UNL     1       5.724   4.815  18.314  0.00  0.00    +0.000 C 
BRANCH   6   7
ATOM      7  CA  UNL     1       7.196   5.204  18.031  0.00  0.00    +0.000 C 
BRANCH   7   8
ATOM      8  N   UNL     1       8.082   4.120  17.563  0.00  0.00    +0.000 NA
ATOM      9  H1  UNL     1       7.827   3.844  16.605  0.00  0.00    +0.000 HD
ATOM     10  H2  UNL     1       7.859   3.262  18.076  0.00  0.00    +0.000 HD
ENDBRANCH   7   8
BRANCH   7  11
ATOM     11  C   UNL     1       7.834   5.820  19.311  0.00  0.00    +0.000 C 
ATOM     12  O   UNL     1       7.803   5.329  20.424  0.00  0.00    +0.000 OA
BRANCH  11  13
ATOM     13  OXT UNL     1       8.448   6.993  19.030  0.00  0.00    +0.000 OA
ATOM     14  HXT UNL     1       7.784   7.717  19.014  0.00  0.00    +0.000 HD
ENDBRANCH  11  13
ENDBRANCH   7  11
ENDBRANCH   6   7
ENDBRANCH   1   6
BRANCH   1  15
ATOM     15  C   UNL     1       3.397   4.425  17.259  0.00  0.00    +0.000 C 
BRANCH  15  16
ATOM     16  C   UNL     1       2.698   4.056  18.556  0.00  0.00    +0.000 A 
ATOM     17  C   UNL     1       2.148   5.019  19.412  0.00  0.00    +0.000 A 
ATOM     18  C   UNL     1       1.376   4.640  20.515  0.00  0.00    +0.000 A 
ATOM     19  C   UNL     1       1.126   3.295  20.778  0.00  0.00    +0.000 A 
ATOM     20  C   UNL     1       1.670   2.327  19.942  0.00  0.00    +0.000 A 
ATOM     21  C   UNL     1       2.452   2.704  18.845  0.00  0.00    +0.000 A 
ENDBRANCH  15  16
ENDBRANCH   1  15
TORSDOF 9
ENDMDL
MODEL 4
REMARK VINA RESULT:      -6.6      1.737      2.248
REMARK  Name = 
REMARK  9 active torsions:
REMARK  status: ('A' for Active; 'I' for Inactive)
REMARK    1  A    between atoms: N_1  and  CA_2
REMARK    2  A    between atoms: CA_2  and  C_3
REMARK    3  A    between atoms: CA_2  and  C_15
REMARK    4  A    between atoms: C_3  and  C_4
REMARK    5  A    between atoms: C_4  and  C_5
REMARK    6  A    between atoms: C_4  and  C_12
REMARK    7  A    between atoms: C_5  and  C_6
REMARK    8  A    between atoms: C_12  and  O_14
REMARK    9  A    between atoms: C_15  and  OXT_17
REMARK                            x       y       z     vdW  Elec       q    Type
REMARK                         _______ _______ _______ _____ _____    ______ ____
ROOT
ATOM      1  C   UNL     1       5.451   4.767  18.075  0.00  0.00    +0.000 C 
ENDROOT
BRANCH   1   2
ATOM      2  C   UNL     1       6.800   4.865  18.757  0.00  0.00    +0.000 C 
ATOM      3  O   UNL     1       6.994   5.453  19.810  0.00  0.00    +0.000 OA
BRANCH   2   4
ATOM      4  O   UNL     1       7.806   4.317  18.044  0.00  0.00    +0.000 OA
ATOM      5  H   UNL     1       8.075   4.808  17.251  0.00  0.00    +0.000 HD
ENDBRANCH   2   4
ENDBRANCH   1   2
BRANCH   1   6
ATOM      6  C   UNL     1       5.430   5.414  16.667  0.00  0.00    +0.000 C 
BRANCH   6   7
ATOM      7  CA  UNL     1       5.633   4.447  15.474  0.00  0.00    +0.000 C 
BRANCH   7   8
ATOM      8  N   UNL     1       5.851   3.027  15.813  0.00  0.00    +0.000 NA
ATOM      9  H1  UNL     1       5.526   2.837  16.771  0.00  0.00    +0.000 HD
ATOM     10  H2  UNL     1       6.856   2.858  15.916  0.00  0.00    +0.000 HD
ENDBRANCH   7   8
BRANCH   7  11
ATOM     11  C   UNL     1       6.838   4.920  14.611  0.00  0.00    +0.000 C 
ATOM     12  O   UNL     1       7.008   4.668  13.432  0.00  0.00    +0.000 OA
BRANCH  11  13
ATOM     13  OXT UNL     1       7.694   5.671  15.343  0.00  0.00    +0.000 OA
ATOM     14  HXT UNL     1       8.500   5.861  14.815  0.00  0.00    +0.000 HD
ENDBRANCH  11  13
ENDBRANCH   7  11
ENDBRANCH   6   7
ENDBRANCH   1   6
BRANCH   1  15
ATOM     15  C   UNL     1       4.334   5.297  19.004  0.00  0.00    +0.000 C 
BRANCH  15  16
ATOM     16  C   UNL     1       3.119   4.448  19.335  0.00  0.00    +0.000 A 
ATOM     17  C   UNL     1       2.484   4.502  20.583  0.00  0.00    +0.000 A 
ATOM     18  C   UNL     1       1.278   3.827  20.802  0.00  0.00    +0.000 A 
ATOM     19  C   UNL     1       0.677   3.096  19.780  0.00  0.00    +0.000 A 
ATOM     20  C   UNL     1       1.298   3.026  18.539  0.00  0.00    +0.000 A 
ATOM     21  C   UNL     1       2.510   3.691  18.321  0.00  0.00    +0.000 A 
ENDBRANCH  15  16
ENDBRANCH   1  15
TORSDOF 9
ENDMDL
MODEL 5
REMARK VINA RESULT:      -6.6      1.132      1.678
REMARK  Name = 
REMARK  9 active torsions:
REMARK  status: ('A' for Active; 'I' for Inactive)
REMARK    1  A    between atoms: N_1  and  CA_2
REMARK    2  A    between atoms: CA_2  and  C_3
REMARK    3  A    between atoms: CA_2  and  C_15
REMARK    4  A    between atoms: C_3  and  C_4
REMARK    5  A    between atoms: C_4  and  C_5
REMARK    6  A    between atoms: C_4  and  C_12
REMARK    7  A    between atoms: C_5  and  C_6
REMARK    8  A    between atoms: C_12  and  O_14
REMARK    9  A    between atoms: C_15  and  OXT_17
REMARK                            x       y       z     vdW  Elec       q    Type
REMARK                         _______ _______ _______ _____ _____    ______ ____
ROOT
ATOM      1  C   UNL     1       4.659   4.607  17.203  0.00  0.00    +0.000 C 
ENDROOT
BRANCH   1   2
ATOM      2  C   UNL     1       5.509   4.648  18.456  0.00  0.00    +0.000 C 
ATOM      3  O   UNL     1       5.948   5.674  18.952  0.00  0.00    +0.000 OA
BRANCH   2   4
ATOM      4  O   UNL     1       5.823   3.427  18.935  0.00  0.00    +0.000 OA
ATOM      5  H   UNL     1       6.351   3.417  19.750  0.00  0.00    +0.000 HD
ENDBRANCH   2   4
ENDBRANCH   1   2
BRANCH   1   6
ATOM      6  C   UNL     1       5.286   5.380  16.014  0.00  0.00    +0.000 C 
BRANCH   6   7
ATOM      7  CA  UNL     1       6.817   5.229  15.840  0.00  0.00    +0.000 C 
BRANCH   7   8
ATOM      8  N   UNL     1       7.638   6.399  16.211  0.00  0.00    +0.000 NA
ATOM      9  H1  UNL     1       7.046   7.237  16.283  0.00  0.00    +0.000 HD
ATOM     10  H2  UNL     1       8.234   6.653  15.418  0.00  0.00    +0.000 HD
ENDBRANCH   7   8
BRANCH   7  11
ATOM     11  C   UNL     1       7.147   4.866  14.363  0.00  0.00    +0.000 C 
ATOM     12  O   UNL     1       7.887   5.493  13.627  0.00  0.00    +0.000 OA
BRANCH  11  13
ATOM     13  OXT UNL     1       6.501   3.738  13.985  0.00  0.00    +0.000 OA
ATOM     14  HXT UNL     1       7.085   2.961  14.128  0.00  0.00    +0.000 HD
ENDBRANCH  11  13
ENDBRANCH   7  11
ENDBRANCH   6   7
ENDBRANCH   1   6
BRANCH   1  15
ATOM     15  C   UNL     1       3.210   5.044  17.515  0.00  0.00    +0.000 C 
BRANCH  15  16
ATOM     16  C   UNL     1       2.376   4.317  18.557  0.00  0.00    +0.000 A 
ATOM     17  C   UNL     1       2.133   4.852  19.828  0.00  0.00    +0.000 A 
ATOM     18  C   UNL     1       1.235   4.233  20.706  0.00  0.00    +0.000 A 
ATOM     19  C   UNL     1       0.555   3.078  20.327  0.00  0.00    +0.000 A 
ATOM     20  C   UNL     1       0.791   2.531  19.072  0.00  0.00    +0.000 A 
ATOM     21  C   UNL     1       1.697   3.142  18.198  0.00  0.00    +0.000 A 
ENDBRANCH  15  16
ENDBRANCH   1  15
TORSDOF 9
ENDMDL
MODEL 6
REMARK VINA RESULT:      -6.6      2.994      3.918
REMARK  Name = 
REMARK  9 active torsions:
REMARK  status: ('A' for Active; 'I' for Inactive)
REMARK    1  A    between atoms: N_1  and  CA_2
REMARK    2  A    between atoms: CA_2  and  C_3
REMARK    3  A    between atoms: CA_2  and  C_15
REMARK    4  A    between atoms: C_3  and  C_4
REMARK    5  A    between atoms: C_4  and  C_5
REMARK    6  A    between atoms: C_4  and  C_12
REMARK    7  A    between atoms: C_5  and  C_6
REMARK    8  A    between atoms: C_12  and  O_14
REMARK    9  A    between atoms: C_15  and  OXT_17
REMARK                            x       y       z     vdW  Elec       q    Type
REMARK                         _______ _______ _______ _____ _____    ______ ____
ROOT
ATOM      1  C   UNL     1       5.845   4.158  15.621  0.00  0.00    +0.000 C 
ENDROOT
BRANCH   1   2
ATOM      2  C   UNL     1       7.201   4.757  15.928  0.00  0.00    +0.000 C 
ATOM      3  O   UNL     1       7.699   5.681  15.303  0.00  0.00    +0.000 OA
BRANCH   2   4
ATOM      4  O   UNL     1       7.866   4.114  16.910  0.00  0.00    +0.000 OA
ATOM      5  H   UNL     1       8.644   3.606  16.628  0.00  0.00    +0.000 HD
ENDBRANCH   2   4
ENDBRANCH   1   2
BRANCH   1   6
ATOM      6  C   UNL     1       5.421   4.332  14.140  0.00  0.00    +0.000 C 
BRANCH   6   7
ATOM      7  CA  UNL     1       6.315   3.622  13.092  0.00  0.00    +0.000 C 
BRANCH   7   8
ATOM      8  N   UNL     1       7.284   4.473  12.374  0.00  0.00    +0.000 NA
ATOM      9  H1  UNL     1       8.047   3.898  11.993  0.00  0.00    +0.000 HD
ATOM     10  H2  UNL     1       7.796   5.043  13.054  0.00  0.00    +0.000 HD
ENDBRANCH   7   8
BRANCH   7  11
ATOM     11  C   UNL     1       5.423   2.916  12.030  0.00  0.00    +0.000 C 
ATOM     12  O   UNL     1       4.384   3.356  11.572  0.00  0.00    +0.000 OA
BRANCH  11  13
ATOM     13  OXT UNL     1       5.957   1.729  11.660  0.00  0.00    +0.000 OA
ATOM     14  HXT UNL     1       5.741   1.047  12.334  0.00  0.00    +0.000 HD
ENDBRANCH  11  13
ENDBRANCH   7  11
ENDBRANCH   6   7
ENDBRANCH   1   6
BRANCH   1  15
ATOM     15  C   UNL     1       4.784   4.673  16.621  0.00  0.00    +0.000 C 
BRANCH  15  16
ATOM     16  C   UNL     1       4.053   3.721  17.551  0.00  0.00    +0.000 A 
ATOM     17  C   UNL     1       4.535   3.401  18.827  0.00  0.00    +0.000 A 
ATOM     18  C   UNL     1       3.762   2.647  19.717  0.00  0.00    +0.000 A 
ATOM     19  C   UNL     1       2.490   2.209  19.357  0.00  0.00    +0.000 A 
ATOM     20  C   UNL     1       1.999   2.512  18.092  0.00  0.00    +0.000 A 
ATOM     21  C   UNL     1       2.776   3.256  17.197  0.00  0.00    +0.000 A 
ENDBRANCH  15  16
ENDBRANCH   1  15
TORSDOF 9
ENDMDL
MODEL 7
REMARK VINA RESULT:      -6.5      2.187      2.774
REMARK  Name = 
REMARK  9 active torsions:
REMARK  status: ('A' for Active; 'I' for Inactive)
REMARK    1  A    between atoms: N_1  and  CA_2
REMARK    2  A    between atoms: CA_2  and  C_3
REMARK    3  A    between atoms: CA_2  and  C_15
REMARK    4  A    between atoms: C_3  and  C_4
REMARK    5  A    between atoms: C_4  and  C_5
REMARK    6  A    between atoms: C_4  and  C_12
REMARK    7  A    between atoms: C_5  and  C_6
REMARK    8  A    between atoms: C_12  and  O_14
REMARK    9  A    between atoms: C_15  and  OXT_17
REMARK                            x       y       z     vdW  Elec       q    Type
REMARK                         _______ _______ _______ _____ _____    ______ ____
ROOT
ATOM      1  C   UNL     1       6.730   5.031  18.387  0.00  0.00    +0.000 C 
ENDROOT
BRANCH   1   2
ATOM      2  C   UNL     1       7.663   5.907  19.195  0.00  0.00    +0.000 C 
ATOM      3  O   UNL     1       8.213   6.907  18.758  0.00  0.00    +0.000 OA
BRANCH   2   4
ATOM      4  O   UNL     1       7.914   5.432  20.432  0.00  0.00    +0.000 OA
ATOM      5  H   UNL     1       7.240   5.627  21.103  0.00  0.00    +0.000 HD
ENDBRANCH   2   4
ENDBRANCH   1   2
BRANCH   1   6
ATOM      6  C   UNL     1       7.314   4.621  17.011  0.00  0.00    +0.000 C 
BRANCH   6   7
ATOM      7  CA  UNL     1       6.279   4.275  15.912  0.00  0.00    +0.000 C 
BRANCH   7   8
ATOM      8  N   UNL     1       5.745   2.899  15.925  0.00  0.00    +0.000 NA
ATOM      9  H1  UNL     1       6.486   2.234  16.188  0.00  0.00    +0.000 HD
ATOM     10  H2  UNL     1       5.557   2.604  14.963  0.00  0.00    +0.000 HD
ENDBRANCH   7   8
BRANCH   7  11
ATOM     11  C   UNL     1       6.896   4.532  14.506  0.00  0.00    +0.000 C 
ATOM     12  O   UNL     1       7.664   5.434  14.224  0.00  0.00    +0.000 OA
BRANCH  11  13
ATOM     13  OXT UNL     1       6.474   3.606  13.615  0.00  0.00    +0.000 OA
ATOM     14  HXT UNL     1       7.222   3.019  13.370  0.00  0.00    +0.000 HD
ENDBRANCH  11  13
ENDBRANCH   7  11
ENDBRANCH   6   7
ENDBRANCH   1   6
BRANCH   1  15
ATOM     15  C   UNL     1       5.329   5.678  18.285  0.00  0.00    +0.000 C 
BRANCH  15  16
ATOM     16  C   UNL     1       4.066   4.852  18.460  0.00  0.00    +0.000 A 
ATOM     17  C   UNL     1       2.865   5.173  17.816  0.00  0.00    +0.000 A 
ATOM     18  C   UNL     1       1.767   4.307  17.873  0.00  0.00    +0.000 A 
ATOM     19  C   UNL     1       1.851   3.100  18.563  0.00  0.00    +0.000 A 
ATOM     20  C   UNL     1       3.034   2.769  19.213  0.00  0.00    +0.000 A 
ATOM     21  C   UNL     1       4.129   3.640  19.167  0.00  0.00    +0.000 A 
ENDBRANCH  15  16
ENDBRANCH   1  15
TORSDOF 9
ENDMDL
MODEL 8
REMARK VINA RESULT:      -6.5      2.096      2.670
REMARK  Name = 
REMARK  9 active torsions:
REMARK  status: ('A' for Active; 'I' for Inactive)
REMARK    1  A    between atoms: N_1  and  CA_2
REMARK    2  A    between atoms: CA_2  and  C_3
REMARK    3  A    between atoms: CA_2  and  C_15
REMARK    4  A    between atoms: C_3  and  C_4
REMARK    5  A    between atoms: C_4  and  C_5
REMARK    6  A    between atoms: C_4  and  C_12
REMARK    7  A    between atoms: C_5  and  C_6
REMARK    8  A    between atoms: C_12  and  O_14
REMARK    9  A    between atoms: C_15  and  OXT_17
REMARK                            x       y       z     vdW  Elec       q    Type
REMARK                         _______ _______ _______ _____ _____    ______ ____
ROOT
ATOM      1  C   UNL     1       4.542   4.608  16.945  0.00  0.00    +0.000 C 
ENDROOT
BRANCH   1   2
ATOM      2  C   UNL     1       5.443   4.390  15.747  0.00  0.00    +0.000 C 
ATOM      3  O   UNL     1       5.564   5.186  14.828  0.00  0.00    +0.000 OA
BRANCH   2   4
ATOM      4  O   UNL     1       6.040   3.181  15.733  0.00  0.00    +0.000 OA
ATOM      5  H   UNL     1       6.390   2.895  14.874  0.00  0.00    +0.000 HD
ENDBRANCH   2   4
ENDBRANCH   1   2
BRANCH   1   6
ATOM      6  C   UNL     1       5.119   5.621  17.967  0.00  0.00    +0.000 C 
BRANCH   6   7
ATOM      7  CA  UNL     1       6.604   5.417  18.357  0.00  0.00    +0.000 C 
BRANCH   7   8
ATOM      8  N   UNL     1       6.879   5.180  19.788  0.00  0.00    +0.000 NA
ATOM      9  H1  UNL     1       6.184   5.669  20.368  0.00  0.00    +0.000 HD
ATOM     10  H2  UNL     1       7.734   5.679  20.052  0.00  0.00    +0.000 HD
ENDBRANCH   7   8
BRANCH   7  11
ATOM     11  C   UNL     1       7.441   6.652  17.911  0.00  0.00    +0.000 C 
ATOM     12  O   UNL     1       7.336   7.231  16.845  0.00  0.00    +0.000 OA
BRANCH  11  13
ATOM     13  OXT UNL     1       8.314   7.020  18.876  0.00  0.00    +0.000 OA
ATOM     14  HXT UNL     1       9.085   6.411  18.873  0.00  0.00    +0.000 HD
ENDBRANCH  11  13
ENDBRANCH   7  11
ENDBRANCH   6   7
ENDBRANCH   1   6
BRANCH   1  15
ATOM     15  C   UNL     1       4.151   3.255  17.584  0.00  0.00    +0.000 C 
BRANCH  15  16
ATOM     16  C   UNL     1       3.186   3.188  18.754  0.00  0.00    +0.000 A 
ATOM     17  C   UNL     1       3.577   2.749  20.025  0.00  0.00    +0.000 A 
ATOM     18  C   UNL     1       2.707   2.847  21.117  0.00  0.00    +0.000 A 
ATOM     19  C   UNL     1       1.436   3.396  20.964  0.00  0.00    +0.000 A 
ATOM     20  C   UNL     1       1.030   3.830  19.708  0.00  0.00    +0.000 A 
ATOM     21  C   UNL     1       1.894   3.722  18.613  0.00  0.00    +0.000 A 
ENDBRANCH  15  16
ENDBRANCH   1  15
TORSDOF 9
ENDMDL
MODEL 9
REMARK VINA RESULT:      -6.5      1.588      3.601
REMARK  Name = 
REMARK  9 active torsions:
REMARK  status: ('A' for Active; 'I' for Inactive)
REMARK    1  A    between atoms: N_1  and  CA_2
REMARK    2  A    between atoms: CA_2  and  C_3
REMARK    3  A    between atoms: CA_2  and  C_15
REMARK    4  A    between atoms: C_3  and  C_4
REMARK    5  A    between atoms: C_4  and  C_5
REMARK    6  A    between atoms: C_4  and  C_12
REMARK    7  A    between atoms: C_5  and  C_6
REMARK    8  A    between atoms: C_12  and  O_14
REMARK    9  A    between atoms: C_15  and  OXT_17
REMARK                            x       y       z     vdW  Elec       q    Type
REMARK                         _______ _______ _______ _____ _____    ______ ____
ROOT
ATOM      1  C   UNL     1       6.237   4.916  15.894  0.00  0.00    +0.000 C 
ENDROOT
BRANCH   1   2
ATOM      2  C   UNL     1       6.840   4.793  14.510  0.00  0.00    +0.000 C 
ATOM      3  O   UNL     1       6.474   3.981  13.674  0.00  0.00    +0.000 OA
BRANCH   2   4
ATOM      4  O   UNL     1       7.895   5.608  14.307  0.00  0.00    +0.000 OA
ATOM      5  H   UNL     1       7.813   6.503  14.674  0.00  0.00    +0.000 HD
ENDBRANCH   2   4
ENDBRANCH   1   2
BRANCH   1   6
ATOM      6  C   UNL     1       7.301   5.012  17.017  0.00  0.00    +0.000 C 
BRANCH   6   7
ATOM      7  CA  UNL     1       7.028   6.065  18.120  0.00  0.00    +0.000 C 
BRANCH   7   8
ATOM      8  N   UNL     1       8.039   7.128  18.276  0.00  0.00    +0.000 NA
ATOM      9  H1  UNL     1       8.860   6.925  17.690  0.00  0.00    +0.000 HD
ATOM     10  H2  UNL     1       8.452   7.062  19.211  0.00  0.00    +0.000 HD
ENDBRANCH   7   8
BRANCH   7  11
ATOM     11  C   UNL     1       6.866   5.356  19.497  0.00  0.00    +0.000 C 
ATOM     12  O   UNL     1       5.916   4.675  19.836  0.00  0.00    +0.000 OA
BRANCH  11  13
ATOM     13  OXT UNL     1       7.939   5.587  20.289  0.00  0.00    +0.000 OA
ATOM     14  HXT UNL     1       7.730   5.321  21.211  0.00  0.00    +0.000 HD
ENDBRANCH  11  13
ENDBRANCH   7  11
ENDBRANCH   6   7
ENDBRANCH   1   6
BRANCH   1  15
ATOM     15  C   UNL     1       5.199   3.796  16.135  0.00  0.00    +0.000 C 
BRANCH  15  16
ATOM     16  C   UNL     1       4.008   4.012  17.053  0.00  0.00    +0.000 A 
ATOM     17  C   UNL     1       3.567   5.290  17.421  0.00  0.00    +0.000 A 
ATOM     18  C   UNL     1       2.377   5.458  18.138  0.00  0.00    +0.000 A 
ATOM     19  C   UNL     1       1.599   4.358  18.489  0.00  0.00    +0.000 A 
ATOM     20  C   UNL     1       2.025   3.083  18.137  0.00  0.00    +0.000 A 
ATOM     21  C   UNL     1       3.221   2.912  17.431  0.00  0.00    +0.000 A 
ENDBRANCH  15  16
ENDBRANCH   1  15
TORSDOF 9
ENDMDL
