MODEL 1
REMARK VINA RESULT:      -8.0      0.000      0.000
REMARK  Name = 
REMARK  8 active torsions:
REMARK  status: ('A' for Active; 'I' for Inactive)
REMARK    1  A    between atoms: C_2  and  O_3
REMARK    2  A    between atoms: C_2  and  C_20
REMARK    3  A    between atoms: O_3  and  C_4
REMARK    4  A    between atoms: C_4  and  C_5
REMARK    5  A    between atoms: N_9  and  C_10
REMARK    6  A    between atoms: C_10  and  C_11
REMARK    7  A    between atoms: C_11  and  C_12
REMARK    8  A    between atoms: C_12  and  C_13
REMARK                            x       y       z     vdW  Elec       q    Type
REMARK                         _______ _______ _______ _____ _____    ______ ____
ROOT
ATOM      1  C   UNL     1       5.585   5.798  17.308  0.00  0.00    +0.000 C 
ATOM      2  C   UNL     1       6.189   4.789  18.291  0.00  0.00    +0.000 C 
ATOM      3  C   UNL     1       7.010   5.482  19.376  0.00  0.00    +0.000 C 
ATOM      4  C   UNL     1       7.999   6.502  18.796  0.00  0.00    +0.000 C 
ATOM      5  N   UNL     1       7.332   7.443  17.879  0.00  0.00    +0.000 NA
ATOM      6  C   UNL     1       6.693   6.711  16.773  0.00  0.00    +0.000 C 
ENDROOT
BRANCH   1   7
ATOM      7  C   UNL     1       4.451   6.642  17.926  0.00  0.00    +0.000 C 
BRANCH   7   8
ATOM      8  O   UNL     1       4.055   6.118  19.205  0.00  0.00    +0.000 OA
BRANCH   8  10
ATOM      9  O   UNL     1       2.082   7.259  19.431  0.00  0.00    +0.000 OA
ATOM     10  C   UNL     1       2.743   6.233  19.506  0.00  0.00    +0.000 C 
BRANCH  10  11
ATOM     11  C   UNL     1       2.145   4.929  19.885  0.00  0.00    +0.000 A 
ATOM     12  C   UNL     1       2.313   4.551  21.231  0.00  0.00    +0.000 A 
ATOM     13  C   UNL     1       1.881   3.305  21.687  0.00  0.00    +0.000 A 
ATOM     14  C   UNL     1       1.269   2.421  20.805  0.00  0.00    +0.000 A 
ATOM     15  C   UNL     1       1.077   2.791  19.473  0.00  0.00    +0.000 A 
ATOM     16  C   UNL     1       1.515   4.040  19.004  0.00  0.00    +0.000 A 
ATOM     17 CL   UNL     1       1.288   4.336  17.316  0.00  0.00    +0.000 Cl
ENDBRANCH  10  11
ENDBRANCH   8  10
ENDBRANCH   7   8
ENDBRANCH   1   7
BRANCH   5  18
ATOM     18  C   UNL     1       8.275   8.470  17.407  0.00  0.00    +0.000 C 
BRANCH  18  19
ATOM     19  C   UNL     1       8.164   9.812  18.145  0.00  0.00    +0.000 C 
BRANCH  19  20
ATOM     20  C   UNL     1       9.135   9.940  19.324  0.00  0.00    +0.000 C 
BRANCH  20  21
ATOM     21  C   UNL     1      10.156  11.014  19.040  0.00  0.00    +0.000 A 
ATOM     22  C   UNL     1      10.903  11.576  20.086  0.00  0.00    +0.000 A 
ATOM     23  C   UNL     1      11.781  12.633  19.837  0.00  0.00    +0.000 A 
ATOM     24  C   UNL     1      11.915  13.136  18.546  0.00  0.00    +0.000 A 
ATOM     25  C   UNL     1      11.188  12.575  17.497  0.00  0.00    +0.000 A 
ATOM     26  C   UNL     1      10.309  11.519  17.744  0.00  0.00    +0.000 A 
ENDBRANCH  20  21
ENDBRANCH  19  20
ENDBRANCH  18  19
ENDBRANCH   5  18
TORSDOF 8
ENDMDL
MODEL 2
REMARK VINA RESULT:      -7.8      3.735      6.357
REMARK  Name = 
REMARK  8 active torsions:
REMARK  status: ('A' for Active; 'I' for Inactive)
REMARK    1  A    between atoms: C_2  and  O_3
REMARK    2  A    between atoms: C_2  and  C_20
REMARK    3  A    between atoms: O_3  and  C_4
REMARK    4  A    between atoms: C_4  and  C_5
REMARK    5  A    between atoms: N_9  and  C_10
REMARK    6  A    between atoms: C_10  and  C_11
REMARK    7  A    between atoms: C_11  and  C_12
REMARK    8  A    between atoms: C_12  and  C_13
REMARK                            x       y       z     vdW  Elec       q    Type
REMARK                         _______ _______ _______ _____ _____    ______ ____
ROOT
ATOM      1  C   UNL     1       1.034   3.577  20.203  0.00  0.00    +0.000 C 
ATOM      2  C   UNL     1       1.354   2.638  21.373  0.00  0.00    +0.000 C 
ATOM      3  C   UNL     1       2.859   2.515  21.601  0.00  0.00    +0.000 C 
ATOM      4  C   UNL     1       3.622   2.225  20.303  0.00  0.00    +0.000 C 
ATOM      5  N   UNL     1       3.271   3.183  19.240  0.00  0.00    +0.000 NA
ATOM      6  C   UNL     1       1.825   3.134  18.968  0.00  0.00    +0.000 C 
ENDROOT
BRANCH   1   7
ATOM      7  C   UNL     1       1.324   5.058  20.519  0.00  0.00    +0.000 C 
BRANCH   7   8
ATOM      8  O   UNL     1       1.499   5.820  19.312  0.00  0.00    +0.000 OA
BRANCH   8  10
ATOM      9  O   UNL     1       3.689   6.482  19.413  0.00  0.00    +0.000 OA
ATOM     10  C   UNL     1       2.495   6.732  19.333  0.00  0.00    +0.000 C 
BRANCH  10  11
ATOM     11  C   UNL     1       1.983   8.116  19.174  0.00  0.00    +0.000 A 
ATOM     12  C   UNL     1       2.303   8.747  17.956  0.00  0.00    +0.000 A 
ATOM     13  C   UNL     1       1.962  10.081  17.727  0.00  0.00    +0.000 A 
ATOM     14  C   UNL     1       1.290  10.801  18.708  0.00  0.00    +0.000 A 
ATOM     15  C   UNL     1       0.947  10.182  19.911  0.00  0.00    +0.000 A 
ATOM     16  C   UNL     1       1.293   8.843  20.153  0.00  0.00    +0.000 A 
ATOM     17 CL   UNL     1       0.881   8.225  21.715  0.00  0.00    +0.000 Cl
ENDBRANCH  10  11
ENDBRANCH   8  10
ENDBRANCH   7   8
ENDBRANCH   1   7
BRANCH   5  18
ATOM     18  C   UNL     1       4.082   2.948  18.034  0.00  0.00    +0.000 C 
BRANCH  18  19
ATOM     19  C   UNL     1       3.823   3.948  16.898  0.00  0.00    +0.000 C 
BRANCH  19  20
ATOM     20  C   UNL     1       5.058   4.213  16.029  0.00  0.00    +0.000 C 
BRANCH  20  21
ATOM     21  C   UNL     1       6.020   5.117  16.760  0.00  0.00    +0.000 A 
ATOM     22  C   UNL     1       7.006   4.574  17.597  0.00  0.00    +0.000 A 
ATOM     23  C   UNL     1       7.837   5.411  18.343  0.00  0.00    +0.000 A 
ATOM     24  C   UNL     1       7.687   6.793  18.262  0.00  0.00    +0.000 A 
ATOM     25  C   UNL     1       6.721   7.343  17.422  0.00  0.00    +0.000 A 
ATOM     26  C   UNL     1       5.888   6.508  16.675  0.00  0.00    +0.000 A 
ENDBRANCH  20  21
ENDBRANCH  19  20
ENDBRANCH  18  19
ENDBRANCH   5  18
TORSDOF 8
ENDMDL
MODEL 3
REMARK VINA RESULT:      -7.8      0.743      1.148
REMARK  Name = 
REMARK  8 active torsions:
REMARK  status: ('A' for Active; 'I' for Inactive)
REMARK    1  A    between atoms: C_2  and  O_3
REMARK    2  A    between atoms: C_2  and  C_20
REMARK    3  A    between atoms: O_3  and  C_4
REMARK    4  A    between atoms: C_4  and  C_5
REMARK    5  A    between atoms: N_9  and  C_10
REMARK    6  A    between atoms: C_10  and  C_11
REMARK    7  A    between atoms: C_11  and  C_12
REMARK    8  A    between atoms: C_12  and  C_13
REMARK                            x       y       z     vdW  Elec       q    Type
REMARK                         _______ _______ _______ _____ _____    ______ ____
ROOT
ATOM      1  C   UNL     1       5.164   5.742  17.035  0.00  0.00    +0.000 C 
ATOM      2  C   UNL     1       5.506   4.667  18.074  0.00  0.00    +0.000 C 
ATOM      3  C   UNL     1       6.291   5.249  19.248  0.00  0.00    +0.000 C 
ATOM      4  C   UNL     1       7.472   6.113  18.787  0.00  0.00    +0.000 C 
ATOM      5  N   UNL     1       7.052   7.129  17.806  0.00  0.00    +0.000 NA
ATOM      6  C   UNL     1       6.443   6.484  16.632  0.00  0.00    +0.000 C 
ENDROOT
BRANCH   1   7
ATOM      7  C   UNL     1       4.099   6.743  17.528  0.00  0.00    +0.000 C 
BRANCH   7   8
ATOM      8  O   UNL     1       2.873   6.072  17.862  0.00  0.00    +0.000 OA
BRANCH   8  10
ATOM      9  O   UNL     1       2.359   7.219  19.777  0.00  0.00    +0.000 OA
ATOM     10  C   UNL     1       2.479   6.176  19.150  0.00  0.00    +0.000 C 
BRANCH  10  11
ATOM     11  C   UNL     1       2.128   4.856  19.731  0.00  0.00    +0.000 A 
ATOM     12  C   UNL     1       2.255   4.754  21.129  0.00  0.00    +0.000 A 
ATOM     13  C   UNL     1       2.048   3.537  21.782  0.00  0.00    +0.000 A 
ATOM     14  C   UNL     1       1.704   2.408  21.047  0.00  0.00    +0.000 A 
ATOM     15  C   UNL     1       1.554   2.500  19.663  0.00  0.00    +0.000 A 
ATOM     16  C   UNL     1       1.768   3.718  18.997  0.00  0.00    +0.000 A 
ATOM     17 CL   UNL     1       1.629   3.672  17.274  0.00  0.00    +0.000 Cl
ENDBRANCH  10  11
ENDBRANCH   8  10
ENDBRANCH   7   8
ENDBRANCH   1   7
BRANCH   5  18
ATOM     18  C   UNL     1       8.177   8.008  17.448  0.00  0.00    +0.000 C 
BRANCH  18  19
ATOM     19  C   UNL     1       8.090   9.418  18.051  0.00  0.00    +0.000 C 
BRANCH  19  20
ATOM     20  C   UNL     1       9.092   9.657  19.186  0.00  0.00    +0.000 C 
BRANCH  20  21
ATOM     21  C   UNL     1       9.664  11.051  19.086  0.00  0.00    +0.000 A 
ATOM     22  C   UNL     1      10.302  11.472  17.910  0.00  0.00    +0.000 A 
ATOM     23  C   UNL     1      10.909  12.728  17.849  0.00  0.00    +0.000 A 
ATOM     24  C   UNL     1      10.888  13.566  18.960  0.00  0.00    +0.000 A 
ATOM     25  C   UNL     1      10.244  13.162  20.128  0.00  0.00    +0.000 A 
ATOM     26  C   UNL     1       9.636  11.907  20.192  0.00  0.00    +0.000 A 
ENDBRANCH  20  21
ENDBRANCH  19  20
ENDBRANCH  18  19
ENDBRANCH   5  18
TORSDOF 8
ENDMDL
MODEL 4
REMARK VINA RESULT:      -7.7      3.551      6.217
REMARK  Name = 
REMARK  8 active torsions:
REMARK  status: ('A' for Active; 'I' for Inactive)
REMARK    1  A    between atoms: C_2  and  O_3
REMARK    2  A    between atoms: C_2  and  C_20
REMARK    3  A    between atoms: O_3  and  C_4
REMARK    4  A    between atoms: C_4  and  C_5
REMARK    5  A    between atoms: N_9  and  C_10
REMARK    6  A    between atoms: C_10  and  C_11
REMARK    7  A    between atoms: C_11  and  C_12
REMARK    8  A    between atoms: C_12  and  C_13
REMARK                            x       y       z     vdW  Elec       q    Type
REMARK                         _______ _______ _______ _____ _____    ______ ____
ROOT
ATOM      1  C   UNL     1       1.621   3.688  20.705  0.00  0.00    +0.000 C 
ATOM      2  C   UNL     1       2.319   2.529  21.425  0.00  0.00    +0.000 C 
ATOM      3  C   UNL     1       3.731   2.301  20.889  0.00  0.00    +0.000 C 
ATOM      4  C   UNL     1       3.767   2.236  19.357  0.00  0.00    +0.000 C 
ATOM      5  N   UNL     1       3.092   3.395  18.748  0.00  0.00    +0.000 NA
ATOM      6  C   UNL     1       1.691   3.460  19.192  0.00  0.00    +0.000 C 
ENDROOT
BRANCH   1   7
ATOM      7  C   UNL     1       2.210   5.067  21.065  0.00  0.00    +0.000 C 
BRANCH   7   8
ATOM      8  O   UNL     1       1.585   6.113  20.302  0.00  0.00    +0.000 OA
BRANCH   8  10
ATOM      9  O   UNL     1       3.531   6.638  19.216  0.00  0.00    +0.000 OA
ATOM     10  C   UNL     1       2.423   6.937  19.637  0.00  0.00    +0.000 C 
BRANCH  10  11
ATOM     11  C   UNL     1       1.816   8.270  19.397  0.00  0.00    +0.000 A 
ATOM     12  C   UNL     1       1.999   8.798  18.105  0.00  0.00    +0.000 A 
ATOM     13  C   UNL     1       1.559  10.084  17.786  0.00  0.00    +0.000 A 
ATOM     14  C   UNL     1       0.925  10.857  18.752  0.00  0.00    +0.000 A 
ATOM     15  C   UNL     1       0.718  10.338  20.031  0.00  0.00    +0.000 A 
ATOM     16  C   UNL     1       1.163   9.048  20.363  0.00  0.00    +0.000 A 
ATOM     17 CL   UNL     1       0.916   8.561  22.003  0.00  0.00    +0.000 Cl
ENDBRANCH  10  11
ENDBRANCH   8  10
ENDBRANCH   7   8
ENDBRANCH   1   7
BRANCH   5  18
ATOM     18  C   UNL     1       3.220   3.364  17.281  0.00  0.00    +0.000 C 
BRANCH  18  19
ATOM     19  C   UNL     1       4.052   4.516  16.698  0.00  0.00    +0.000 C 
BRANCH  19  20
ATOM     20  C   UNL     1       5.540   4.178  16.551  0.00  0.00    +0.000 C 
BRANCH  20  21
ATOM     21  C   UNL     1       6.378   5.210  17.265  0.00  0.00    +0.000 A 
ATOM     22  C   UNL     1       6.589   6.473  16.691  0.00  0.00    +0.000 A 
ATOM     23  C   UNL     1       7.437   7.394  17.307  0.00  0.00    +0.000 A 
ATOM     24  C   UNL     1       8.082   7.061  18.495  0.00  0.00    +0.000 A 
ATOM     25  C   UNL     1       7.868   5.815  19.081  0.00  0.00    +0.000 A 
ATOM     26  C   UNL     1       7.020   4.891  18.466  0.00  0.00    +0.000 A 
ENDBRANCH  20  21
ENDBRANCH  19  20
ENDBRANCH  18  19
ENDBRANCH   5  18
TORSDOF 8
ENDMDL
MODEL 5
REMARK VINA RESULT:      -7.6      3.987      6.129
REMARK  Name = 
REMARK  8 active torsions:
REMARK  status: ('A' for Active; 'I' for Inactive)
REMARK    1  A    between atoms: C_2  and  O_3
REMARK    2  A    between atoms: C_2  and  C_20
REMARK    3  A    between atoms: O_3  and  C_4
REMARK    4  A    between atoms: C_4  and  C_5
REMARK    5  A    between atoms: N_9  and  C_10
REMARK    6  A    between atoms: C_10  and  C_11
REMARK    7  A    between atoms: C_11  and  C_12
REMARK    8  A    between atoms: C_12  and  C_13
REMARK                            x       y       z     vdW  Elec       q    Type
REMARK                         _______ _______ _______ _____ _____    ______ ____
ROOT
ATOM      1  C   UNL     1       6.064   4.456  16.184  0.00  0.00    +0.000 C 
ATOM      2  C   UNL     1       7.442   5.071  16.458  0.00  0.00    +0.000 C 
ATOM      3  C   UNL     1       7.369   6.166  17.520  0.00  0.00    +0.000 C 
ATOM      4  C   UNL     1       6.247   7.173  17.242  0.00  0.00    +0.000 C 
ATOM      5  N   UNL     1       4.957   6.500  17.010  0.00  0.00    +0.000 NA
ATOM      6  C   UNL     1       5.063   5.573  15.871  0.00  0.00    +0.000 C 
ENDROOT
BRANCH   1   7
ATOM      7  C   UNL     1       5.546   3.588  17.350  0.00  0.00    +0.000 C 
BRANCH   7   8
ATOM      8  O   UNL     1       4.130   3.369  17.242  0.00  0.00    +0.000 OA
BRANCH   8  10
ATOM      9  O   UNL     1       3.811   1.186  17.858  0.00  0.00    +0.000 OA
ATOM     10  C   UNL     1       3.628   2.384  18.018  0.00  0.00    +0.000 C 
BRANCH  10  11
ATOM     11  C   UNL     1       2.859   2.922  19.168  0.00  0.00    +0.000 A 
ATOM     12  C   UNL     1       3.181   2.374  20.425  0.00  0.00    +0.000 A 
ATOM     13  C   UNL     1       2.463   2.728  21.568  0.00  0.00    +0.000 A 
ATOM     14  C   UNL     1       1.416   3.639  21.473  0.00  0.00    +0.000 A 
ATOM     15  C   UNL     1       1.100   4.206  20.237  0.00  0.00    +0.000 A 
ATOM     16  C   UNL     1       1.813   3.851  19.081  0.00  0.00    +0.000 A 
ATOM     17 CL   UNL     1       1.264   4.565  17.605  0.00  0.00    +0.000 Cl
ENDBRANCH  10  11
ENDBRANCH   8  10
ENDBRANCH   7   8
ENDBRANCH   1   7
BRANCH   5  18
ATOM     18  C   UNL     1       3.876   7.484  16.839  0.00  0.00    +0.000 C 
BRANCH  18  19
ATOM     19  C   UNL     1       2.940   7.607  18.050  0.00  0.00    +0.000 C 
BRANCH  19  20
ATOM     20  C   UNL     1       1.909   8.733  17.910  0.00  0.00    +0.000 C 
BRANCH  20  21
ATOM     21  C   UNL     1       1.275   9.022  19.249  0.00  0.00    +0.000 A 
ATOM     22  C   UNL     1       1.571   8.221  20.362  0.00  0.00    +0.000 A 
ATOM     23  C   UNL     1       0.916   8.432  21.576  0.00  0.00    +0.000 A 
ATOM     24  C   UNL     1      -0.038   9.439  21.687  0.00  0.00    +0.000 A 
ATOM     25  C   UNL     1      -0.330  10.250  20.591  0.00  0.00    +0.000 A 
ATOM     26  C   UNL     1       0.323  10.041  19.375  0.00  0.00    +0.000 A 
ENDBRANCH  20  21
ENDBRANCH  19  20
ENDBRANCH  18  19
ENDBRANCH   5  18
TORSDOF 8
ENDMDL
MODEL 6
REMARK VINA RESULT:      -7.6      3.570      6.060
REMARK  Name = 
REMARK  8 active torsions:
REMARK  status: ('A' for Active; 'I' for Inactive)
REMARK    1  A    between atoms: C_2  and  O_3
REMARK    2  A    between atoms: C_2  and  C_20
REMARK    3  A    between atoms: O_3  and  C_4
REMARK    4  A    between atoms: C_4  and  C_5
REMARK    5  A    between atoms: N_9  and  C_10
REMARK    6  A    between atoms: C_10  and  C_11
REMARK    7  A    between atoms: C_11  and  C_12
REMARK    8  A    between atoms: C_12  and  C_13
REMARK                            x       y       z     vdW  Elec       q    Type
REMARK                         _______ _______ _______ _____ _____    ______ ____
ROOT
ATOM      1  C   UNL     1       1.651   5.304  18.906  0.00  0.00    +0.000 C 
ATOM      2  C   UNL     1       1.407   4.504  20.191  0.00  0.00    +0.000 C 
ATOM      3  C   UNL     1       2.695   3.874  20.715  0.00  0.00    +0.000 C 
ATOM      4  C   UNL     1       3.467   3.129  19.618  0.00  0.00    +0.000 C 
ATOM      5  N   UNL     1       3.674   3.976  18.430  0.00  0.00    +0.000 NA
ATOM      6  C   UNL     1       2.379   4.420  17.889  0.00  0.00    +0.000 C 
ENDROOT
BRANCH   1   7
ATOM      7  C   UNL     1       2.443   6.606  19.144  0.00  0.00    +0.000 C 
BRANCH   7   8
ATOM      8  O   UNL     1       1.825   7.410  20.163  0.00  0.00    +0.000 OA
BRANCH   8  10
ATOM      9  O   UNL     1       1.738   9.184  18.718  0.00  0.00    +0.000 OA
ATOM     10  C   UNL     1       1.498   8.669  19.801  0.00  0.00    +0.000 C 
BRANCH  10  11
ATOM     11  C   UNL     1       0.731   9.370  20.860  0.00  0.00    +0.000 A 
ATOM     12  C   UNL     1       1.018   8.975  22.181  0.00  0.00    +0.000 A 
ATOM     13  C   UNL     1       0.295   9.491  23.258  0.00  0.00    +0.000 A 
ATOM     14  C   UNL     1      -0.721  10.413  23.030  0.00  0.00    +0.000 A 
ATOM     15  C   UNL     1      -1.001  10.829  21.728  0.00  0.00    +0.000 A 
ATOM     16  C   UNL     1      -0.284  10.311  20.638  0.00  0.00    +0.000 A 
ATOM     17 CL   UNL     1      -0.789  10.849  19.074  0.00  0.00    +0.000 Cl
ENDBRANCH  10  11
ENDBRANCH   8  10
ENDBRANCH   7   8
ENDBRANCH   1   7
BRANCH   5  18
ATOM     18  C   UNL     1       4.497   3.279  17.428  0.00  0.00    +0.000 C 
BRANCH  18  19
ATOM     19  C   UNL     1       4.866   4.138  16.210  0.00  0.00    +0.000 C 
BRANCH  19  20
ATOM     20  C   UNL     1       6.378   4.279  16.000  0.00  0.00    +0.000 C 
BRANCH  20  21
ATOM     21  C   UNL     1       6.947   5.267  16.988  0.00  0.00    +0.000 A 
ATOM     22  C   UNL     1       7.004   6.633  16.672  0.00  0.00    +0.000 A 
ATOM     23  C   UNL     1       7.613   7.533  17.548  0.00  0.00    +0.000 A 
ATOM     24  C   UNL     1       8.171   7.078  18.739  0.00  0.00    +0.000 A 
ATOM     25  C   UNL     1       8.106   5.725  19.069  0.00  0.00    +0.000 A 
ATOM     26  C   UNL     1       7.498   4.822  18.195  0.00  0.00    +0.000 A 
ENDBRANCH  20  21
ENDBRANCH  19  20
ENDBRANCH  18  19
ENDBRANCH   5  18
TORSDOF 8
ENDMDL
MODEL 7
REMARK VINA RESULT:      -7.6      1.730      2.620
REMARK  Name = 
REMARK  8 active torsions:
REMARK  status: ('A' for Active; 'I' for Inactive)
REMARK    1  A    between atoms: C_2  and  O_3
REMARK    2  A    between atoms: C_2  and  C_20
REMARK    3  A    between atoms: O_3  and  C_4
REMARK    4  A    between atoms: C_4  and  C_5
REMARK    5  A    between atoms: N_9  and  C_10
REMARK    6  A    between atoms: C_10  and  C_11
REMARK    7  A    between atoms: C_11  and  C_12
REMARK    8  A    between atoms: C_12  and  C_13
REMARK                            x       y       z     vdW  Elec       q    Type
REMARK                         _______ _______ _______ _____ _____    ______ ____
ROOT
ATOM      1  C   UNL     1       4.527   5.224  16.676  0.00  0.00    +0.000 C 
ATOM      2  C   UNL     1       5.293   5.067  15.358  0.00  0.00    +0.000 C 
ATOM      3  C   UNL     1       6.726   4.594  15.592  0.00  0.00    +0.000 C 
ATOM      4  C   UNL     1       7.442   5.418  16.670  0.00  0.00    +0.000 C 
ATOM      5  N   UNL     1       6.646   5.501  17.907  0.00  0.00    +0.000 NA
ATOM      6  C   UNL     1       5.335   6.109  17.630  0.00  0.00    +0.000 C 
ENDROOT
BRANCH   1   7
ATOM      7  C   UNL     1       4.199   3.875  17.350  0.00  0.00    +0.000 C 
BRANCH   7   8
ATOM      8  O   UNL     1       2.909   3.392  16.940  0.00  0.00    +0.000 OA
BRANCH   8  10
ATOM      9  O   UNL     1       0.852   4.394  17.054  0.00  0.00    +0.000 OA
ATOM     10  C   UNL     1       1.849   3.926  17.586  0.00  0.00    +0.000 C 
BRANCH  10  11
ATOM     11  C   UNL     1       1.990   3.825  19.060  0.00  0.00    +0.000 A 
ATOM     12  C   UNL     1       1.809   2.538  19.601  0.00  0.00    +0.000 A 
ATOM     13  C   UNL     1       1.820   2.331  20.981  0.00  0.00    +0.000 A 
ATOM     14  C   UNL     1       2.019   3.406  21.840  0.00  0.00    +0.000 A 
ATOM     15  C   UNL     1       2.221   4.684  21.316  0.00  0.00    +0.000 A 
ATOM     16  C   UNL     1       2.204   4.903  19.930  0.00  0.00    +0.000 A 
ATOM     17 CL   UNL     1       2.385   6.545  19.420  0.00  0.00    +0.000 Cl
ENDBRANCH  10  11
ENDBRANCH   8  10
ENDBRANCH   7   8
ENDBRANCH   1   7
BRANCH   5  18
ATOM     18  C   UNL     1       7.389   6.213  18.961  0.00  0.00    +0.000 C 
BRANCH  18  19
ATOM     19  C   UNL     1       8.380   7.260  18.433  0.00  0.00    +0.000 C 
BRANCH  19  20
ATOM     20  C   UNL     1       7.699   8.473  17.790  0.00  0.00    +0.000 C 
BRANCH  20  21
ATOM     21  C   UNL     1       8.419   9.740  18.183  0.00  0.00    +0.000 A 
ATOM     22  C   UNL     1       9.306   9.742  19.271  0.00  0.00    +0.000 A 
ATOM     23  C   UNL     1       9.902  10.933  19.691  0.00  0.00    +0.000 A 
ATOM     24  C   UNL     1       9.615  12.125  19.032  0.00  0.00    +0.000 A 
ATOM     25  C   UNL     1       8.747  12.131  17.942  0.00  0.00    +0.000 A 
ATOM     26  C   UNL     1       8.149  10.942  17.520  0.00  0.00    +0.000 A 
ENDBRANCH  20  21
ENDBRANCH  19  20
ENDBRANCH  18  19
ENDBRANCH   5  18
TORSDOF 8
ENDMDL
MODEL 8
REMARK VINA RESULT:      -7.5      4.873      6.361
REMARK  Name = 
REMARK  8 active torsions:
REMARK  status: ('A' for Active; 'I' for Inactive)
REMARK    1  A    between atoms: C_2  and  O_3
REMARK    2  A    between atoms: C_2  and  C_20
REMARK    3  A    between atoms: O_3  and  C_4
REMARK    4  A    between atoms: C_4  and  C_5
REMARK    5  A    between atoms: N_9  and  C_10
REMARK    6  A    between atoms: C_10  and  C_11
REMARK    7  A    between atoms: C_11  and  C_12
REMARK    8  A    between atoms: C_12  and  C_13
REMARK                            x       y       z     vdW  Elec       q    Type
REMARK                         _______ _______ _______ _____ _____    ______ ____
ROOT
ATOM      1  C   UNL     1       4.866   3.976  17.182  0.00  0.00    +0.000 C 
ATOM      2  C   UNL     1       5.596   3.793  15.846  0.00  0.00    +0.000 C 
ATOM      3  C   UNL     1       6.320   5.068  15.420  0.00  0.00    +0.000 C 
ATOM      4  C   UNL     1       5.418   6.306  15.508  0.00  0.00    +0.000 C 
ATOM      5  N   UNL     1       4.773   6.416  16.828  0.00  0.00    +0.000 NA
ATOM      6  C   UNL     1       3.967   5.215  17.103  0.00  0.00    +0.000 C 
ENDROOT
BRANCH   1   7
ATOM      7  C   UNL     1       5.824   4.089  18.385  0.00  0.00    +0.000 C 
BRANCH   7   8
ATOM      8  O   UNL     1       5.103   4.037  19.628  0.00  0.00    +0.000 OA
BRANCH   8  10
ATOM      9  O   UNL     1       5.211   1.905  20.455  0.00  0.00    +0.000 OA
ATOM     10  C   UNL     1       4.589   2.833  19.959  0.00  0.00    +0.000 C 
BRANCH  10  11
ATOM     11  C   UNL     1       3.127   2.769  19.715  0.00  0.00    +0.000 A 
ATOM     12  C   UNL     1       2.712   1.831  18.750  0.00  0.00    +0.000 A 
ATOM     13  C   UNL     1       1.374   1.743  18.362  0.00  0.00    +0.000 A 
ATOM     14  C   UNL     1       0.430   2.586  18.939  0.00  0.00    +0.000 A 
ATOM     15  C   UNL     1       0.824   3.505  19.913  0.00  0.00    +0.000 A 
ATOM     16  C   UNL     1       2.169   3.606  20.304  0.00  0.00    +0.000 A 
ATOM     17 CL   UNL     1       2.532   4.841  21.458  0.00  0.00    +0.000 Cl
ENDBRANCH  10  11
ENDBRANCH   8  10
ENDBRANCH   7   8
ENDBRANCH   1   7
BRANCH   5  18
ATOM     18  C   UNL     1       3.988   7.658  16.926  0.00  0.00    +0.000 C 
BRANCH  18  19
ATOM     19  C   UNL     1       2.921   7.642  18.030  0.00  0.00    +0.000 C 
BRANCH  19  20
ATOM     20  C   UNL     1       2.030   8.889  18.032  0.00  0.00    +0.000 C 
BRANCH  20  21
ATOM     21  C   UNL     1       1.270   8.979  19.333  0.00  0.00    +0.000 A 
ATOM     22  C   UNL     1       0.288   9.965  19.513  0.00  0.00    +0.000 A 
ATOM     23  C   UNL     1      -0.350  10.107  20.747  0.00  0.00    +0.000 A 
ATOM     24  C   UNL     1      -0.011   9.270  21.806  0.00  0.00    +0.000 A 
ATOM     25  C   UNL     1       0.953   8.278  21.633  0.00  0.00    +0.000 A 
ATOM     26  C   UNL     1       1.593   8.135  20.401  0.00  0.00    +0.000 A 
ENDBRANCH  20  21
ENDBRANCH  19  20
ENDBRANCH  18  19
ENDBRANCH   5  18
TORSDOF 8
ENDMDL
MODEL 9
REMARK VINA RESULT:      -7.5      3.764      7.100
REMARK  Name = 
REMARK  8 active torsions:
REMARK  status: ('A' for Active; 'I' for Inactive)
REMARK    1  A    between atoms: C_2  and  O_3
REMARK    2  A    between atoms: C_2  and  C_20
REMARK    3  A    between atoms: O_3  and  C_4
REMARK    4  A    between atoms: C_4  and  C_5
REMARK    5  A    between atoms: N_9  and  C_10
REMARK    6  A    between atoms: C_10  and  C_11
REMARK    7  A    between atoms: C_11  and  C_12
REMARK    8  A    between atoms: C_12  and  C_13
REMARK                            x       y       z     vdW  Elec       q    Type
REMARK                         _______ _______ _______ _____ _____    ______ ____
ROOT
ATOM      1  C   UNL     1       3.501   2.699  18.936  0.00  0.00    +0.000 C 
ATOM      2  C   UNL     1       2.329   1.903  19.522  0.00  0.00    +0.000 C 
ATOM      3  C   UNL     1       1.014   2.672  19.412  0.00  0.00    +0.000 C 
ATOM      4  C   UNL     1       1.141   4.116  19.916  0.00  0.00    +0.000 C 
ATOM      5  N   UNL     1       2.278   4.812  19.289  0.00  0.00    +0.000 NA
ATOM      6  C   UNL     1       3.532   4.095  19.568  0.00  0.00    +0.000 C 
ENDROOT
BRANCH   1   7
ATOM      7  C   UNL     1       3.448   2.812  17.398  0.00  0.00    +0.000 C 
BRANCH   7   8
ATOM      8  O   UNL     1       4.003   4.060  16.951  0.00  0.00    +0.000 OA
BRANCH   8  10
ATOM      9  O   UNL     1       5.634   3.212  15.586  0.00  0.00    +0.000 OA
ATOM     10  C   UNL     1       5.252   3.998  16.441  0.00  0.00    +0.000 C 
BRANCH  10  11
ATOM     11  C   UNL     1       6.129   5.061  16.991  0.00  0.00    +0.000 A 
ATOM     12  C   UNL     1       7.033   4.648  17.988  0.00  0.00    +0.000 A 
ATOM     13  C   UNL     1       7.843   5.572  18.651  0.00  0.00    +0.000 A 
ATOM     14  C   UNL     1       7.765   6.921  18.321  0.00  0.00    +0.000 A 
ATOM     15  C   UNL     1       6.890   7.341  17.319  0.00  0.00    +0.000 A 
ATOM     16  C   UNL     1       6.066   6.420  16.652  0.00  0.00    +0.000 A 
ATOM     17 CL   UNL     1       4.970   7.085  15.492  0.00  0.00    +0.000 Cl
ENDBRANCH  10  11
ENDBRANCH   8  10
ENDBRANCH   7   8
ENDBRANCH   1   7
BRANCH   5  18
ATOM     18  C   UNL     1       2.326   6.222  19.712  0.00  0.00    +0.000 C 
BRANCH  18  19
ATOM     19  C   UNL     1       2.986   7.162  18.693  0.00  0.00    +0.000 C 
BRANCH  19  20
ATOM     20  C   UNL     1       1.978   7.969  17.867  0.00  0.00    +0.000 C 
BRANCH  20  21
ATOM     21  C   UNL     1       1.678   9.278  18.555  0.00  0.00    +0.000 A 
ATOM     22  C   UNL     1       0.924   9.301  19.738  0.00  0.00    +0.000 A 
ATOM     23  C   UNL     1       0.569  10.517  20.324  0.00  0.00    +0.000 A 
ATOM     24  C   UNL     1       0.959  11.715  19.733  0.00  0.00    +0.000 A 
ATOM     25  C   UNL     1       1.720  11.704  18.566  0.00  0.00    +0.000 A 
ATOM     26  C   UNL     1       2.077  10.489  17.977  0.00  0.00    +0.000 A 
ENDBRANCH  20  21
ENDBRANCH  19  20
ENDBRANCH  18  19
ENDBRANCH   5  18
TORSDOF 8
ENDMDL
