MODEL 1
REMARK VINA RESULT:      -7.1      0.000      0.000
REMARK  Name = 
REMARK  8 active torsions:
REMARK  status: ('A' for Active; 'I' for Inactive)
REMARK    1  A    between atoms: C_1  and  C_2
REMARK    2  A    between atoms: C_2  and  C_3
REMARK    3  A    between atoms: C_3  and  C_4
REMARK    4  A    between atoms: C_4  and  C_5
REMARK    5  A    between atoms: C_5  and  C_6
REMARK    6  A    between atoms: C_6  and  C_7
REMARK    7  A    between atoms: C_8  and  C_9
REMARK    8  A    between atoms: C_11  and  N_12
REMARK                            x       y       z     vdW  Elec       q    Type
REMARK                         _______ _______ _______ _____ _____    ______ ____
ROOT
ATOM      1  C   UNL     1       3.867   4.882  17.562  0.00  0.00    +0.000 C 
ATOM      2  C   UNL     1       3.830   3.524  18.264  0.00  0.00    +0.000 C 
ATOM      3  C   UNL     1       4.795   3.148  19.133  0.00  0.00    +0.000 C 
ATOM      4  O   UNL     1       5.890   3.961  19.397  0.00  0.00    +0.000 OA
ATOM      5  C   UNL     1       6.071   5.149  18.708  0.00  0.00    +0.000 C 
ATOM      6  C   UNL     1       5.152   5.626  17.853  0.00  0.00    +0.000 C 
ATOM      7  C   UNL     1       5.438   6.900  17.126  0.00  0.00    +0.000 C 
ATOM      8  O   UNL     1       4.638   7.344  16.304  0.00  0.00    +0.000 OA
ATOM      9  C   UNL     1       6.703   7.662  17.459  0.00  0.00    +0.000 C 
ATOM     10  C   UNL     1       7.827   6.712  17.831  0.00  0.00    +0.000 C 
ATOM     11  C   UNL     1       7.406   5.790  18.969  0.00  0.00    +0.000 C 
ENDROOT
BRANCH   3  12
ATOM     12  N   UNL     1       4.820   1.980  19.859  0.00  0.00    +0.000 N 
ATOM     13  H   UNL     1       3.999   1.387  19.759  0.00  0.00    +0.000 HD
ATOM     14  H   UNL     1       5.066   2.146  20.833  0.00  0.00    +0.000 HD
ENDBRANCH   3  12
BRANCH   2  15
ATOM     15  C   UNL     1       2.715   2.668  18.022  0.00  0.00    +0.000 C 
ATOM     16  N   UNL     1       1.804   1.993  17.760  0.00  0.00    +0.000 NA
ENDBRANCH   2  15
BRANCH   1  17
ATOM     17  C   UNL     1       2.596   5.714  17.886  0.00  0.00    +0.000 C 
BRANCH  17  18
ATOM     18  C   UNL     1       2.716   6.583  19.137  0.00  0.00    +0.000 C 
BRANCH  18  19
ATOM     19  C   UNL     1       1.676   6.202  20.187  0.00  0.00    +0.000 C 
BRANCH  19  20
ATOM     20  C   UNL     1       2.151   4.966  20.942  0.00  0.00    +0.000 C 
BRANCH  20  22
ATOM     21  C   UNL     1       1.635   2.618  21.625  0.00  0.00    +0.000 C 
ATOM     22  C   UNL     1       1.149   3.823  20.838  0.00  0.00    +0.000 C 
ENDBRANCH  20  22
ENDBRANCH  19  20
ENDBRANCH  18  19
ENDBRANCH  17  18
ENDBRANCH   1  17
TORSDOF 7
ENDMDL
MODEL 2
REMARK VINA RESULT:      -7.1      3.284      5.844
REMARK  Name = 
REMARK  8 active torsions:
REMARK  status: ('A' for Active; 'I' for Inactive)
REMARK    1  A    between atoms: C_1  and  C_2
REMARK    2  A    between atoms: C_2  and  C_3
REMARK    3  A    between atoms: C_3  and  C_4
REMARK    4  A    between atoms: C_4  and  C_5
REMARK    5  A    between atoms: C_5  and  C_6
REMARK    6  A    between atoms: C_6  and  C_7
REMARK    7  A    between atoms: C_8  and  C_9
REMARK    8  A    between atoms: C_11  and  N_12
REMARK                            x       y       z     vdW  Elec       q    Type
REMARK                         _______ _______ _______ _____ _____    ______ ____
ROOT
ATOM      1  C   UNL     1       4.342   5.061  17.385  0.00  0.00    +0.000 C 
ATOM      2  C   UNL     1       5.637   5.593  18.000  0.00  0.00    +0.000 C 
ATOM      3  C   UNL     1       6.180   5.033  19.105  0.00  0.00    +0.000 C 
ATOM      4  O   UNL     1       5.562   3.976  19.760  0.00  0.00    +0.000 OA
ATOM      5  C   UNL     1       4.322   3.517  19.350  0.00  0.00    +0.000 C 
ATOM      6  C   UNL     1       3.719   3.982  18.243  0.00  0.00    +0.000 C 
ATOM      7  C   UNL     1       2.367   3.456  17.886  0.00  0.00    +0.000 C 
ATOM      8  O   UNL     1       1.767   3.889  16.904  0.00  0.00    +0.000 OA
ATOM      9  C   UNL     1       1.773   2.342  18.722  0.00  0.00    +0.000 C 
ATOM     10  C   UNL     1       2.198   2.467  20.174  0.00  0.00    +0.000 C 
ATOM     11  C   UNL     1       3.716   2.517  20.294  0.00  0.00    +0.000 C 
ENDROOT
BRANCH   3  12
ATOM     12  N   UNL     1       7.368   5.397  19.696  0.00  0.00    +0.000 N 
ATOM     13  H   UNL     1       7.322   6.215  20.299  0.00  0.00    +0.000 HD
ATOM     14  H   UNL     1       8.125   5.452  19.018  0.00  0.00    +0.000 HD
ENDBRANCH   3  12
BRANCH   2  15
ATOM     15  C   UNL     1       6.302   6.673  17.347  0.00  0.00    +0.000 C 
ATOM     16  N   UNL     1       6.903   7.533  16.843  0.00  0.00    +0.000 NA
ENDBRANCH   2  15
BRANCH   1  17
ATOM     17  C   UNL     1       4.563   4.616  15.914  0.00  0.00    +0.000 C 
BRANCH  17  18
ATOM     18  C   UNL     1       5.713   3.627  15.722  0.00  0.00    +0.000 C 
BRANCH  18  19
ATOM     19  C   UNL     1       6.571   3.993  14.515  0.00  0.00    +0.000 C 
BRANCH  19  20
ATOM     20  C   UNL     1       5.667   4.330  13.335  0.00  0.00    +0.000 C 
BRANCH  20  22
ATOM     21  C   UNL     1       4.407   3.201  11.497  0.00  0.00    +0.000 C 
ATOM     22  C   UNL     1       5.720   3.254  12.259  0.00  0.00    +0.000 C 
ENDBRANCH  20  22
ENDBRANCH  19  20
ENDBRANCH  18  19
ENDBRANCH  17  18
ENDBRANCH   1  17
TORSDOF 7
ENDMDL
MODEL 3
REMARK VINA RESULT:      -6.9      3.182      5.801
REMARK  Name = 
REMARK  8 active torsions:
REMARK  status: ('A' for Active; 'I' for Inactive)
REMARK    1  A    between atoms: C_1  and  C_2
REMARK    2  A    between atoms: C_2  and  C_3
REMARK    3  A    between atoms: C_3  and  C_4
REMARK    4  A    between atoms: C_4  and  C_5
REMARK    5  A    between atoms: C_5  and  C_6
REMARK    6  A    between atoms: C_6  and  C_7
REMARK    7  A    between atoms: C_8  and  C_9
REMARK    8  A    between atoms: C_11  and  N_12
REMARK                            x       y       z     vdW  Elec       q    Type
REMARK                         _______ _______ _______ _____ _____    ______ ____
ROOT
ATOM      1  C   UNL     1       2.381   5.935  17.995  0.00  0.00    +0.000 C 
ATOM      2  C   UNL     1       2.172   7.209  18.815  0.00  0.00    +0.000 C 
ATOM      3  C   UNL     1       1.941   7.166  20.146  0.00  0.00    +0.000 C 
ATOM      4  O   UNL     1       1.840   5.959  20.826  0.00  0.00    +0.000 OA
ATOM      5  C   UNL     1       1.885   4.756  20.142  0.00  0.00    +0.000 C 
ATOM      6  C   UNL     1       2.147   4.692  18.826  0.00  0.00    +0.000 C 
ATOM      7  C   UNL     1       2.148   3.357  18.157  0.00  0.00    +0.000 C 
ATOM      8  O   UNL     1       2.342   3.264  16.946  0.00  0.00    +0.000 OA
ATOM      9  C   UNL     1       1.962   2.116  19.003  0.00  0.00    +0.000 C 
ATOM     10  C   UNL     1       1.042   2.393  20.179  0.00  0.00    +0.000 C 
ATOM     11  C   UNL     1       1.552   3.570  21.002  0.00  0.00    +0.000 C 
ENDROOT
BRANCH   3  12
ATOM     12  N   UNL     1       1.802   8.252  20.979  0.00  0.00    +0.000 N 
ATOM     13  H   UNL     1       2.625   8.487  21.530  0.00  0.00    +0.000 HD
ATOM     14  H   UNL     1       0.958   8.190  21.544  0.00  0.00    +0.000 HD
ENDBRANCH   3  12
BRANCH   2  15
ATOM     15  C   UNL     1       2.277   8.467  18.149  0.00  0.00    +0.000 C 
ATOM     16  N   UNL     1       2.295   9.492  17.600  0.00  0.00    +0.000 NA
ENDBRANCH   2  15
BRANCH   1  17
ATOM     17  C   UNL     1       3.765   5.944  17.291  0.00  0.00    +0.000 C 
BRANCH  17  18
ATOM     18  C   UNL     1       4.934   5.561  18.198  0.00  0.00    +0.000 C 
BRANCH  18  19
ATOM     19  C   UNL     1       5.872   4.570  17.515  0.00  0.00    +0.000 C 
BRANCH  19  20
ATOM     20  C   UNL     1       5.432   4.373  16.069  0.00  0.00    +0.000 C 
BRANCH  20  22
ATOM     21  C   UNL     1       6.198   3.910  13.736  0.00  0.00    +0.000 C 
ATOM     22  C   UNL     1       6.615   4.406  15.110  0.00  0.00    +0.000 C 
ENDBRANCH  20  22
ENDBRANCH  19  20
ENDBRANCH  18  19
ENDBRANCH  17  18
ENDBRANCH   1  17
TORSDOF 7
ENDMDL
MODEL 4
REMARK VINA RESULT:      -6.8      2.530      5.840
REMARK  Name = 
REMARK  8 active torsions:
REMARK  status: ('A' for Active; 'I' for Inactive)
REMARK    1  A    between atoms: C_1  and  C_2
REMARK    2  A    between atoms: C_2  and  C_3
REMARK    3  A    between atoms: C_3  and  C_4
REMARK    4  A    between atoms: C_4  and  C_5
REMARK    5  A    between atoms: C_5  and  C_6
REMARK    6  A    between atoms: C_6  and  C_7
REMARK    7  A    between atoms: C_8  and  C_9
REMARK    8  A    between atoms: C_11  and  N_12
REMARK                            x       y       z     vdW  Elec       q    Type
REMARK                         _______ _______ _______ _____ _____    ______ ____
ROOT
ATOM      1  C   UNL     1       4.173   4.511  17.765  0.00  0.00    +0.000 C 
ATOM      2  C   UNL     1       4.058   5.972  17.328  0.00  0.00    +0.000 C 
ATOM      3  C   UNL     1       3.319   6.865  18.023  0.00  0.00    +0.000 C 
ATOM      4  O   UNL     1       2.593   6.488  19.146  0.00  0.00    +0.000 OA
ATOM      5  C   UNL     1       2.535   5.161  19.537  0.00  0.00    +0.000 C 
ATOM      6  C   UNL     1       3.262   4.206  18.934  0.00  0.00    +0.000 C 
ATOM      7  C   UNL     1       3.119   2.792  19.397  0.00  0.00    +0.000 C 
ATOM      8  O   UNL     1       3.737   1.886  18.840  0.00  0.00    +0.000 OA
ATOM      9  C   UNL     1       2.243   2.503  20.597  0.00  0.00    +0.000 C 
ATOM     10  C   UNL     1       1.066   3.461  20.654  0.00  0.00    +0.000 C 
ATOM     11  C   UNL     1       1.543   4.908  20.637  0.00  0.00    +0.000 C 
ENDROOT
BRANCH   3  12
ATOM     12  N   UNL     1       3.202   8.208  17.749  0.00  0.00    +0.000 N 
ATOM     13  H   UNL     1       3.737   8.825  18.356  0.00  0.00    +0.000 HD
ATOM     14  H   UNL     1       2.229   8.492  17.660  0.00  0.00    +0.000 HD
ENDBRANCH   3  12
BRANCH   2  15
ATOM     15  C   UNL     1       4.798   6.396  16.183  0.00  0.00    +0.000 C 
ATOM     16  N   UNL     1       5.342   6.762  15.222  0.00  0.00    +0.000 NA
ENDBRANCH   2  15
BRANCH   1  17
ATOM     17  C   UNL     1       5.653   4.123  18.031  0.00  0.00    +0.000 C 
BRANCH  17  18
ATOM     18  C   UNL     1       6.411   5.104  18.925  0.00  0.00    +0.000 C 
BRANCH  18  19
ATOM     19  C   UNL     1       7.707   5.573  18.269  0.00  0.00    +0.000 C 
BRANCH  19  20
ATOM     20  C   UNL     1       8.037   6.980  18.754  0.00  0.00    +0.000 C 
BRANCH  20  22
ATOM     21  C   UNL     1       8.383   9.367  18.100  0.00  0.00    +0.000 C 
ATOM     22  C   UNL     1       7.875   8.010  17.643  0.00  0.00    +0.000 C 
ENDBRANCH  20  22
ENDBRANCH  19  20
ENDBRANCH  18  19
ENDBRANCH  17  18
ENDBRANCH   1  17
TORSDOF 7
ENDMDL
MODEL 5
REMARK VINA RESULT:      -6.8      2.879      5.832
REMARK  Name = 
REMARK  8 active torsions:
REMARK  status: ('A' for Active; 'I' for Inactive)
REMARK    1  A    between atoms: C_1  and  C_2
REMARK    2  A    between atoms: C_2  and  C_3
REMARK    3  A    between atoms: C_3  and  C_4
REMARK    4  A    between atoms: C_4  and  C_5
REMARK    5  A    between atoms: C_5  and  C_6
REMARK    6  A    between atoms: C_6  and  C_7
REMARK    7  A    between atoms: C_8  and  C_9
REMARK    8  A    between atoms: C_11  and  N_12
REMARK                            x       y       z     vdW  Elec       q    Type
REMARK                         _______ _______ _______ _____ _____    ______ ____
ROOT
ATOM      1  C   UNL     1       2.551   5.928  18.048  0.00  0.00    +0.000 C 
ATOM      2  C   UNL     1       2.222   7.195  18.841  0.00  0.00    +0.000 C 
ATOM      3  C   UNL     1       1.894   7.146  20.151  0.00  0.00    +0.000 C 
ATOM      4  O   UNL     1       1.797   5.938  20.830  0.00  0.00    +0.000 OA
ATOM      5  C   UNL     1       1.950   4.736  20.161  0.00  0.00    +0.000 C 
ATOM      6  C   UNL     1       2.312   4.679  18.868  0.00  0.00    +0.000 C 
ATOM      7  C   UNL     1       2.426   3.342  18.210  0.00  0.00    +0.000 C 
ATOM      8  O   UNL     1       2.714   3.255  17.018  0.00  0.00    +0.000 OA
ATOM      9  C   UNL     1       2.234   2.098  19.050  0.00  0.00    +0.000 C 
ATOM     10  C   UNL     1       1.216   2.336  20.151  0.00  0.00    +0.000 C 
ATOM     11  C   UNL     1       1.608   3.538  21.002  0.00  0.00    +0.000 C 
ENDROOT
BRANCH   3  12
ATOM     12  N   UNL     1       1.643   8.227  20.963  0.00  0.00    +0.000 N 
ATOM     13  H   UNL     1       1.003   8.920  20.581  0.00  0.00    +0.000 HD
ATOM     14  H   UNL     1       2.503   8.641  21.317  0.00  0.00    +0.000 HD
ENDBRANCH   3  12
BRANCH   2  15
ATOM     15  C   UNL     1       2.319   8.453  18.176  0.00  0.00    +0.000 C 
ATOM     16  N   UNL     1       2.447   9.497  17.677  0.00  0.00    +0.000 NA
ENDBRANCH   2  15
BRANCH   1  17
ATOM     17  C   UNL     1       3.982   6.000  17.450  0.00  0.00    +0.000 C 
BRANCH  17  18
ATOM     18  C   UNL     1       5.097   5.686  18.448  0.00  0.00    +0.000 C 
BRANCH  18  19
ATOM     19  C   UNL     1       6.362   5.205  17.742  0.00  0.00    +0.000 C 
BRANCH  19  20
ATOM     20  C   UNL     1       7.077   6.399  17.120  0.00  0.00    +0.000 C 
BRANCH  20  22
ATOM     21  C   UNL     1       7.987   8.632  17.774  0.00  0.00    +0.000 C 
ATOM     22  C   UNL     1       7.896   7.164  18.152  0.00  0.00    +0.000 C 
ENDBRANCH  20  22
ENDBRANCH  19  20
ENDBRANCH  18  19
ENDBRANCH  17  18
ENDBRANCH   1  17
TORSDOF 7
ENDMDL
MODEL 6
REMARK VINA RESULT:      -6.8      1.361      2.583
REMARK  Name = 
REMARK  8 active torsions:
REMARK  status: ('A' for Active; 'I' for Inactive)
REMARK    1  A    between atoms: C_1  and  C_2
REMARK    2  A    between atoms: C_2  and  C_3
REMARK    3  A    between atoms: C_3  and  C_4
REMARK    4  A    between atoms: C_4  and  C_5
REMARK    5  A    between atoms: C_5  and  C_6
REMARK    6  A    between atoms: C_6  and  C_7
REMARK    7  A    between atoms: C_8  and  C_9
REMARK    8  A    between atoms: C_11  and  N_12
REMARK                            x       y       z     vdW  Elec       q    Type
REMARK                         _______ _______ _______ _____ _____    ______ ____
ROOT
ATOM      1  C   UNL     1       3.821   4.810  17.637  0.00  0.00    +0.000 C 
ATOM      2  C   UNL     1       3.758   3.491  18.408  0.00  0.00    +0.000 C 
ATOM      3  C   UNL     1       4.709   3.148  19.306  0.00  0.00    +0.000 C 
ATOM      4  O   UNL     1       5.813   3.958  19.539  0.00  0.00    +0.000 OA
ATOM      5  C   UNL     1       6.018   5.106  18.792  0.00  0.00    +0.000 C 
ATOM      6  C   UNL     1       5.114   5.550  17.903  0.00  0.00    +0.000 C 
ATOM      7  C   UNL     1       5.425   6.781  17.114  0.00  0.00    +0.000 C 
ATOM      8  O   UNL     1       4.640   7.193  16.262  0.00  0.00    +0.000 OA
ATOM      9  C   UNL     1       6.697   7.542  17.421  0.00  0.00    +0.000 C 
ATOM     10  C   UNL     1       7.804   6.597  17.854  0.00  0.00    +0.000 C 
ATOM     11  C   UNL     1       7.359   5.741  19.033  0.00  0.00    +0.000 C 
ENDROOT
BRANCH   3  12
ATOM     12  N   UNL     1       4.710   2.019  20.092  0.00  0.00    +0.000 N 
ATOM     13  H   UNL     1       5.630   1.654  20.328  0.00  0.00    +0.000 HD
ATOM     14  H   UNL     1       4.088   1.302  19.724  0.00  0.00    +0.000 HD
ENDBRANCH   3  12
BRANCH   2  15
ATOM     15  C   UNL     1       2.633   2.639  18.199  0.00  0.00    +0.000 C 
ATOM     16  N   UNL     1       1.733   1.940  17.962  0.00  0.00    +0.000 NA
ENDBRANCH   2  15
BRANCH   1  17
ATOM     17  C   UNL     1       2.559   5.675  17.904  0.00  0.00    +0.000 C 
BRANCH  17  18
ATOM     18  C   UNL     1       2.428   6.167  19.346  0.00  0.00    +0.000 C 
BRANCH  18  19
ATOM     19  C   UNL     1       2.192   7.674  19.404  0.00  0.00    +0.000 C 
BRANCH  19  20
ATOM     20  C   UNL     1       2.018   8.212  17.989  0.00  0.00    +0.000 C 
BRANCH  20  22
ATOM     21  C   UNL     1       0.244   9.957  18.228  0.00  0.00    +0.000 C 
ATOM     22  C   UNL     1       1.724   9.707  17.988  0.00  0.00    +0.000 C 
ENDBRANCH  20  22
ENDBRANCH  19  20
ENDBRANCH  18  19
ENDBRANCH  17  18
ENDBRANCH   1  17
TORSDOF 7
ENDMDL
MODEL 7
REMARK VINA RESULT:      -6.5      2.903      5.622
REMARK  Name = 
REMARK  8 active torsions:
REMARK  status: ('A' for Active; 'I' for Inactive)
REMARK    1  A    between atoms: C_1  and  C_2
REMARK    2  A    between atoms: C_2  and  C_3
REMARK    3  A    between atoms: C_3  and  C_4
REMARK    4  A    between atoms: C_4  and  C_5
REMARK    5  A    between atoms: C_5  and  C_6
REMARK    6  A    between atoms: C_6  and  C_7
REMARK    7  A    between atoms: C_8  and  C_9
REMARK    8  A    between atoms: C_11  and  N_12
REMARK                            x       y       z     vdW  Elec       q    Type
REMARK                         _______ _______ _______ _____ _____    ______ ____
ROOT
ATOM      1  C   UNL     1       2.914   6.177  18.237  0.00  0.00    +0.000 C 
ATOM      2  C   UNL     1       2.276   7.417  18.865  0.00  0.00    +0.000 C 
ATOM      3  C   UNL     1       1.723   7.383  20.098  0.00  0.00    +0.000 C 
ATOM      4  O   UNL     1       1.669   6.207  20.836  0.00  0.00    +0.000 OA
ATOM      5  C   UNL     1       2.105   5.011  20.294  0.00  0.00    +0.000 C 
ATOM      6  C   UNL     1       2.703   4.947  19.092  0.00  0.00    +0.000 C 
ATOM      7  C   UNL     1       3.116   3.612  18.564  0.00  0.00    +0.000 C 
ATOM      8  O   UNL     1       3.628   3.511  17.450  0.00  0.00    +0.000 OA
ATOM      9  C   UNL     1       2.945   2.394  19.446  0.00  0.00    +0.000 C 
ATOM     10  C   UNL     1       1.720   2.532  20.331  0.00  0.00    +0.000 C 
ATOM     11  C   UNL     1       1.781   3.817  21.147  0.00  0.00    +0.000 C 
ENDROOT
BRANCH   3  12
ATOM     12  N   UNL     1       1.182   8.453  20.773  0.00  0.00    +0.000 N 
ATOM     13  H   UNL     1       0.505   8.216  21.494  0.00  0.00    +0.000 HD
ATOM     14  H   UNL     1       0.839   9.168  20.134  0.00  0.00    +0.000 HD
ENDBRANCH   3  12
BRANCH   2  15
ATOM     15  C   UNL     1       2.321   8.643  18.137  0.00  0.00    +0.000 C 
ATOM     16  N   UNL     1       2.415   9.621  17.514  0.00  0.00    +0.000 NA
ENDBRANCH   2  15
BRANCH   1  17
ATOM     17  C   UNL     1       4.408   6.431  17.895  0.00  0.00    +0.000 C 
BRANCH  17  18
ATOM     18  C   UNL     1       4.704   6.515  16.398  0.00  0.00    +0.000 C 
BRANCH  18  19
ATOM     19  C   UNL     1       5.930   5.686  16.022  0.00  0.00    +0.000 C 
BRANCH  19  20
ATOM     20  C   UNL     1       7.124   6.146  16.850  0.00  0.00    +0.000 C 
BRANCH  20  22
ATOM     21  C   UNL     1       7.803   5.718  19.216  0.00  0.00    +0.000 C 
ATOM     22  C   UNL     1       7.551   5.087  17.858  0.00  0.00    +0.000 C 
ENDBRANCH  20  22
ENDBRANCH  19  20
ENDBRANCH  18  19
ENDBRANCH  17  18
ENDBRANCH   1  17
TORSDOF 7
ENDMDL
MODEL 8
REMARK VINA RESULT:      -6.5      2.926      4.980
REMARK  Name = 
REMARK  8 active torsions:
REMARK  status: ('A' for Active; 'I' for Inactive)
REMARK    1  A    between atoms: C_1  and  C_2
REMARK    2  A    between atoms: C_2  and  C_3
REMARK    3  A    between atoms: C_3  and  C_4
REMARK    4  A    between atoms: C_4  and  C_5
REMARK    5  A    between atoms: C_5  and  C_6
REMARK    6  A    between atoms: C_6  and  C_7
REMARK    7  A    between atoms: C_8  and  C_9
REMARK    8  A    between atoms: C_11  and  N_12
REMARK                            x       y       z     vdW  Elec       q    Type
REMARK                         _______ _______ _______ _____ _____    ______ ____
ROOT
ATOM      1  C   UNL     1       3.497   5.803  18.448  0.00  0.00    +0.000 C 
ATOM      2  C   UNL     1       4.562   5.313  17.467  0.00  0.00    +0.000 C 
ATOM      3  C   UNL     1       4.728   3.998  17.198  0.00  0.00    +0.000 C 
ATOM      4  O   UNL     1       3.967   3.026  17.835  0.00  0.00    +0.000 OA
ATOM      5  C   UNL     1       3.071   3.371  18.832  0.00  0.00    +0.000 C 
ATOM      6  C   UNL     1       2.808   4.650  19.146  0.00  0.00    +0.000 C 
ATOM      7  C   UNL     1       1.850   4.937  20.256  0.00  0.00    +0.000 C 
ATOM      8  O   UNL     1       1.618   6.096  20.598  0.00  0.00    +0.000 OA
ATOM      9  C   UNL     1       1.130   3.781  20.915  0.00  0.00    +0.000 C 
ATOM     10  C   UNL     1       2.007   2.542  20.948  0.00  0.00    +0.000 C 
ATOM     11  C   UNL     1       2.493   2.183  19.550  0.00  0.00    +0.000 C 
ENDROOT
BRANCH   3  12
ATOM     12  N   UNL     1       5.612   3.463  16.290  0.00  0.00    +0.000 N 
ATOM     13  H   UNL     1       6.250   2.763  16.663  0.00  0.00    +0.000 HD
ATOM     14  H   UNL     1       6.091   4.186  15.758  0.00  0.00    +0.000 HD
ENDBRANCH   3  12
BRANCH   2  15
ATOM     15  C   UNL     1       5.356   6.285  16.789  0.00  0.00    +0.000 C 
ATOM     16  N   UNL     1       6.026   7.028  16.194  0.00  0.00    +0.000 NA
ENDBRANCH   2  15
BRANCH   1  17
ATOM     17  C   UNL     1       2.503   6.775  17.755  0.00  0.00    +0.000 C 
BRANCH  17  18
ATOM     18  C   UNL     1       2.777   8.254  18.028  0.00  0.00    +0.000 C 
BRANCH  18  19
ATOM     19  C   UNL     1       1.496   9.081  17.968  0.00  0.00    +0.000 C 
BRANCH  19  20
ATOM     20  C   UNL     1       1.032   9.397  19.385  0.00  0.00    +0.000 C 
BRANCH  20  22
ATOM     21  C   UNL     1      -0.898  10.182  18.006  0.00  0.00    +0.000 C 
ATOM     22  C   UNL     1      -0.266  10.194  19.388  0.00  0.00    +0.000 C 
ENDBRANCH  20  22
ENDBRANCH  19  20
ENDBRANCH  18  19
ENDBRANCH  17  18
ENDBRANCH   1  17
TORSDOF 7
ENDMDL
MODEL 9
REMARK VINA RESULT:      -6.4      1.257      2.105
REMARK  Name = 
REMARK  8 active torsions:
REMARK  status: ('A' for Active; 'I' for Inactive)
REMARK    1  A    between atoms: C_1  and  C_2
REMARK    2  A    between atoms: C_2  and  C_3
REMARK    3  A    between atoms: C_3  and  C_4
REMARK    4  A    between atoms: C_4  and  C_5
REMARK    5  A    between atoms: C_5  and  C_6
REMARK    6  A    between atoms: C_6  and  C_7
REMARK    7  A    between atoms: C_8  and  C_9
REMARK    8  A    between atoms: C_11  and  N_12
REMARK                            x       y       z     vdW  Elec       q    Type
REMARK                         _______ _______ _______ _____ _____    ______ ____
ROOT
ATOM      1  C   UNL     1       3.546   4.853  17.711  0.00  0.00    +0.000 C 
ATOM      2  C   UNL     1       3.370   3.610  18.585  0.00  0.00    +0.000 C 
ATOM      3  C   UNL     1       4.288   3.259  19.513  0.00  0.00    +0.000 C 
ATOM      4  O   UNL     1       5.458   3.988  19.687  0.00  0.00    +0.000 OA
ATOM      5  C   UNL     1       5.761   5.050  18.852  0.00  0.00    +0.000 C 
ATOM      6  C   UNL     1       4.898   5.498  17.925  0.00  0.00    +0.000 C 
ATOM      7  C   UNL     1       5.314   6.631  17.043  0.00  0.00    +0.000 C 
ATOM      8  O   UNL     1       4.566   7.039  16.156  0.00  0.00    +0.000 OA
ATOM      9  C   UNL     1       6.647   7.301  17.296  0.00  0.00    +0.000 C 
ATOM     10  C   UNL     1       7.669   6.302  17.810  0.00  0.00    +0.000 C 
ATOM     11  C   UNL     1       7.151   5.585  19.050  0.00  0.00    +0.000 C 
ENDROOT
BRANCH   3  12
ATOM     12  N   UNL     1       4.193   2.201  20.386  0.00  0.00    +0.000 N 
ATOM     13  H   UNL     1       3.495   1.500  20.146  0.00  0.00    +0.000 HD
ATOM     14  H   UNL     1       4.117   2.513  21.352  0.00  0.00    +0.000 HD
ENDBRANCH   3  12
BRANCH   2  15
ATOM     15  C   UNL     1       2.176   2.844  18.437  0.00  0.00    +0.000 C 
ATOM     16  N   UNL     1       1.166   2.277  18.322  0.00  0.00    +0.000 NA
ENDBRANCH   2  15
BRANCH   1  17
ATOM     17  C   UNL     1       2.364   5.842  17.901  0.00  0.00    +0.000 C 
BRANCH  17  18
ATOM     18  C   UNL     1       2.519   6.786  19.093  0.00  0.00    +0.000 C 
BRANCH  18  19
ATOM     19  C   UNL     1       2.251   8.236  18.698  0.00  0.00    +0.000 C 
BRANCH  19  20
ATOM     20  C   UNL     1       1.277   8.858  19.692  0.00  0.00    +0.000 C 
BRANCH  20  22
ATOM     21  C   UNL     1       1.293   9.064  22.182  0.00  0.00    +0.000 C 
ATOM     22  C   UNL     1       1.256   8.096  21.011  0.00  0.00    +0.000 C 
ENDBRANCH  20  22
ENDBRANCH  19  20
ENDBRANCH  18  19
ENDBRANCH  17  18
ENDBRANCH   1  17
TORSDOF 7
ENDMDL
