MODEL 1
REMARK VINA RESULT:      -7.6      0.000      0.000
REMARK  Name = 
REMARK  8 active torsions:
REMARK  status: ('A' for Active; 'I' for Inactive)
REMARK    1  A    between atoms: C_1  and  C_2
REMARK    2  A    between atoms: C_6  and  N_7
REMARK    3  A    between atoms: C_9  and  C_10
REMARK    4  A    between atoms: C_10  and  C_11
REMARK    5  A    between atoms: C_11  and  N_12
REMARK    6  A    between atoms: N_12  and  C_13
REMARK    7  A    between atoms: N_12  and  C_14
REMARK    8  A    between atoms: C_21  and  C_22
REMARK                            x       y       z     vdW  Elec       q    Type
REMARK                         _______ _______ _______ _____ _____    ______ ____
ROOT
ATOM      1  N   UNL     1       2.717   6.172  18.006  0.00  0.00    +0.000 N 
ATOM      2  C   UNL     1       1.996   5.003  17.854  0.00  0.00    +0.000 A 
ATOM      3  C   UNL     1       2.847   3.959  17.576  0.00  0.00    +0.000 A 
ATOM      4  C   UNL     1       4.083   4.558  17.202  0.00  0.00    +0.000 A 
ATOM      5  C   UNL     1       5.272   4.034  16.647  0.00  0.00    +0.000 A 
ATOM      6  C   UNL     1       6.344   4.881  16.363  0.00  0.00    +0.000 A 
ATOM      7  C   UNL     1       6.275   6.225  16.694  0.00  0.00    +0.000 A 
ATOM      8  C   UNL     1       5.129   6.759  17.295  0.00  0.00    +0.000 A 
ATOM      9  C   UNL     1       4.001   5.930  17.489  0.00  0.00    +0.000 A 
ENDROOT
BRANCH   1  15
ATOM     10  C   UNL     1       0.679   9.154  21.656  0.00  0.00    +0.000 C 
ATOM     11  C   UNL     1       1.216   8.819  20.282  0.00  0.00    +0.000 A 
ATOM     12  C   UNL     1       1.255   9.907  19.395  0.00  0.00    +0.000 A 
ATOM     13  C   UNL     1       1.699   9.751  18.093  0.00  0.00    +0.000 A 
ATOM     14  C   UNL     1       2.125   8.503  17.661  0.00  0.00    +0.000 A 
ATOM     15  C   UNL     1       2.184   7.401  18.533  0.00  0.00    +0.000 A 
ATOM     16  C   UNL     1       1.722   7.543  19.878  0.00  0.00    +0.000 A 
ATOM     17  C   UNL     1       1.936   6.477  20.932  0.00  0.00    +0.000 C 
ENDBRANCH   1  15
BRANCH   3  18
ATOM     18  C   UNL     1       2.509   2.499  17.593  0.00  0.00    +0.000 C 
BRANCH  18  19
ATOM     19  C   UNL     1       2.368   1.969  19.040  0.00  0.00    +0.000 C 
BRANCH  19  20
ATOM     20  N   UNL     1       3.151   2.710  20.052  0.00  0.00    +0.000 NA
ATOM     21  C   UNL     1       2.467   2.761  21.345  0.00  0.00    +0.000 C 
ATOM     22  C   UNL     1       4.467   2.082  20.225  0.00  0.00    +0.000 C 
ENDBRANCH  19  20
ENDBRANCH  18  19
ENDBRANCH   3  18
TORSDOF 4
ENDMDL
MODEL 2
REMARK VINA RESULT:      -7.5      1.515      4.184
REMARK  Name = 
REMARK  8 active torsions:
REMARK  status: ('A' for Active; 'I' for Inactive)
REMARK    1  A    between atoms: C_1  and  C_2
REMARK    2  A    between atoms: C_6  and  N_7
REMARK    3  A    between atoms: C_9  and  C_10
REMARK    4  A    between atoms: C_10  and  C_11
REMARK    5  A    between atoms: C_11  and  N_12
REMARK    6  A    between atoms: N_12  and  C_13
REMARK    7  A    between atoms: N_12  and  C_14
REMARK    8  A    between atoms: C_21  and  C_22
REMARK                            x       y       z     vdW  Elec       q    Type
REMARK                         _______ _______ _______ _____ _____    ______ ____
ROOT
ATOM      1  N   UNL     1       2.456   6.579  19.315  0.00  0.00    +0.000 N 
ATOM      2  C   UNL     1       3.554   6.563  18.477  0.00  0.00    +0.000 A 
ATOM      3  C   UNL     1       3.699   5.316  17.916  0.00  0.00    +0.000 A 
ATOM      4  C   UNL     1       2.884   4.446  18.693  0.00  0.00    +0.000 A 
ATOM      5  C   UNL     1       2.744   3.041  18.728  0.00  0.00    +0.000 A 
ATOM      6  C   UNL     1       1.855   2.448  19.625  0.00  0.00    +0.000 A 
ATOM      7  C   UNL     1       1.050   3.237  20.431  0.00  0.00    +0.000 A 
ATOM      8  C   UNL     1       1.129   4.634  20.376  0.00  0.00    +0.000 A 
ATOM      9  C   UNL     1       2.100   5.239  19.547  0.00  0.00    +0.000 A 
ENDROOT
BRANCH   1  15
ATOM     10  C   UNL     1       0.499  11.322  19.120  0.00  0.00    +0.000 C 
ATOM     11  C   UNL     1       0.934  10.030  19.775  0.00  0.00    +0.000 A 
ATOM     12  C   UNL     1       0.663   9.960  21.152  0.00  0.00    +0.000 A 
ATOM     13  C   UNL     1       1.025   8.850  21.895  0.00  0.00    +0.000 A 
ATOM     14  C   UNL     1       1.653   7.782  21.268  0.00  0.00    +0.000 A 
ATOM     15  C   UNL     1       1.870   7.767  19.879  0.00  0.00    +0.000 A 
ATOM     16  C   UNL     1       1.510   8.910  19.098  0.00  0.00    +0.000 A 
ATOM     17  C   UNL     1       1.521   8.901  17.584  0.00  0.00    +0.000 C 
ENDBRANCH   1  15
BRANCH   3  18
ATOM     18  C   UNL     1       4.594   4.948  16.771  0.00  0.00    +0.000 C 
BRANCH  18  19
ATOM     19  C   UNL     1       5.388   6.173  16.259  0.00  0.00    +0.000 C 
BRANCH  19  20
ATOM     20  N   UNL     1       6.852   6.086  16.446  0.00  0.00    +0.000 NA
ATOM     21  C   UNL     1       7.335   7.045  17.443  0.00  0.00    +0.000 C 
ATOM     22  C   UNL     1       7.225   4.728  16.862  0.00  0.00    +0.000 C 
ENDBRANCH  19  20
ENDBRANCH  18  19
ENDBRANCH   3  18
TORSDOF 4
ENDMDL
MODEL 3
REMARK VINA RESULT:      -7.4      1.540      4.151
REMARK  Name = 
REMARK  8 active torsions:
REMARK  status: ('A' for Active; 'I' for Inactive)
REMARK    1  A    between atoms: C_1  and  C_2
REMARK    2  A    between atoms: C_6  and  N_7
REMARK    3  A    between atoms: C_9  and  C_10
REMARK    4  A    between atoms: C_10  and  C_11
REMARK    5  A    between atoms: C_11  and  N_12
REMARK    6  A    between atoms: N_12  and  C_13
REMARK    7  A    between atoms: N_12  and  C_14
REMARK    8  A    between atoms: C_21  and  C_22
REMARK                            x       y       z     vdW  Elec       q    Type
REMARK                         _______ _______ _______ _____ _____    ______ ____
ROOT
ATOM      1  N   UNL     1       3.066   5.946  19.287  0.00  0.00    +0.000 N 
ATOM      2  C   UNL     1       4.447   5.938  19.250  0.00  0.00    +0.000 A 
ATOM      3  C   UNL     1       4.892   4.826  18.575  0.00  0.00    +0.000 A 
ATOM      4  C   UNL     1       3.775   3.949  18.496  0.00  0.00    +0.000 A 
ATOM      5  C   UNL     1       3.640   2.604  18.085  0.00  0.00    +0.000 A 
ATOM      6  C   UNL     1       2.393   1.980  18.130  0.00  0.00    +0.000 A 
ATOM      7  C   UNL     1       1.269   2.699  18.505  0.00  0.00    +0.000 A 
ATOM      8  C   UNL     1       1.366   4.048  18.865  0.00  0.00    +0.000 A 
ATOM      9  C   UNL     1       2.640   4.657  18.923  0.00  0.00    +0.000 A 
ENDROOT
BRANCH   1  15
ATOM     10  C   UNL     1       0.931  10.580  18.709  0.00  0.00    +0.000 C 
ATOM     11  C   UNL     1       1.244   9.279  19.413  0.00  0.00    +0.000 A 
ATOM     12  C   UNL     1       0.591   9.116  20.646  0.00  0.00    +0.000 A 
ATOM     13  C   UNL     1       0.797   7.987  21.419  0.00  0.00    +0.000 A 
ATOM     14  C   UNL     1       1.651   6.992  20.963  0.00  0.00    +0.000 A 
ATOM     15  C   UNL     1       2.262   7.068  19.699  0.00  0.00    +0.000 A 
ATOM     16  C   UNL     1       2.067   8.231  18.892  0.00  0.00    +0.000 A 
ATOM     17  C   UNL     1       2.517   8.309  17.448  0.00  0.00    +0.000 C 
ENDBRANCH   1  15
BRANCH   3  18
ATOM     18  C   UNL     1       6.288   4.571  18.093  0.00  0.00    +0.000 C 
BRANCH  18  19
ATOM     19  C   UNL     1       6.869   5.807  17.365  0.00  0.00    +0.000 C 
BRANCH  19  20
ATOM     20  N   UNL     1       6.668   5.816  15.900  0.00  0.00    +0.000 NA
ATOM     21  C   UNL     1       6.795   4.476  15.321  0.00  0.00    +0.000 C 
ATOM     22  C   UNL     1       5.342   6.357  15.579  0.00  0.00    +0.000 C 
ENDBRANCH  19  20
ENDBRANCH  18  19
ENDBRANCH   3  18
TORSDOF 4
ENDMDL
MODEL 4
REMARK VINA RESULT:      -7.4      1.637      4.003
REMARK  Name = 
REMARK  8 active torsions:
REMARK  status: ('A' for Active; 'I' for Inactive)
REMARK    1  A    between atoms: C_1  and  C_2
REMARK    2  A    between atoms: C_6  and  N_7
REMARK    3  A    between atoms: C_9  and  C_10
REMARK    4  A    between atoms: C_10  and  C_11
REMARK    5  A    between atoms: C_11  and  N_12
REMARK    6  A    between atoms: N_12  and  C_13
REMARK    7  A    between atoms: N_12  and  C_14
REMARK    8  A    between atoms: C_21  and  C_22
REMARK                            x       y       z     vdW  Elec       q    Type
REMARK                         _______ _______ _______ _____ _____    ______ ____
ROOT
ATOM      1  N   UNL     1       2.683   6.916  18.727  0.00  0.00    +0.000 N 
ATOM      2  C   UNL     1       3.843   7.264  18.063  0.00  0.00    +0.000 A 
ATOM      3  C   UNL     1       4.189   6.277  17.170  0.00  0.00    +0.000 A 
ATOM      4  C   UNL     1       3.421   5.137  17.539  0.00  0.00    +0.000 A 
ATOM      5  C   UNL     1       3.453   3.787  17.126  0.00  0.00    +0.000 A 
ATOM      6  C   UNL     1       2.568   2.863  17.684  0.00  0.00    +0.000 A 
ATOM      7  C   UNL     1       1.605   3.281  18.588  0.00  0.00    +0.000 A 
ATOM      8  C   UNL     1       1.516   4.624  18.972  0.00  0.00    +0.000 A 
ATOM      9  C   UNL     1       2.475   5.545  18.493  0.00  0.00    +0.000 A 
ENDROOT
BRANCH   1  15
ATOM     10  C   UNL     1      -0.127  11.114  19.642  0.00  0.00    +0.000 C 
ATOM     11  C   UNL     1       0.565   9.812  19.977  0.00  0.00    +0.000 A 
ATOM     12  C   UNL     1       0.365   9.373  21.297  0.00  0.00    +0.000 A 
ATOM     13  C   UNL     1       0.956   8.210  21.760  0.00  0.00    +0.000 A 
ATOM     14  C   UNL     1       1.746   7.457  20.903  0.00  0.00    +0.000 A 
ATOM     15  C   UNL     1       1.909   7.807  19.550  0.00  0.00    +0.000 A 
ATOM     16  C   UNL     1       1.313   9.010  19.059  0.00  0.00    +0.000 A 
ATOM     17  C   UNL     1       1.266   9.356  17.585  0.00  0.00    +0.000 C 
ENDBRANCH   1  15
BRANCH   3  18
ATOM     18  C   UNL     1       5.218   6.372  16.085  0.00  0.00    +0.000 C 
BRANCH  18  19
ATOM     19  C   UNL     1       6.646   6.488  16.671  0.00  0.00    +0.000 C 
BRANCH  19  20
ATOM     20  N   UNL     1       7.503   5.301  16.458  0.00  0.00    +0.000 NA
ATOM     21  C   UNL     1       7.649   4.505  17.678  0.00  0.00    +0.000 C 
ATOM     22  C   UNL     1       6.938   4.460  15.396  0.00  0.00    +0.000 C 
ENDBRANCH  19  20
ENDBRANCH  18  19
ENDBRANCH   3  18
TORSDOF 4
ENDMDL
MODEL 5
REMARK VINA RESULT:      -7.4      1.560      3.969
REMARK  Name = 
REMARK  8 active torsions:
REMARK  status: ('A' for Active; 'I' for Inactive)
REMARK    1  A    between atoms: C_1  and  C_2
REMARK    2  A    between atoms: C_6  and  N_7
REMARK    3  A    between atoms: C_9  and  C_10
REMARK    4  A    between atoms: C_10  and  C_11
REMARK    5  A    between atoms: C_11  and  N_12
REMARK    6  A    between atoms: N_12  and  C_13
REMARK    7  A    between atoms: N_12  and  C_14
REMARK    8  A    between atoms: C_21  and  C_22
REMARK                            x       y       z     vdW  Elec       q    Type
REMARK                         _______ _______ _______ _____ _____    ______ ____
ROOT
ATOM      1  N   UNL     1       2.812   6.532  18.755  0.00  0.00    +0.000 N 
ATOM      2  C   UNL     1       4.067   6.764  18.225  0.00  0.00    +0.000 A 
ATOM      3  C   UNL     1       4.406   5.750  17.360  0.00  0.00    +0.000 A 
ATOM      4  C   UNL     1       3.493   4.692  17.628  0.00  0.00    +0.000 A 
ATOM      5  C   UNL     1       3.434   3.347  17.201  0.00  0.00    +0.000 A 
ATOM      6  C   UNL     1       2.406   2.515  17.647  0.00  0.00    +0.000 A 
ATOM      7  C   UNL     1       1.397   3.026  18.449  0.00  0.00    +0.000 A 
ATOM      8  C   UNL     1       1.402   4.369  18.841  0.00  0.00    +0.000 A 
ATOM      9  C   UNL     1       2.495   5.190  18.481  0.00  0.00    +0.000 A 
ENDROOT
BRANCH   1  15
ATOM     10  C   UNL     1       0.348  10.986  19.421  0.00  0.00    +0.000 C 
ATOM     11  C   UNL     1       0.869   9.621  19.811  0.00  0.00    +0.000 A 
ATOM     12  C   UNL     1       0.489   9.202  21.098  0.00  0.00    +0.000 A 
ATOM     13  C   UNL     1       0.911   7.986  21.605  0.00  0.00    +0.000 A 
ATOM     14  C   UNL     1       1.709   7.159  20.827  0.00  0.00    +0.000 A 
ATOM     15  C   UNL     1       2.047   7.494  19.504  0.00  0.00    +0.000 A 
ATOM     16  C   UNL     1       1.628   8.751  18.967  0.00  0.00    +0.000 A 
ATOM     17  C   UNL     1       1.771   9.102  17.501  0.00  0.00    +0.000 C 
ENDBRANCH   1  15
BRANCH   3  18
ATOM     18  C   UNL     1       5.552   5.744  16.393  0.00  0.00    +0.000 C 
BRANCH  18  19
ATOM     19  C   UNL     1       6.789   5.029  16.988  0.00  0.00    +0.000 C 
BRANCH  19  20
ATOM     20  N   UNL     1       7.750   5.919  17.673  0.00  0.00    +0.000 NA
ATOM     21  C   UNL     1       7.531   7.327  17.335  0.00  0.00    +0.000 C 
ATOM     22  C   UNL     1       7.643   5.748  19.127  0.00  0.00    +0.000 C 
ENDBRANCH  19  20
ENDBRANCH  18  19
ENDBRANCH   3  18
TORSDOF 4
ENDMDL
MODEL 6
REMARK VINA RESULT:      -7.4      1.342      3.670
REMARK  Name = 
REMARK  8 active torsions:
REMARK  status: ('A' for Active; 'I' for Inactive)
REMARK    1  A    between atoms: C_1  and  C_2
REMARK    2  A    between atoms: C_6  and  N_7
REMARK    3  A    between atoms: C_9  and  C_10
REMARK    4  A    between atoms: C_10  and  C_11
REMARK    5  A    between atoms: C_11  and  N_12
REMARK    6  A    between atoms: N_12  and  C_13
REMARK    7  A    between atoms: N_12  and  C_14
REMARK    8  A    between atoms: C_21  and  C_22
REMARK                            x       y       z     vdW  Elec       q    Type
REMARK                         _______ _______ _______ _____ _____    ______ ____
ROOT
ATOM      1  N   UNL     1       2.870   6.091  18.182  0.00  0.00    +0.000 N 
ATOM      2  C   UNL     1       4.136   6.010  17.635  0.00  0.00    +0.000 A 
ATOM      3  C   UNL     1       4.335   4.760  17.097  0.00  0.00    +0.000 A 
ATOM      4  C   UNL     1       3.303   3.940  17.633  0.00  0.00    +0.000 A 
ATOM      5  C   UNL     1       3.072   2.547  17.600  0.00  0.00    +0.000 A 
ATOM      6  C   UNL     1       1.957   2.007  18.241  0.00  0.00    +0.000 A 
ATOM      7  C   UNL     1       1.030   2.841  18.846  0.00  0.00    +0.000 A 
ATOM      8  C   UNL     1       1.206   4.230  18.844  0.00  0.00    +0.000 A 
ATOM      9  C   UNL     1       2.386   4.776  18.290  0.00  0.00    +0.000 A 
ENDROOT
BRANCH   1  15
ATOM     10  C   UNL     1       0.630   9.190  21.609  0.00  0.00    +0.000 C 
ATOM     11  C   UNL     1       1.175   8.786  20.258  0.00  0.00    +0.000 A 
ATOM     12  C   UNL     1       1.107   9.793  19.280  0.00  0.00    +0.000 A 
ATOM     13  C   UNL     1       1.544   9.565  17.988  0.00  0.00    +0.000 A 
ATOM     14  C   UNL     1       2.072   8.325  17.653  0.00  0.00    +0.000 A 
ATOM     15  C   UNL     1       2.239   7.311  18.614  0.00  0.00    +0.000 A 
ATOM     16  C   UNL     1       1.785   7.529  19.952  0.00  0.00    +0.000 A 
ATOM     17  C   UNL     1       2.106   6.580  21.088  0.00  0.00    +0.000 C 
ENDBRANCH   1  15
BRANCH   3  18
ATOM     18  C   UNL     1       5.457   4.342  16.196  0.00  0.00    +0.000 C 
BRANCH  18  19
ATOM     19  C   UNL     1       6.364   5.541  15.830  0.00  0.00    +0.000 C 
BRANCH  19  20
ATOM     20  N   UNL     1       7.565   5.694  16.680  0.00  0.00    +0.000 NA
ATOM     21  C   UNL     1       7.548   6.951  17.432  0.00  0.00    +0.000 C 
ATOM     22  C   UNL     1       7.660   4.570  17.619  0.00  0.00    +0.000 C 
ENDBRANCH  19  20
ENDBRANCH  18  19
ENDBRANCH   3  18
TORSDOF 4
ENDMDL
MODEL 7
REMARK VINA RESULT:      -7.3      1.784      4.222
REMARK  Name = 
REMARK  8 active torsions:
REMARK  status: ('A' for Active; 'I' for Inactive)
REMARK    1  A    between atoms: C_1  and  C_2
REMARK    2  A    between atoms: C_6  and  N_7
REMARK    3  A    between atoms: C_9  and  C_10
REMARK    4  A    between atoms: C_10  and  C_11
REMARK    5  A    between atoms: C_11  and  N_12
REMARK    6  A    between atoms: N_12  and  C_13
REMARK    7  A    between atoms: N_12  and  C_14
REMARK    8  A    between atoms: C_21  and  C_22
REMARK                            x       y       z     vdW  Elec       q    Type
REMARK                         _______ _______ _______ _____ _____    ______ ____
ROOT
ATOM      1  N   UNL     1       2.778   6.082  19.572  0.00  0.00    +0.000 N 
ATOM      2  C   UNL     1       4.140   6.026  19.343  0.00  0.00    +0.000 A 
ATOM      3  C   UNL     1       4.478   4.799  18.821  0.00  0.00    +0.000 A 
ATOM      4  C   UNL     1       3.358   3.955  19.061  0.00  0.00    +0.000 A 
ATOM      5  C   UNL     1       3.159   2.564  18.921  0.00  0.00    +0.000 A 
ATOM      6  C   UNL     1       1.929   1.995  19.254  0.00  0.00    +0.000 A 
ATOM      7  C   UNL     1       0.874   2.802  19.650  0.00  0.00    +0.000 A 
ATOM      8  C   UNL     1       1.028   4.190  19.743  0.00  0.00    +0.000 A 
ATOM      9  C   UNL     1       2.299   4.762  19.510  0.00  0.00    +0.000 A 
ENDROOT
BRANCH   1  15
ATOM     10  C   UNL     1       0.914  10.764  18.590  0.00  0.00    +0.000 C 
ATOM     11  C   UNL     1       1.158   9.515  19.407  0.00  0.00    +0.000 A 
ATOM     12  C   UNL     1       0.512   9.504  20.655  0.00  0.00    +0.000 A 
ATOM     13  C   UNL     1       0.660   8.439  21.526  0.00  0.00    +0.000 A 
ATOM     14  C   UNL     1       1.448   7.357  21.156  0.00  0.00    +0.000 A 
ATOM     15  C   UNL     1       2.048   7.282  19.886  0.00  0.00    +0.000 A 
ATOM     16  C   UNL     1       1.912   8.377  18.978  0.00  0.00    +0.000 A 
ATOM     17  C   UNL     1       2.348   8.297  17.530  0.00  0.00    +0.000 C 
ENDBRANCH   1  15
BRANCH   3  18
ATOM     18  C   UNL     1       5.789   4.421  18.200  0.00  0.00    +0.000 C 
BRANCH  18  19
ATOM     19  C   UNL     1       6.311   5.536  17.262  0.00  0.00    +0.000 C 
BRANCH  19  20
ATOM     20  N   UNL     1       7.601   6.135  17.669  0.00  0.00    +0.000 NA
ATOM     21  C   UNL     1       7.596   7.593  17.527  0.00  0.00    +0.000 C 
ATOM     22  C   UNL     1       7.898   5.786  19.063  0.00  0.00    +0.000 C 
ENDBRANCH  19  20
ENDBRANCH  18  19
ENDBRANCH   3  18
TORSDOF 4
ENDMDL
MODEL 8
REMARK VINA RESULT:      -7.3      0.653      1.001
REMARK  Name = 
REMARK  8 active torsions:
REMARK  status: ('A' for Active; 'I' for Inactive)
REMARK    1  A    between atoms: C_1  and  C_2
REMARK    2  A    between atoms: C_6  and  N_7
REMARK    3  A    between atoms: C_9  and  C_10
REMARK    4  A    between atoms: C_10  and  C_11
REMARK    5  A    between atoms: C_11  and  N_12
REMARK    6  A    between atoms: N_12  and  C_13
REMARK    7  A    between atoms: N_12  and  C_14
REMARK    8  A    between atoms: C_21  and  C_22
REMARK                            x       y       z     vdW  Elec       q    Type
REMARK                         _______ _______ _______ _____ _____    ______ ____
ROOT
ATOM      1  N   UNL     1       2.945   6.314  17.987  0.00  0.00    +0.000 N 
ATOM      2  C   UNL     1       2.274   5.128  17.758  0.00  0.00    +0.000 A 
ATOM      3  C   UNL     1       3.176   4.114  17.536  0.00  0.00    +0.000 A 
ATOM      4  C   UNL     1       4.420   4.753  17.275  0.00  0.00    +0.000 A 
ATOM      5  C   UNL     1       5.666   4.273  16.814  0.00  0.00    +0.000 A 
ATOM      6  C   UNL     1       6.732   5.154  16.634  0.00  0.00    +0.000 A 
ATOM      7  C   UNL     1       6.597   6.490  16.978  0.00  0.00    +0.000 A 
ATOM      8  C   UNL     1       5.390   6.980  17.489  0.00  0.00    +0.000 A 
ATOM      9  C   UNL     1       4.274   6.118  17.576  0.00  0.00    +0.000 A 
ENDROOT
BRANCH   1  15
ATOM     10  C   UNL     1       0.552   9.184  21.508  0.00  0.00    +0.000 C 
ATOM     11  C   UNL     1       1.196   8.883  20.174  0.00  0.00    +0.000 A 
ATOM     12  C   UNL     1       1.261   9.982  19.301  0.00  0.00    +0.000 A 
ATOM     13  C   UNL     1       1.801   9.856  18.034  0.00  0.00    +0.000 A 
ATOM     14  C   UNL     1       2.300   8.628  17.621  0.00  0.00    +0.000 A 
ATOM     15  C   UNL     1       2.335   7.519  18.485  0.00  0.00    +0.000 A 
ATOM     16  C   UNL     1       1.773   7.630  19.795  0.00  0.00    +0.000 A 
ATOM     17  C   UNL     1       1.948   6.560  20.852  0.00  0.00    +0.000 C 
ENDBRANCH   1  15
BRANCH   3  18
ATOM     18  C   UNL     1       2.880   2.645  17.503  0.00  0.00    +0.000 C 
BRANCH  18  19
ATOM     19  C   UNL     1       3.062   2.001  18.898  0.00  0.00    +0.000 C 
BRANCH  19  20
ATOM     20  N   UNL     1       1.823   1.894  19.699  0.00  0.00    +0.000 NA
ATOM     21  C   UNL     1       1.827   2.815  20.838  0.00  0.00    +0.000 C 
ATOM     22  C   UNL     1       0.655   2.173  18.855  0.00  0.00    +0.000 C 
ENDBRANCH  19  20
ENDBRANCH  18  19
ENDBRANCH   3  18
TORSDOF 4
ENDMDL
MODEL 9
REMARK VINA RESULT:      -7.2      1.808      4.059
REMARK  Name = 
REMARK  8 active torsions:
REMARK  status: ('A' for Active; 'I' for Inactive)
REMARK    1  A    between atoms: C_1  and  C_2
REMARK    2  A    between atoms: C_6  and  N_7
REMARK    3  A    between atoms: C_9  and  C_10
REMARK    4  A    between atoms: C_10  and  C_11
REMARK    5  A    between atoms: C_11  and  N_12
REMARK    6  A    between atoms: N_12  and  C_13
REMARK    7  A    between atoms: N_12  and  C_14
REMARK    8  A    between atoms: C_21  and  C_22
REMARK                            x       y       z     vdW  Elec       q    Type
REMARK                         _______ _______ _______ _____ _____    ______ ____
ROOT
ATOM      1  N   UNL     1       3.096   6.490  18.086  0.00  0.00    +0.000 N 
ATOM      2  C   UNL     1       4.410   6.539  17.662  0.00  0.00    +0.000 A 
ATOM      3  C   UNL     1       4.745   5.363  17.033  0.00  0.00    +0.000 A 
ATOM      4  C   UNL     1       3.727   4.433  17.384  0.00  0.00    +0.000 A 
ATOM      5  C   UNL     1       3.597   3.039  17.200  0.00  0.00    +0.000 A 
ATOM      6  C   UNL     1       2.467   2.372  17.674  0.00  0.00    +0.000 A 
ATOM      7  C   UNL     1       1.432   3.085  18.258  0.00  0.00    +0.000 A 
ATOM      8  C   UNL     1       1.511   4.475  18.403  0.00  0.00    +0.000 A 
ATOM      9  C   UNL     1       2.696   5.144  18.022  0.00  0.00    +0.000 A 
ENDROOT
BRANCH   1  15
ATOM     10  C   UNL     1       0.417   9.132  21.579  0.00  0.00    +0.000 C 
ATOM     11  C   UNL     1       1.071   8.877  20.239  0.00  0.00    +0.000 A 
ATOM     12  C   UNL     1       0.979   9.950  19.337  0.00  0.00    +0.000 A 
ATOM     13  C   UNL     1       1.509   9.857  18.062  0.00  0.00    +0.000 A 
ATOM     14  C   UNL     1       2.153   8.691  17.672  0.00  0.00    +0.000 A 
ATOM     15  C   UNL     1       2.345   7.621  18.564  0.00  0.00    +0.000 A 
ATOM     16  C   UNL     1       1.797   7.698  19.882  0.00  0.00    +0.000 A 
ATOM     17  C   UNL     1       2.126   6.690  20.964  0.00  0.00    +0.000 C 
ENDBRANCH   1  15
BRANCH   3  18
ATOM     18  C   UNL     1       5.972   5.105  16.212  0.00  0.00    +0.000 C 
BRANCH  18  19
ATOM     19  C   UNL     1       5.630   4.980  14.708  0.00  0.00    +0.000 C 
BRANCH  19  20
ATOM     20  N   UNL     1       6.598   4.193  13.914  0.00  0.00    +0.000 NA
ATOM     21  C   UNL     1       5.958   3.515  12.785  0.00  0.00    +0.000 C 
ATOM     22  C   UNL     1       7.663   5.069  13.411  0.00  0.00    +0.000 C 
ENDBRANCH  19  20
ENDBRANCH  18  19
ENDBRANCH   3  18
TORSDOF 4
ENDMDL
