MODEL 1
REMARK VINA RESULT:      -7.2      0.000      0.000
REMARK  Name = 
REMARK  4 active torsions:
REMARK  status: ('A' for Active; 'I' for Inactive)
REMARK    1  A    between atoms: C_3  and  O_4
REMARK    2  A    between atoms: C_5  and  C_6
REMARK    3  A    between atoms: C_6  and  O_7
REMARK    4  A    between atoms: C_9  and  N_10
REMARK                            x       y       z     vdW  Elec       q    Type
REMARK                         _______ _______ _______ _____ _____    ______ ____
ROOT
ATOM      1  C   UNL     1       2.848   6.607  18.183  0.00  0.00    +0.000 C 
ATOM      2  C   UNL     1       3.369   5.370  18.196  0.00  0.00    +0.000 C 
ATOM      3  C   UNL     1       2.612   4.086  18.209  0.00  0.00    +0.000 C 
ATOM      4  C   UNL     1       3.493   3.275  19.152  0.00  0.00    +0.000 C 
ATOM      5  O   UNL     1       4.841   3.617  18.796  0.00  0.00    +0.000 OA
ATOM      6  C   UNL     1       4.823   5.003  18.379  0.00  0.00    +0.000 C 
ENDROOT
BRANCH   6   7
ATOM      7  N   UNL     1       5.564   5.145  17.130  0.00  0.00    +0.000 N 
ATOM      8  C   UNL     1       5.136   4.524  15.964  0.00  0.00    +0.000 A 
ATOM      9  C   UNL     1       5.839   4.589  14.835  0.00  0.00    +0.000 A 
ATOM     10  F   UNL     1       5.446   3.969  13.708  0.00  0.00    +0.000 F 
ATOM     11  C   UNL     1       7.108   5.336  14.802  0.00  0.00    +0.000 A 
ATOM     12  O   UNL     1       7.831   5.377  13.815  0.00  0.00    +0.000 OA
ATOM     13  N   UNL     1       7.421   5.981  15.972  0.00  0.00    +0.000 N 
ATOM     14  C   UNL     1       6.726   5.910  17.156  0.00  0.00    +0.000 A 
ATOM     15  O   UNL     1       7.148   6.493  18.152  0.00  0.00    +0.000 OA
ATOM     16  H   UNL     1       8.285   6.501  15.986  0.00  0.00    +0.000 HD
ENDBRANCH   6   7
BRANCH   3  17
ATOM     17  O   UNL     1       1.281   4.190  18.677  0.00  0.00    +0.000 OA
ATOM     18  H   UNL     1       0.714   4.423  17.919  0.00  0.00    +0.000 HD
ENDBRANCH   3  17
BRANCH   4  19
ATOM     19  C   UNL     1       3.229   1.777  19.025  0.00  0.00    +0.000 C 
BRANCH  19  20
ATOM     20  O   UNL     1       2.117   1.507  18.177  0.00  0.00    +0.000 OA
ATOM     21  H   UNL     1       1.583   0.794  18.582  0.00  0.00    +0.000 HD
ENDBRANCH  19  20
ENDBRANCH   4  19
TORSDOF 4
ENDMDL
MODEL 2
REMARK VINA RESULT:      -7.1      2.648      5.696
REMARK  Name = 
REMARK  4 active torsions:
REMARK  status: ('A' for Active; 'I' for Inactive)
REMARK    1  A    between atoms: C_3  and  O_4
REMARK    2  A    between atoms: C_5  and  C_6
REMARK    3  A    between atoms: C_6  and  O_7
REMARK    4  A    between atoms: C_9  and  N_10
REMARK                            x       y       z     vdW  Elec       q    Type
REMARK                         _______ _______ _______ _____ _____    ______ ____
ROOT
ATOM      1  C   UNL     1       5.280   4.751  15.502  0.00  0.00    +0.000 C 
ATOM      2  C   UNL     1       5.696   4.894  16.770  0.00  0.00    +0.000 C 
ATOM      3  C   UNL     1       6.596   5.959  17.296  0.00  0.00    +0.000 C 
ATOM      4  C   UNL     1       7.421   5.140  18.282  0.00  0.00    +0.000 C 
ATOM      5  O   UNL     1       6.485   4.248  18.905  0.00  0.00    +0.000 OA
ATOM      6  C   UNL     1       5.494   3.916  17.905  0.00  0.00    +0.000 C 
ENDROOT
BRANCH   6   7
ATOM      7  N   UNL     1       4.159   4.046  18.481  0.00  0.00    +0.000 N 
ATOM      8  C   UNL     1       3.767   5.206  19.136  0.00  0.00    +0.000 A 
ATOM      9  C   UNL     1       2.578   5.312  19.725  0.00  0.00    +0.000 A 
ATOM     10  F   UNL     1       2.199   6.423  20.383  0.00  0.00    +0.000 F 
ATOM     11  C   UNL     1       1.639   4.179  19.692  0.00  0.00    +0.000 A 
ATOM     12  O   UNL     1       0.559   4.191  20.270  0.00  0.00    +0.000 OA
ATOM     13  N   UNL     1       2.071   3.100  18.963  0.00  0.00    +0.000 N 
ATOM     14  C   UNL     1       3.302   2.957  18.367  0.00  0.00    +0.000 A 
ATOM     15  O   UNL     1       3.586   1.910  17.789  0.00  0.00    +0.000 OA
ATOM     16  H   UNL     1       1.453   2.304  18.921  0.00  0.00    +0.000 HD
ENDBRANCH   6   7
BRANCH   3  17
ATOM     17  O   UNL     1       7.401   6.589  16.318  0.00  0.00    +0.000 OA
ATOM     18  H   UNL     1       7.331   6.072  15.494  0.00  0.00    +0.000 HD
ENDBRANCH   3  17
BRANCH   4  19
ATOM     19  C   UNL     1       8.134   6.027  19.298  0.00  0.00    +0.000 C 
BRANCH  19  20
ATOM     20  O   UNL     1       8.132   5.447  20.599  0.00  0.00    +0.000 OA
ATOM     21  H   UNL     1       9.058   5.345  20.896  0.00  0.00    +0.000 HD
ENDBRANCH  19  20
ENDBRANCH   4  19
TORSDOF 4
ENDMDL
MODEL 3
REMARK VINA RESULT:      -7.0      1.175      1.699
REMARK  Name = 
REMARK  4 active torsions:
REMARK  status: ('A' for Active; 'I' for Inactive)
REMARK    1  A    between atoms: C_3  and  O_4
REMARK    2  A    between atoms: C_5  and  C_6
REMARK    3  A    between atoms: C_6  and  O_7
REMARK    4  A    between atoms: C_9  and  N_10
REMARK                            x       y       z     vdW  Elec       q    Type
REMARK                         _______ _______ _______ _____ _____    ______ ____
ROOT
ATOM      1  C   UNL     1       2.130   4.324  17.633  0.00  0.00    +0.000 C 
ATOM      2  C   UNL     1       3.239   3.746  18.120  0.00  0.00    +0.000 C 
ATOM      3  C   UNL     1       3.384   2.327  18.554  0.00  0.00    +0.000 C 
ATOM      4  C   UNL     1       4.278   2.519  19.774  0.00  0.00    +0.000 C 
ATOM      5  O   UNL     1       5.221   3.532  19.394  0.00  0.00    +0.000 OA
ATOM      6  C   UNL     1       4.526   4.437  18.505  0.00  0.00    +0.000 C 
ENDROOT
BRANCH   6   7
ATOM      7  N   UNL     1       5.354   4.700  17.332  0.00  0.00    +0.000 N 
ATOM      8  C   UNL     1       5.140   4.029  16.135  0.00  0.00    +0.000 A 
ATOM      9  C   UNL     1       5.930   4.209  15.078  0.00  0.00    +0.000 A 
ATOM     10  F   UNL     1       5.746   3.545  13.923  0.00  0.00    +0.000 F 
ATOM     11  C   UNL     1       7.068   5.139  15.163  0.00  0.00    +0.000 A 
ATOM     12  O   UNL     1       7.869   5.297  14.249  0.00  0.00    +0.000 OA
ATOM     13  N   UNL     1       7.166   5.816  16.352  0.00  0.00    +0.000 N 
ATOM     14  C   UNL     1       6.378   5.631  17.465  0.00  0.00    +0.000 A 
ATOM     15  O   UNL     1       6.609   6.264  18.492  0.00  0.00    +0.000 OA
ATOM     16  H   UNL     1       7.936   6.460  16.446  0.00  0.00    +0.000 HD
ENDBRANCH   6   7
BRANCH   3  17
ATOM     17  O   UNL     1       2.168   1.680  18.877  0.00  0.00    +0.000 OA
ATOM     18  H   UNL     1       1.646   1.595  18.058  0.00  0.00    +0.000 HD
ENDBRANCH   3  17
BRANCH   4  19
ATOM     19  C   UNL     1       4.965   1.218  20.182  0.00  0.00    +0.000 C 
BRANCH  19  20
ATOM     20  O   UNL     1       5.547   1.313  21.479  0.00  0.00    +0.000 OA
ATOM     21  H   UNL     1       6.476   1.010  21.425  0.00  0.00    +0.000 HD
ENDBRANCH  19  20
ENDBRANCH   4  19
TORSDOF 4
ENDMDL
MODEL 4
REMARK VINA RESULT:      -6.8      2.452      5.269
REMARK  Name = 
REMARK  4 active torsions:
REMARK  status: ('A' for Active; 'I' for Inactive)
REMARK    1  A    between atoms: C_3  and  O_4
REMARK    2  A    between atoms: C_5  and  C_6
REMARK    3  A    between atoms: C_6  and  O_7
REMARK    4  A    between atoms: C_9  and  N_10
REMARK                            x       y       z     vdW  Elec       q    Type
REMARK                         _______ _______ _______ _____ _____    ______ ____
ROOT
ATOM      1  C   UNL     1       6.606   5.322  19.319  0.00  0.00    +0.000 C 
ATOM      2  C   UNL     1       6.051   5.147  18.110  0.00  0.00    +0.000 C 
ATOM      3  C   UNL     1       6.697   4.533  16.915  0.00  0.00    +0.000 C 
ATOM      4  C   UNL     1       6.134   5.435  15.823  0.00  0.00    +0.000 C 
ATOM      5  O   UNL     1       4.766   5.662  16.191  0.00  0.00    +0.000 OA
ATOM      6  C   UNL     1       4.721   5.687  17.637  0.00  0.00    +0.000 C 
ENDROOT
BRANCH   6   7
ATOM      7  N   UNL     1       3.617   4.853  18.104  0.00  0.00    +0.000 N 
ATOM      8  C   UNL     1       3.402   3.585  17.581  0.00  0.00    +0.000 A 
ATOM      9  C   UNL     1       2.359   2.842  17.948  0.00  0.00    +0.000 A 
ATOM     10  F   UNL     1       2.128   1.623  17.429  0.00  0.00    +0.000 F 
ATOM     11  C   UNL     1       1.398   3.363  18.935  0.00  0.00    +0.000 A 
ATOM     12  O   UNL     1       0.386   2.756  19.263  0.00  0.00    +0.000 OA
ATOM     13  N   UNL     1       1.723   4.589  19.457  0.00  0.00    +0.000 N 
ATOM     14  C   UNL     1       2.779   5.386  19.077  0.00  0.00    +0.000 A 
ATOM     15  O   UNL     1       2.925   6.494  19.586  0.00  0.00    +0.000 OA
ATOM     16  H   UNL     1       1.085   4.977  20.134  0.00  0.00    +0.000 HD
ENDBRANCH   6   7
BRANCH   3  17
ATOM     17  O   UNL     1       8.112   4.541  16.940  0.00  0.00    +0.000 OA
ATOM     18  H   UNL     1       8.425   4.895  16.087  0.00  0.00    +0.000 HD
ENDBRANCH   3  17
BRANCH   4  19
ATOM     19  C   UNL     1       6.259   4.797  14.442  0.00  0.00    +0.000 C 
BRANCH  19  20
ATOM     20  O   UNL     1       6.378   3.380  14.523  0.00  0.00    +0.000 OA
ATOM     21  H   UNL     1       5.831   3.065  15.271  0.00  0.00    +0.000 HD
ENDBRANCH  19  20
ENDBRANCH   4  19
TORSDOF 4
ENDMDL
MODEL 5
REMARK VINA RESULT:      -6.8      2.352      5.610
REMARK  Name = 
REMARK  4 active torsions:
REMARK  status: ('A' for Active; 'I' for Inactive)
REMARK    1  A    between atoms: C_3  and  O_4
REMARK    2  A    between atoms: C_5  and  C_6
REMARK    3  A    between atoms: C_6  and  O_7
REMARK    4  A    between atoms: C_9  and  N_10
REMARK                            x       y       z     vdW  Elec       q    Type
REMARK                         _______ _______ _______ _____ _____    ______ ____
ROOT
ATOM      1  C   UNL     1       5.850   3.491  15.600  0.00  0.00    +0.000 C 
ATOM      2  C   UNL     1       6.076   4.305  16.644  0.00  0.00    +0.000 C 
ATOM      3  C   UNL     1       6.668   5.672  16.594  0.00  0.00    +0.000 C 
ATOM      4  C   UNL     1       7.525   5.630  17.855  0.00  0.00    +0.000 C 
ATOM      5  O   UNL     1       6.727   4.940  18.828  0.00  0.00    +0.000 OA
ATOM      6  C   UNL     1       5.949   3.955  18.109  0.00  0.00    +0.000 C 
ENDROOT
BRANCH   6   7
ATOM      7  N   UNL     1       4.559   4.017  18.547  0.00  0.00    +0.000 N 
ATOM      8  C   UNL     1       3.663   4.911  17.975  0.00  0.00    +0.000 A 
ATOM      9  C   UNL     1       2.411   5.027  18.412  0.00  0.00    +0.000 A 
ATOM     10  F   UNL     1       1.543   5.908  17.882  0.00  0.00    +0.000 F 
ATOM     11  C   UNL     1       1.945   4.192  19.532  0.00  0.00    +0.000 A 
ATOM     12  O   UNL     1       0.827   4.298  20.022  0.00  0.00    +0.000 OA
ATOM     13  N   UNL     1       2.865   3.285  19.990  0.00  0.00    +0.000 N 
ATOM     14  C   UNL     1       4.171   3.163  19.573  0.00  0.00    +0.000 A 
ATOM     15  O   UNL     1       4.912   2.343  20.109  0.00  0.00    +0.000 OA
ATOM     16  H   UNL     1       2.580   2.697  20.759  0.00  0.00    +0.000 HD
ENDBRANCH   6   7
BRANCH   3  17
ATOM     17  O   UNL     1       7.434   5.942  15.435  0.00  0.00    +0.000 OA
ATOM     18  H   UNL     1       8.366   6.028  15.705  0.00  0.00    +0.000 HD
ENDBRANCH   3  17
BRANCH   4  19
ATOM     19  C   UNL     1       7.915   7.031  18.320  0.00  0.00    +0.000 C 
BRANCH  19  20
ATOM     20  O   UNL     1       7.765   7.993  17.280  0.00  0.00    +0.000 OA
ATOM     21  H   UNL     1       8.606   8.484  17.188  0.00  0.00    +0.000 HD
ENDBRANCH  19  20
ENDBRANCH   4  19
TORSDOF 4
ENDMDL
MODEL 6
REMARK VINA RESULT:      -6.7      1.176      1.207
REMARK  Name = 
REMARK  4 active torsions:
REMARK  status: ('A' for Active; 'I' for Inactive)
REMARK    1  A    between atoms: C_3  and  O_4
REMARK    2  A    between atoms: C_5  and  C_6
REMARK    3  A    between atoms: C_6  and  O_7
REMARK    4  A    between atoms: C_9  and  N_10
REMARK                            x       y       z     vdW  Elec       q    Type
REMARK                         _______ _______ _______ _____ _____    ______ ____
ROOT
ATOM      1  C   UNL     1       4.062   5.870  19.780  0.00  0.00    +0.000 C 
ATOM      2  C   UNL     1       3.833   4.748  19.079  0.00  0.00    +0.000 C 
ATOM      3  C   UNL     1       2.503   4.173  18.730  0.00  0.00    +0.000 C 
ATOM      4  C   UNL     1       2.809   2.689  18.900  0.00  0.00    +0.000 C 
ATOM      5  O   UNL     1       4.128   2.513  18.362  0.00  0.00    +0.000 OA
ATOM      6  C   UNL     1       4.860   3.728  18.643  0.00  0.00    +0.000 C 
ENDROOT
BRANCH   6   7
ATOM      7  N   UNL     1       5.558   4.166  17.438  0.00  0.00    +0.000 N 
ATOM      8  C   UNL     1       4.970   4.057  16.185  0.00  0.00    +0.000 A 
ATOM      9  C   UNL     1       5.622   4.388  15.072  0.00  0.00    +0.000 A 
ATOM     10  F   UNL     1       5.069   4.262  13.852  0.00  0.00    +0.000 F 
ATOM     11  C   UNL     1       7.005   4.885  15.152  0.00  0.00    +0.000 A 
ATOM     12  O   UNL     1       7.679   5.142  14.162  0.00  0.00    +0.000 OA
ATOM     13  N   UNL     1       7.486   5.033  16.428  0.00  0.00    +0.000 N 
ATOM     14  C   UNL     1       6.843   4.677  17.591  0.00  0.00    +0.000 A 
ATOM     15  O   UNL     1       7.411   4.809  18.673  0.00  0.00    +0.000 OA
ATOM     16  H   UNL     1       8.432   5.370  16.521  0.00  0.00    +0.000 HD
ENDBRANCH   6   7
BRANCH   3  17
ATOM     17  O   UNL     1       1.439   4.599  19.559  0.00  0.00    +0.000 OA
ATOM     18  H   UNL     1       1.160   5.483  19.259  0.00  0.00    +0.000 HD
ENDBRANCH   3  17
BRANCH   4  19
ATOM     19  C   UNL     1       1.777   1.814  18.193  0.00  0.00    +0.000 C 
BRANCH  19  20
ATOM     20  O   UNL     1       0.449   2.274  18.422  0.00  0.00    +0.000 OA
ATOM     21  H   UNL     1       0.166   1.977  19.310  0.00  0.00    +0.000 HD
ENDBRANCH  19  20
ENDBRANCH   4  19
TORSDOF 4
ENDMDL
MODEL 7
REMARK VINA RESULT:      -6.7      1.527      1.869
REMARK  Name = 
REMARK  4 active torsions:
REMARK  status: ('A' for Active; 'I' for Inactive)
REMARK    1  A    between atoms: C_3  and  O_4
REMARK    2  A    between atoms: C_5  and  C_6
REMARK    3  A    between atoms: C_6  and  O_7
REMARK    4  A    between atoms: C_9  and  N_10
REMARK                            x       y       z     vdW  Elec       q    Type
REMARK                         _______ _______ _______ _____ _____    ______ ____
ROOT
ATOM      1  C   UNL     1       1.256   4.331  17.571  0.00  0.00    +0.000 C 
ATOM      2  C   UNL     1       2.404   4.003  18.184  0.00  0.00    +0.000 C 
ATOM      3  C   UNL     1       2.707   2.717  18.874  0.00  0.00    +0.000 C 
ATOM      4  C   UNL     1       3.509   3.241  20.060  0.00  0.00    +0.000 C 
ATOM      5  O   UNL     1       4.333   4.286  19.524  0.00  0.00    +0.000 OA
ATOM      6  C   UNL     1       3.573   4.917  18.467  0.00  0.00    +0.000 C 
ENDROOT
BRANCH   6   7
ATOM      7  N   UNL     1       4.417   5.074  17.287  0.00  0.00    +0.000 N 
ATOM      8  C   UNL     1       4.902   3.970  16.597  0.00  0.00    +0.000 A 
ATOM      9  C   UNL     1       5.728   4.097  15.560  0.00  0.00    +0.000 A 
ATOM     10  F   UNL     1       6.222   3.034  14.901  0.00  0.00    +0.000 F 
ATOM     11  C   UNL     1       6.151   5.437  15.119  0.00  0.00    +0.000 A 
ATOM     12  O   UNL     1       6.960   5.616  14.217  0.00  0.00    +0.000 OA
ATOM     13  N   UNL     1       5.571   6.474  15.805  0.00  0.00    +0.000 N 
ATOM     14  C   UNL     1       4.735   6.369  16.892  0.00  0.00    +0.000 A 
ATOM     15  O   UNL     1       4.328   7.383  17.454  0.00  0.00    +0.000 OA
ATOM     16  H   UNL     1       5.841   7.406  15.530  0.00  0.00    +0.000 HD
ENDBRANCH   6   7
BRANCH   3  17
ATOM     17  O   UNL     1       1.568   1.982  19.281  0.00  0.00    +0.000 OA
ATOM     18  H   UNL     1       0.793   2.569  19.215  0.00  0.00    +0.000 HD
ENDBRANCH   3  17
BRANCH   4  19
ATOM     19  C   UNL     1       4.334   2.138  20.717  0.00  0.00    +0.000 C 
BRANCH  19  20
ATOM     20  O   UNL     1       5.115   1.423  19.764  0.00  0.00    +0.000 OA
ATOM     21  H   UNL     1       6.013   1.296  20.130  0.00  0.00    +0.000 HD
ENDBRANCH  19  20
ENDBRANCH   4  19
TORSDOF 4
ENDMDL
MODEL 8
REMARK VINA RESULT:      -6.6      2.849      5.593
REMARK  Name = 
REMARK  4 active torsions:
REMARK  status: ('A' for Active; 'I' for Inactive)
REMARK    1  A    between atoms: C_3  and  O_4
REMARK    2  A    between atoms: C_5  and  C_6
REMARK    3  A    between atoms: C_6  and  O_7
REMARK    4  A    between atoms: C_9  and  N_10
REMARK                            x       y       z     vdW  Elec       q    Type
REMARK                         _______ _______ _______ _____ _____    ______ ____
ROOT
ATOM      1  C   UNL     1       3.612   7.289  17.476  0.00  0.00    +0.000 C 
ATOM      2  C   UNL     1       4.344   6.167  17.388  0.00  0.00    +0.000 C 
ATOM      3  C   UNL     1       5.830   6.068  17.449  0.00  0.00    +0.000 C 
ATOM      4  C   UNL     1       6.062   4.987  16.400  0.00  0.00    +0.000 C 
ATOM      5  O   UNL     1       5.005   4.037  16.599  0.00  0.00    +0.000 OA
ATOM      6  C   UNL     1       3.845   4.787  17.030  0.00  0.00    +0.000 C 
ENDROOT
BRANCH   6   7
ATOM      7  N   UNL     1       3.241   4.129  18.185  0.00  0.00    +0.000 N 
ATOM      8  C   UNL     1       4.025   3.549  19.174  0.00  0.00    +0.000 A 
ATOM      9  C   UNL     1       3.488   2.887  20.197  0.00  0.00    +0.000 A 
ATOM     10  F   UNL     1       4.239   2.301  21.146  0.00  0.00    +0.000 F 
ATOM     11  C   UNL     1       2.025   2.754  20.298  0.00  0.00    +0.000 A 
ATOM     12  O   UNL     1       1.475   2.102  21.177  0.00  0.00    +0.000 OA
ATOM     13  N   UNL     1       1.323   3.417  19.324  0.00  0.00    +0.000 N 
ATOM     14  C   UNL     1       1.853   4.087  18.246  0.00  0.00    +0.000 A 
ATOM     15  O   UNL     1       1.107   4.591  17.409  0.00  0.00    +0.000 OA
ATOM     16  H   UNL     1       0.317   3.346  19.362  0.00  0.00    +0.000 HD
ENDBRANCH   6   7
BRANCH   3  17
ATOM     17  O   UNL     1       6.516   7.268  17.143  0.00  0.00    +0.000 OA
ATOM     18  H   UNL     1       7.391   7.230  17.569  0.00  0.00    +0.000 HD
ENDBRANCH   3  17
BRANCH   4  19
ATOM     19  C   UNL     1       7.442   4.349  16.540  0.00  0.00    +0.000 C 
BRANCH  19  20
ATOM     20  O   UNL     1       7.866   4.303  17.899  0.00  0.00    +0.000 OA
ATOM     21  H   UNL     1       7.090   4.461  18.473  0.00  0.00    +0.000 HD
ENDBRANCH  19  20
ENDBRANCH   4  19
TORSDOF 4
ENDMDL
MODEL 9
REMARK VINA RESULT:      -6.5      3.095      5.425
REMARK  Name = 
REMARK  4 active torsions:
REMARK  status: ('A' for Active; 'I' for Inactive)
REMARK    1  A    between atoms: C_3  and  O_4
REMARK    2  A    between atoms: C_5  and  C_6
REMARK    3  A    between atoms: C_6  and  O_7
REMARK    4  A    between atoms: C_9  and  N_10
REMARK                            x       y       z     vdW  Elec       q    Type
REMARK                         _______ _______ _______ _____ _____    ______ ____
ROOT
ATOM      1  C   UNL     1       2.749   3.196  17.271  0.00  0.00    +0.000 C 
ATOM      2  C   UNL     1       3.749   3.943  17.765  0.00  0.00    +0.000 C 
ATOM      3  C   UNL     1       5.032   4.275  17.083  0.00  0.00    +0.000 C 
ATOM      4  C   UNL     1       5.987   4.187  18.268  0.00  0.00    +0.000 C 
ATOM      5  O   UNL     1       5.277   4.777  19.367  0.00  0.00    +0.000 OA
ATOM      6  C   UNL     1       3.878   4.462  19.179  0.00  0.00    +0.000 C 
ENDROOT
BRANCH   6   7
ATOM      7  N   UNL     1       3.077   5.666  19.373  0.00  0.00    +0.000 N 
ATOM      8  C   UNL     1       3.094   6.699  18.445  0.00  0.00    +0.000 A 
ATOM      9  C   UNL     1       2.422   7.832  18.643  0.00  0.00    +0.000 A 
ATOM     10  F   UNL     1       2.452   8.848  17.762  0.00  0.00    +0.000 F 
ATOM     11  C   UNL     1       1.634   8.012  19.874  0.00  0.00    +0.000 A 
ATOM     12  O   UNL     1       1.049   9.054  20.143  0.00  0.00    +0.000 OA
ATOM     13  N   UNL     1       1.609   6.919  20.701  0.00  0.00    +0.000 N 
ATOM     14  C   UNL     1       2.313   5.749  20.532  0.00  0.00    +0.000 A 
ATOM     15  O   UNL     1       2.248   4.865  21.382  0.00  0.00    +0.000 OA
ATOM     16  H   UNL     1       1.081   7.008  21.556  0.00  0.00    +0.000 HD
ENDBRANCH   6   7
BRANCH   3  17
ATOM     17  O   UNL     1       5.392   3.391  16.039  0.00  0.00    +0.000 OA
ATOM     18  H   UNL     1       6.217   2.941  16.297  0.00  0.00    +0.000 HD
ENDBRANCH   3  17
BRANCH   4  19
ATOM     19  C   UNL     1       7.306   4.901  17.986  0.00  0.00    +0.000 C 
BRANCH  19  20
ATOM     20  O   UNL     1       8.134   4.151  17.103  0.00  0.00    +0.000 OA
ATOM     21  H   UNL     1       7.827   3.222  17.102  0.00  0.00    +0.000 HD
ENDBRANCH  19  20
ENDBRANCH   4  19
TORSDOF 4
ENDMDL
