MODEL 1
REMARK VINA RESULT:      -8.9      0.000      0.000
REMARK  Name = 
REMARK  5 active torsions:
REMARK  status: ('A' for Active; 'I' for Inactive)
REMARK    1  A    between atoms: C_1  and  C_2
REMARK    2  A    between atoms: C_2  and  C_3
REMARK    3  A    between atoms: N_16  and  C_17
REMARK    4  A    between atoms: C_17  and  C_18
REMARK    5  A    between atoms: C_18  and  C_20
REMARK                            x       y       z     vdW  Elec       q    Type
REMARK                         _______ _______ _______ _____ _____    ______ ____
ROOT
ATOM      1  C   UNL     1       2.150   4.740  17.684  0.00  0.00    +0.000 C 
ATOM      2  C   UNL     1       3.171   5.711  18.276  0.00  0.00    +0.000 C 
ATOM      3  N   UNL     1       3.940   5.091  19.334  0.00  0.00    +0.000 N 
ATOM      4  C   UNL     1       5.285   5.347  19.209  0.00  0.00    +0.000 C 
ATOM      5  O   UNL     1       6.101   5.141  20.094  0.00  0.00    +0.000 OA
ATOM      6  N   UNL     1       5.520   5.868  17.978  0.00  0.00    +0.000 N 
ATOM      7  C   UNL     1       4.342   6.006  17.297  0.00  0.00    +0.000 C 
ATOM      8  O   UNL     1       4.231   6.378  16.135  0.00  0.00    +0.000 OA
ATOM      9  H   UNL     1       3.561   4.772  20.216  0.00  0.00    +0.000 HD
ENDROOT
BRANCH   2  10
ATOM     10  C   UNL     1       2.506   7.014  18.738  0.00  0.00    +0.000 A 
ATOM     11  C   UNL     1       2.259   8.090  17.862  0.00  0.00    +0.000 A 
ATOM     12  C   UNL     1       1.644   9.263  18.310  0.00  0.00    +0.000 A 
ATOM     13  C   UNL     1       1.272   9.387  19.645  0.00  0.00    +0.000 A 
ATOM     14  C   UNL     1       1.492   8.329  20.526  0.00  0.00    +0.000 A 
ATOM     15  C   UNL     1       2.112   7.160  20.082  0.00  0.00    +0.000 A 
ATOM     16  O   UNL     1       1.132   8.367  21.849  0.00  0.00    +0.000 OA
ATOM     17  C   UNL     1       0.208   9.430  22.107  0.00  0.00    +0.000 C 
ATOM     18  C   UNL     1       0.662  10.716  21.436  0.00  0.00    +0.000 C 
ATOM     19  O   UNL     1       0.685  10.569  20.013  0.00  0.00    +0.000 OA
ENDBRANCH   2  10
BRANCH   6  20
ATOM     20  C   UNL     1       6.840   6.163  17.447  0.00  0.00    +0.000 C 
BRANCH  20  21
ATOM     21  C   UNL     1       7.457   4.929  16.784  0.00  0.00    +0.000 C 
ATOM     22  O   UNL     1       8.243   4.197  17.392  0.00  0.00    +0.000 OA
BRANCH  21  23
ATOM     23  C   UNL     1       7.085   4.628  15.410  0.00  0.00    +0.000 A 
ATOM     24  C   UNL     1       6.171   3.747  14.852  0.00  0.00    +0.000 A 
ATOM     25  C   UNL     1       6.214   3.903  13.441  0.00  0.00    +0.000 A 
ATOM     26  C   UNL     1       7.163   4.858  13.164  0.00  0.00    +0.000 A 
ATOM     27  N   UNL     1       7.687   5.284  14.353  0.00  0.00    +0.000 N 
ATOM     28  H   UNL     1       8.408   5.985  14.470  0.00  0.00    +0.000 HD
ENDBRANCH  21  23
ENDBRANCH  20  21
ENDBRANCH   6  20
TORSDOF 4
ENDMDL
MODEL 2
REMARK VINA RESULT:      -8.8      0.777      1.556
REMARK  Name = 
REMARK  5 active torsions:
REMARK  status: ('A' for Active; 'I' for Inactive)
REMARK    1  A    between atoms: C_1  and  C_2
REMARK    2  A    between atoms: C_2  and  C_3
REMARK    3  A    between atoms: N_16  and  C_17
REMARK    4  A    between atoms: C_17  and  C_18
REMARK    5  A    between atoms: C_18  and  C_20
REMARK                            x       y       z     vdW  Elec       q    Type
REMARK                         _______ _______ _______ _____ _____    ______ ____
ROOT
ATOM      1  C   UNL     1       2.045   4.729  17.641  0.00  0.00    +0.000 C 
ATOM      2  C   UNL     1       3.073   5.574  18.392  0.00  0.00    +0.000 C 
ATOM      3  N   UNL     1       3.819   4.779  19.345  0.00  0.00    +0.000 N 
ATOM      4  C   UNL     1       5.169   5.027  19.276  0.00  0.00    +0.000 C 
ATOM      5  O   UNL     1       5.970   4.668  20.125  0.00  0.00    +0.000 OA
ATOM      6  N   UNL     1       5.429   5.735  18.147  0.00  0.00    +0.000 N 
ATOM      7  C   UNL     1       4.262   6.001  17.485  0.00  0.00    +0.000 C 
ATOM      8  O   UNL     1       4.172   6.557  16.396  0.00  0.00    +0.000 OA
ATOM      9  H   UNL     1       3.423   4.330  20.160  0.00  0.00    +0.000 HD
ENDROOT
BRANCH   2  10
ATOM     10  C   UNL     1       2.423   6.798  19.050  0.00  0.00    +0.000 A 
ATOM     11  C   UNL     1       1.987   6.795  20.390  0.00  0.00    +0.000 A 
ATOM     12  C   UNL     1       1.404   7.929  20.965  0.00  0.00    +0.000 A 
ATOM     13  C   UNL     1       1.237   9.084  20.208  0.00  0.00    +0.000 A 
ATOM     14  C   UNL     1       1.675   9.115  18.885  0.00  0.00    +0.000 A 
ATOM     15  C   UNL     1       2.250   7.982  18.307  0.00  0.00    +0.000 A 
ATOM     16  O   UNL     1       1.566  10.223  18.084  0.00  0.00    +0.000 OA
ATOM     17  C   UNL     1       1.304  11.400  18.855  0.00  0.00    +0.000 C 
ATOM     18  C   UNL     1       0.222  11.138  19.891  0.00  0.00    +0.000 C 
ATOM     19  O   UNL     1       0.648  10.151  20.835  0.00  0.00    +0.000 OA
ENDBRANCH   2  10
BRANCH   6  20
ATOM     20  C   UNL     1       6.760   6.088  17.684  0.00  0.00    +0.000 C 
BRANCH  20  21
ATOM     21  C   UNL     1       7.426   4.908  16.971  0.00  0.00    +0.000 C 
ATOM     22  O   UNL     1       8.273   4.210  17.535  0.00  0.00    +0.000 OA
BRANCH  21  23
ATOM     23  C   UNL     1       7.029   4.619  15.601  0.00  0.00    +0.000 A 
ATOM     24  C   UNL     1       6.078   3.770  15.055  0.00  0.00    +0.000 A 
ATOM     25  C   UNL     1       6.111   3.922  13.644  0.00  0.00    +0.000 A 
ATOM     26  C   UNL     1       7.089   4.843  13.355  0.00  0.00    +0.000 A 
ATOM     27  N   UNL     1       7.641   5.252  14.537  0.00  0.00    +0.000 N 
ATOM     28  H   UNL     1       8.388   5.928  14.644  0.00  0.00    +0.000 HD
ENDBRANCH  21  23
ENDBRANCH  20  21
ENDBRANCH   6  20
TORSDOF 4
ENDMDL
MODEL 3
REMARK VINA RESULT:      -8.6      1.327      1.677
REMARK  Name = 
REMARK  5 active torsions:
REMARK  status: ('A' for Active; 'I' for Inactive)
REMARK    1  A    between atoms: C_1  and  C_2
REMARK    2  A    between atoms: C_2  and  C_3
REMARK    3  A    between atoms: N_16  and  C_17
REMARK    4  A    between atoms: C_17  and  C_18
REMARK    5  A    between atoms: C_18  and  C_20
REMARK                            x       y       z     vdW  Elec       q    Type
REMARK                         _______ _______ _______ _____ _____    ______ ____
ROOT
ATOM      1  C   UNL     1       1.781   4.457  20.310  0.00  0.00    +0.000 C 
ATOM      2  C   UNL     1       2.810   5.230  19.486  0.00  0.00    +0.000 C 
ATOM      3  N   UNL     1       4.127   5.162  20.082  0.00  0.00    +0.000 N 
ATOM      4  C   UNL     1       5.099   4.878  19.153  0.00  0.00    +0.000 C 
ATOM      5  O   UNL     1       6.296   5.003  19.360  0.00  0.00    +0.000 OA
ATOM      6  N   UNL     1       4.502   4.470  18.004  0.00  0.00    +0.000 N 
ATOM      7  C   UNL     1       3.142   4.522  18.142  0.00  0.00    +0.000 C 
ATOM      8  O   UNL     1       2.327   4.147  17.307  0.00  0.00    +0.000 OA
ATOM      9  H   UNL     1       4.379   5.558  20.979  0.00  0.00    +0.000 HD
ENDROOT
BRANCH   2  10
ATOM     10  C   UNL     1       2.364   6.677  19.244  0.00  0.00    +0.000 A 
ATOM     11  C   UNL     1       2.499   7.312  17.993  0.00  0.00    +0.000 A 
ATOM     12  C   UNL     1       2.076   8.631  17.800  0.00  0.00    +0.000 A 
ATOM     13  C   UNL     1       1.519   9.344  18.856  0.00  0.00    +0.000 A 
ATOM     14  C   UNL     1       1.361   8.731  20.099  0.00  0.00    +0.000 A 
ATOM     15  C   UNL     1       1.789   7.417  20.295  0.00  0.00    +0.000 A 
ATOM     16  O   UNL     1       0.800   9.361  21.180  0.00  0.00    +0.000 OA
ATOM     17  C   UNL     1       0.089  10.539  20.786  0.00  0.00    +0.000 C 
ATOM     18  C   UNL     1       0.908  11.363  19.805  0.00  0.00    +0.000 C 
ATOM     19  O   UNL     1       1.139  10.634  18.595  0.00  0.00    +0.000 OA
ENDBRANCH   2  10
BRANCH   6  20
ATOM     20  C   UNL     1       5.212   3.983  16.834  0.00  0.00    +0.000 C 
BRANCH  20  21
ATOM     21  C   UNL     1       5.527   5.126  15.865  0.00  0.00    +0.000 C 
ATOM     22  O   UNL     1       5.240   6.296  16.134  0.00  0.00    +0.000 OA
BRANCH  21  23
ATOM     23  C   UNL     1       6.188   4.801  14.609  0.00  0.00    +0.000 A 
ATOM     24  C   UNL     1       5.885   3.916  13.586  0.00  0.00    +0.000 A 
ATOM     25  C   UNL     1       6.882   4.045  12.583  0.00  0.00    +0.000 A 
ATOM     26  C   UNL     1       7.781   4.988  13.020  0.00  0.00    +0.000 A 
ATOM     27  N   UNL     1       7.360   5.433  14.242  0.00  0.00    +0.000 N 
ATOM     28  H   UNL     1       7.819   6.133  14.813  0.00  0.00    +0.000 HD
ENDBRANCH  21  23
ENDBRANCH  20  21
ENDBRANCH   6  20
TORSDOF 4
ENDMDL
MODEL 4
REMARK VINA RESULT:      -8.3      1.391      1.627
REMARK  Name = 
REMARK  5 active torsions:
REMARK  status: ('A' for Active; 'I' for Inactive)
REMARK    1  A    between atoms: C_1  and  C_2
REMARK    2  A    between atoms: C_2  and  C_3
REMARK    3  A    between atoms: N_16  and  C_17
REMARK    4  A    between atoms: C_17  and  C_18
REMARK    5  A    between atoms: C_18  and  C_20
REMARK                            x       y       z     vdW  Elec       q    Type
REMARK                         _______ _______ _______ _____ _____    ______ ____
ROOT
ATOM      1  C   UNL     1       2.539   4.019  19.560  0.00  0.00    +0.000 C 
ATOM      2  C   UNL     1       3.582   5.037  19.101  0.00  0.00    +0.000 C 
ATOM      3  N   UNL     1       4.721   5.070  19.995  0.00  0.00    +0.000 N 
ATOM      4  C   UNL     1       5.912   5.058  19.311  0.00  0.00    +0.000 C 
ATOM      5  O   UNL     1       6.991   5.319  19.820  0.00  0.00    +0.000 OA
ATOM      6  N   UNL     1       5.671   4.738  18.014  0.00  0.00    +0.000 N 
ATOM      7  C   UNL     1       4.327   4.580  17.815  0.00  0.00    +0.000 C 
ATOM      8  O   UNL     1       3.800   4.218  16.769  0.00  0.00    +0.000 OA
ATOM      9  H   UNL     1       4.690   5.365  20.962  0.00  0.00    +0.000 HD
ENDROOT
BRANCH   2  10
ATOM     10  C   UNL     1       2.965   6.428  18.908  0.00  0.00    +0.000 A 
ATOM     11  C   UNL     1       3.128   7.171  17.722  0.00  0.00    +0.000 A 
ATOM     12  C   UNL     1       2.546   8.434  17.572  0.00  0.00    +0.000 A 
ATOM     13  C   UNL     1       1.798   8.983  18.609  0.00  0.00    +0.000 A 
ATOM     14  C   UNL     1       1.610   8.259  19.786  0.00  0.00    +0.000 A 
ATOM     15  C   UNL     1       2.196   7.002  19.940  0.00  0.00    +0.000 A 
ATOM     16  O   UNL     1       0.868   8.723  20.841  0.00  0.00    +0.000 OA
ATOM     17  C   UNL     1       0.041   9.824  20.453  0.00  0.00    +0.000 C 
ATOM     18  C   UNL     1       0.827  10.823  19.618  0.00  0.00    +0.000 C 
ATOM     19  O   UNL     1       1.270  10.228  18.394  0.00  0.00    +0.000 OA
ENDBRANCH   2  10
BRANCH   6  20
ATOM     20  C   UNL     1       6.701   4.526  17.012  0.00  0.00    +0.000 C 
BRANCH  20  21
ATOM     21  C   UNL     1       6.493   5.444  15.804  0.00  0.00    +0.000 C 
ATOM     22  O   UNL     1       6.298   6.655  15.941  0.00  0.00    +0.000 OA
BRANCH  21  23
ATOM     23  C   UNL     1       6.541   4.853  14.475  0.00  0.00    +0.000 A 
ATOM     24  C   UNL     1       7.455   4.941  13.437  0.00  0.00    +0.000 A 
ATOM     25  C   UNL     1       6.995   4.119  12.374  0.00  0.00    +0.000 A 
ATOM     26  C   UNL     1       5.804   3.561  12.775  0.00  0.00    +0.000 A 
ATOM     27  N   UNL     1       5.535   4.014  14.037  0.00  0.00    +0.000 N 
ATOM     28  H   UNL     1       4.724   3.775  14.595  0.00  0.00    +0.000 HD
ENDBRANCH  21  23
ENDBRANCH  20  21
ENDBRANCH   6  20
TORSDOF 4
ENDMDL
MODEL 5
REMARK VINA RESULT:      -8.2      2.242      3.174
REMARK  Name = 
REMARK  5 active torsions:
REMARK  status: ('A' for Active; 'I' for Inactive)
REMARK    1  A    between atoms: C_1  and  C_2
REMARK    2  A    between atoms: C_2  and  C_3
REMARK    3  A    between atoms: N_16  and  C_17
REMARK    4  A    between atoms: C_17  and  C_18
REMARK    5  A    between atoms: C_18  and  C_20
REMARK                            x       y       z     vdW  Elec       q    Type
REMARK                         _______ _______ _______ _____ _____    ______ ____
ROOT
ATOM      1  C   UNL     1       2.067   4.202  16.951  0.00  0.00    +0.000 C 
ATOM      2  C   UNL     1       3.063   4.752  17.971  0.00  0.00    +0.000 C 
ATOM      3  N   UNL     1       3.414   3.755  18.960  0.00  0.00    +0.000 N 
ATOM      4  C   UNL     1       4.769   3.703  19.180  0.00  0.00    +0.000 C 
ATOM      5  O   UNL     1       5.284   3.124  20.125  0.00  0.00    +0.000 OA
ATOM      6  N   UNL     1       5.400   4.404  18.204  0.00  0.00    +0.000 N 
ATOM      7  C   UNL     1       4.478   4.961  17.361  0.00  0.00    +0.000 C 
ATOM      8  O   UNL     1       4.735   5.590  16.340  0.00  0.00    +0.000 OA
ATOM      9  H   UNL     1       2.772   3.354  19.632  0.00  0.00    +0.000 HD
ENDROOT
BRANCH   2  10
ATOM     10  C   UNL     1       2.551   6.046  18.616  0.00  0.00    +0.000 A 
ATOM     11  C   UNL     1       2.195   6.123  19.978  0.00  0.00    +0.000 A 
ATOM     12  C   UNL     1       1.738   7.320  20.540  0.00  0.00    +0.000 A 
ATOM     13  C   UNL     1       1.619   8.459  19.750  0.00  0.00    +0.000 A 
ATOM     14  C   UNL     1       1.980   8.409  18.404  0.00  0.00    +0.000 A 
ATOM     15  C   UNL     1       2.430   7.215  17.840  0.00  0.00    +0.000 A 
ATOM     16  O   UNL     1       1.912   9.494  17.569  0.00  0.00    +0.000 OA
ATOM     17  C   UNL     1       1.790  10.714  18.307  0.00  0.00    +0.000 C 
ATOM     18  C   UNL     1       0.753  10.576  19.411  0.00  0.00    +0.000 C 
ATOM     19  O   UNL     1       1.154   9.590  20.367  0.00  0.00    +0.000 OA
ENDBRANCH   2  10
BRANCH   6  20
ATOM     20  C   UNL     1       6.842   4.483  18.046  0.00  0.00    +0.000 C 
BRANCH  20  21
ATOM     21  C   UNL     1       7.444   5.521  18.997  0.00  0.00    +0.000 C 
ATOM     22  O   UNL     1       7.708   5.244  20.170  0.00  0.00    +0.000 OA
BRANCH  21  23
ATOM     23  C   UNL     1       7.712   6.855  18.479  0.00  0.00    +0.000 A 
ATOM     24  C   UNL     1       7.210   7.565  17.399  0.00  0.00    +0.000 A 
ATOM     25  C   UNL     1       7.820   8.847  17.393  0.00  0.00    +0.000 A 
ATOM     26  C   UNL     1       8.693   8.889  18.454  0.00  0.00    +0.000 A 
ATOM     27  N   UNL     1       8.627   7.685  19.098  0.00  0.00    +0.000 N 
ATOM     28  H   UNL     1       9.157   7.418  19.919  0.00  0.00    +0.000 HD
ENDBRANCH  21  23
ENDBRANCH  20  21
ENDBRANCH   6  20
TORSDOF 4
ENDMDL
MODEL 6
REMARK VINA RESULT:      -8.1      1.757      2.562
REMARK  Name = 
REMARK  5 active torsions:
REMARK  status: ('A' for Active; 'I' for Inactive)
REMARK    1  A    between atoms: C_1  and  C_2
REMARK    2  A    between atoms: C_2  and  C_3
REMARK    3  A    between atoms: N_16  and  C_17
REMARK    4  A    between atoms: C_17  and  C_18
REMARK    5  A    between atoms: C_18  and  C_20
REMARK                            x       y       z     vdW  Elec       q    Type
REMARK                         _______ _______ _______ _____ _____    ______ ____
ROOT
ATOM      1  C   UNL     1       1.194   4.471  20.369  0.00  0.00    +0.000 C 
ATOM      2  C   UNL     1       2.346   5.082  19.572  0.00  0.00    +0.000 C 
ATOM      3  N   UNL     1       3.620   4.854  20.221  0.00  0.00    +0.000 N 
ATOM      4  C   UNL     1       4.578   4.423  19.336  0.00  0.00    +0.000 C 
ATOM      5  O   UNL     1       5.773   4.394  19.587  0.00  0.00    +0.000 OA
ATOM      6  N   UNL     1       3.974   4.071  18.172  0.00  0.00    +0.000 N 
ATOM      7  C   UNL     1       2.629   4.305  18.255  0.00  0.00    +0.000 C 
ATOM      8  O   UNL     1       1.803   4.022  17.395  0.00  0.00    +0.000 OA
ATOM      9  H   UNL     1       3.888   5.234  21.119  0.00  0.00    +0.000 HD
ENDROOT
BRANCH   2  10
ATOM     10  C   UNL     1       2.105   6.570  19.286  0.00  0.00    +0.000 A 
ATOM     11  C   UNL     1       2.357   7.149  18.026  0.00  0.00    +0.000 A 
ATOM     12  C   UNL     1       2.121   8.507  17.793  0.00  0.00    +0.000 A 
ATOM     13  C   UNL     1       1.638   9.315  18.818  0.00  0.00    +0.000 A 
ATOM     14  C   UNL     1       1.366   8.760  20.068  0.00  0.00    +0.000 A 
ATOM     15  C   UNL     1       1.608   7.406  20.304  0.00  0.00    +0.000 A 
ATOM     16  O   UNL     1       0.868   9.487  21.118  0.00  0.00    +0.000 OA
ATOM     17  C   UNL     1       0.332  10.739  20.679  0.00  0.00    +0.000 C 
ATOM     18  C   UNL     1       1.280  11.421  19.705  0.00  0.00    +0.000 C 
ATOM     19  O   UNL     1       1.442  10.638  18.518  0.00  0.00    +0.000 OA
ENDBRANCH   2  10
BRANCH   6  20
ATOM     20  C   UNL     1       4.656   3.467  17.040  0.00  0.00    +0.000 C 
BRANCH  20  21
ATOM     21  C   UNL     1       5.182   4.537  16.079  0.00  0.00    +0.000 C 
ATOM     22  O   UNL     1       4.964   4.476  14.866  0.00  0.00    +0.000 OA
BRANCH  21  23
ATOM     23  C   UNL     1       5.945   5.645  16.634  0.00  0.00    +0.000 A 
ATOM     24  C   UNL     1       5.647   6.982  16.846  0.00  0.00    +0.000 A 
ATOM     25  C   UNL     1       6.776   7.594  17.452  0.00  0.00    +0.000 A 
ATOM     26  C   UNL     1       7.745   6.627  17.581  0.00  0.00    +0.000 A 
ATOM     27  N   UNL     1       7.239   5.459  17.081  0.00  0.00    +0.000 N 
ATOM     28  H   UNL     1       7.722   4.570  17.040  0.00  0.00    +0.000 HD
ENDBRANCH  21  23
ENDBRANCH  20  21
ENDBRANCH   6  20
TORSDOF 4
ENDMDL
MODEL 7
REMARK VINA RESULT:      -8.0      2.118      3.274
REMARK  Name = 
REMARK  5 active torsions:
REMARK  status: ('A' for Active; 'I' for Inactive)
REMARK    1  A    between atoms: C_1  and  C_2
REMARK    2  A    between atoms: C_2  and  C_3
REMARK    3  A    between atoms: N_16  and  C_17
REMARK    4  A    between atoms: C_17  and  C_18
REMARK    5  A    between atoms: C_18  and  C_20
REMARK                            x       y       z     vdW  Elec       q    Type
REMARK                         _______ _______ _______ _____ _____    ______ ____
ROOT
ATOM      1  C   UNL     1       0.834   3.024  19.356  0.00  0.00    +0.000 C 
ATOM      2  C   UNL     1       2.132   3.808  19.164  0.00  0.00    +0.000 C 
ATOM      3  N   UNL     1       3.206   3.259  19.965  0.00  0.00    +0.000 N 
ATOM      4  C   UNL     1       4.369   3.130  19.245  0.00  0.00    +0.000 C 
ATOM      5  O   UNL     1       5.462   2.922  19.749  0.00  0.00    +0.000 OA
ATOM      6  N   UNL     1       4.090   3.293  17.926  0.00  0.00    +0.000 N 
ATOM      7  C   UNL     1       2.762   3.574  17.762  0.00  0.00    +0.000 C 
ATOM      8  O   UNL     1       2.188   3.699  16.686  0.00  0.00    +0.000 OA
ATOM      9  H   UNL     1       3.227   3.248  20.976  0.00  0.00    +0.000 HD
ENDROOT
BRANCH   2  10
ATOM     10  C   UNL     1       1.928   5.305  19.427  0.00  0.00    +0.000 A 
ATOM     11  C   UNL     1       1.568   5.810  20.692  0.00  0.00    +0.000 A 
ATOM     12  C   UNL     1       1.396   7.182  20.903  0.00  0.00    +0.000 A 
ATOM     13  C   UNL     1       1.571   8.075  19.850  0.00  0.00    +0.000 A 
ATOM     14  C   UNL     1       1.943   7.599  18.593  0.00  0.00    +0.000 A 
ATOM     15  C   UNL     1       2.107   6.230  18.379  0.00  0.00    +0.000 A 
ATOM     16  O   UNL     1       2.156   8.418  17.515  0.00  0.00    +0.000 OA
ATOM     17  C   UNL     1       2.310   9.783  17.918  0.00  0.00    +0.000 C 
ATOM     18  C   UNL     1       1.243  10.171  18.930  0.00  0.00    +0.000 C 
ATOM     19  O   UNL     1       1.374   9.402  20.129  0.00  0.00    +0.000 OA
ENDBRANCH   2  10
BRANCH   6  20
ATOM     20  C   UNL     1       5.054   3.119  16.853  0.00  0.00    +0.000 C 
BRANCH  20  21
ATOM     21  C   UNL     1       5.582   4.470  16.363  0.00  0.00    +0.000 C 
ATOM     22  O   UNL     1       5.240   4.939  15.273  0.00  0.00    +0.000 OA
BRANCH  21  23
ATOM     23  C   UNL     1       6.499   5.203  17.223  0.00  0.00    +0.000 A 
ATOM     24  C   UNL     1       6.752   6.555  17.396  0.00  0.00    +0.000 A 
ATOM     25  C   UNL     1       7.743   6.692  18.404  0.00  0.00    +0.000 A 
ATOM     26  C   UNL     1       8.088   5.425  18.812  0.00  0.00    +0.000 A 
ATOM     27  N   UNL     1       7.340   4.536  18.092  0.00  0.00    +0.000 N 
ATOM     28  H   UNL     1       7.374   3.527  18.173  0.00  0.00    +0.000 HD
ENDBRANCH  21  23
ENDBRANCH  20  21
ENDBRANCH   6  20
TORSDOF 4
ENDMDL
MODEL 8
REMARK VINA RESULT:      -7.9      1.707      2.709
REMARK  Name = 
REMARK  5 active torsions:
REMARK  status: ('A' for Active; 'I' for Inactive)
REMARK    1  A    between atoms: C_1  and  C_2
REMARK    2  A    between atoms: C_2  and  C_3
REMARK    3  A    between atoms: N_16  and  C_17
REMARK    4  A    between atoms: C_17  and  C_18
REMARK    5  A    between atoms: C_18  and  C_20
REMARK                            x       y       z     vdW  Elec       q    Type
REMARK                         _______ _______ _______ _____ _____    ______ ____
ROOT
ATOM      1  C   UNL     1       3.150   3.028  20.465  0.00  0.00    +0.000 C 
ATOM      2  C   UNL     1       3.718   4.041  19.471  0.00  0.00    +0.000 C 
ATOM      3  N   UNL     1       5.152   4.177  19.613  0.00  0.00    +0.000 N 
ATOM      4  C   UNL     1       5.793   4.152  18.398  0.00  0.00    +0.000 C 
ATOM      5  O   UNL     1       6.958   4.485  18.237  0.00  0.00    +0.000 OA
ATOM      6  N   UNL     1       4.921   3.728  17.449  0.00  0.00    +0.000 N 
ATOM      7  C   UNL     1       3.692   3.512  18.009  0.00  0.00    +0.000 C 
ATOM      8  O   UNL     1       2.714   3.055  17.427  0.00  0.00    +0.000 OA
ATOM      9  H   UNL     1       5.621   4.543  20.431  0.00  0.00    +0.000 HD
ENDROOT
BRANCH   2  10
ATOM     10  C   UNL     1       3.000   5.393  19.575  0.00  0.00    +0.000 A 
ATOM     11  C   UNL     1       2.246   5.765  20.706  0.00  0.00    +0.000 A 
ATOM     12  C   UNL     1       1.609   7.008  20.774  0.00  0.00    +0.000 A 
ATOM     13  C   UNL     1       1.705   7.899  19.710  0.00  0.00    +0.000 A 
ATOM     14  C   UNL     1       2.458   7.557  18.587  0.00  0.00    +0.000 A 
ATOM     15  C   UNL     1       3.089   6.315  18.514  0.00  0.00    +0.000 A 
ATOM     16  O   UNL     1       2.618   8.391  17.510  0.00  0.00    +0.000 OA
ATOM     17  C   UNL     1       2.245   9.735  17.830  0.00  0.00    +0.000 C 
ATOM     18  C   UNL     1       0.926   9.764  18.586  0.00  0.00    +0.000 C 
ATOM     19  O   UNL     1       1.045   9.092  19.844  0.00  0.00    +0.000 OA
ENDBRANCH   2  10
BRANCH   6  20
ATOM     20  C   UNL     1       5.271   3.474  16.062  0.00  0.00    +0.000 C 
BRANCH  20  21
ATOM     21  C   UNL     1       5.585   4.778  15.325  0.00  0.00    +0.000 C 
ATOM     22  O   UNL     1       5.161   5.865  15.729  0.00  0.00    +0.000 OA
BRANCH  21  23
ATOM     23  C   UNL     1       6.412   4.711  14.129  0.00  0.00    +0.000 A 
ATOM     24  C   UNL     1       6.317   3.976  12.958  0.00  0.00    +0.000 A 
ATOM     25  C   UNL     1       7.402   4.343  12.118  0.00  0.00    +0.000 A 
ATOM     26  C   UNL     1       8.147   5.277  12.798  0.00  0.00    +0.000 A 
ATOM     27  N   UNL     1       7.548   5.488  14.009  0.00  0.00    +0.000 N 
ATOM     28  H   UNL     1       7.868   6.124  14.729  0.00  0.00    +0.000 HD
ENDBRANCH  21  23
ENDBRANCH  20  21
ENDBRANCH   6  20
TORSDOF 4
ENDMDL
MODEL 9
REMARK VINA RESULT:      -7.9      1.941      3.071
REMARK  Name = 
REMARK  5 active torsions:
REMARK  status: ('A' for Active; 'I' for Inactive)
REMARK    1  A    between atoms: C_1  and  C_2
REMARK    2  A    between atoms: C_2  and  C_3
REMARK    3  A    between atoms: N_16  and  C_17
REMARK    4  A    between atoms: C_17  and  C_18
REMARK    5  A    between atoms: C_18  and  C_20
REMARK                            x       y       z     vdW  Elec       q    Type
REMARK                         _______ _______ _______ _____ _____    ______ ____
ROOT
ATOM      1  C   UNL     1       1.118   3.558  19.730  0.00  0.00    +0.000 C 
ATOM      2  C   UNL     1       2.318   4.424  19.348  0.00  0.00    +0.000 C 
ATOM      3  N   UNL     1       3.511   4.022  20.063  0.00  0.00    +0.000 N 
ATOM      4  C   UNL     1       4.601   3.930  19.232  0.00  0.00    +0.000 C 
ATOM      5  O   UNL     1       5.753   3.845  19.628  0.00  0.00    +0.000 OA
ATOM      6  N   UNL     1       4.177   3.972  17.943  0.00  0.00    +0.000 N 
ATOM      7  C   UNL     1       2.819   4.136  17.905  0.00  0.00    +0.000 C 
ATOM      8  O   UNL     1       2.130   4.136  16.891  0.00  0.00    +0.000 OA
ATOM      9  H   UNL     1       3.636   4.088  21.064  0.00  0.00    +0.000 HD
ENDROOT
BRANCH   2  10
ATOM     10  C   UNL     1       2.015   5.917  19.532  0.00  0.00    +0.000 A 
ATOM     11  C   UNL     1       1.540   6.450  20.747  0.00  0.00    +0.000 A 
ATOM     12  C   UNL     1       1.280   7.817  20.886  0.00  0.00    +0.000 A 
ATOM     13  C   UNL     1       1.481   8.676  19.811  0.00  0.00    +0.000 A 
ATOM     14  C   UNL     1       1.965   8.174  18.604  0.00  0.00    +0.000 A 
ATOM     15  C   UNL     1       2.218   6.809  18.461  0.00  0.00    +0.000 A 
ATOM     16  O   UNL     1       2.209   8.961  17.508  0.00  0.00    +0.000 OA
ATOM     17  C   UNL     1       2.260  10.347  17.862  0.00  0.00    +0.000 C 
ATOM     18  C   UNL     1       1.106  10.713  18.781  0.00  0.00    +0.000 C 
ATOM     19  O   UNL     1       1.193  10.000  20.019  0.00  0.00    +0.000 OA
ENDBRANCH   2  10
BRANCH   6  20
ATOM     20  C   UNL     1       5.037   3.794  16.786  0.00  0.00    +0.000 C 
BRANCH  20  21
ATOM     21  C   UNL     1       5.446   5.144  16.191  0.00  0.00    +0.000 C 
ATOM     22  O   UNL     1       4.996   5.535  15.110  0.00  0.00    +0.000 OA
BRANCH  21  23
ATOM     23  C   UNL     1       6.381   5.971  16.940  0.00  0.00    +0.000 A 
ATOM     24  C   UNL     1       7.385   5.672  17.848  0.00  0.00    +0.000 A 
ATOM     25  C   UNL     1       7.999   6.891  18.242  0.00  0.00    +0.000 A 
ATOM     26  C   UNL     1       7.348   7.907  17.584  0.00  0.00    +0.000 A 
ATOM     27  N   UNL     1       6.372   7.346  16.808  0.00  0.00    +0.000 N 
ATOM     28  H   UNL     1       5.728   7.845  16.207  0.00  0.00    +0.000 HD
ENDBRANCH  21  23
ENDBRANCH  20  21
ENDBRANCH   6  20
TORSDOF 4
ENDMDL
