MODEL 1
REMARK VINA RESULT:      -4.1      0.000      0.000
REMARK  Name = 
REMARK  6 active torsions:
REMARK  status: ('A' for Active; 'I' for Inactive)
REMARK    1  A    between atoms: C_1  and  N_2
REMARK    2  A    between atoms: N_2  and  C_3
REMARK    3  A    between atoms: N_2  and  C_4
REMARK    4  A    between atoms: C_4  and  C_5
REMARK    5  A    between atoms: C_7  and  C_8
REMARK    6  A    between atoms: C_8  and  O_9
REMARK                            x       y       z     vdW  Elec       q    Type
REMARK                         _______ _______ _______ _____ _____    ______ ____
ROOT
ATOM      1  C   UNL     1       7.063   6.259  16.939  0.00  0.00    +0.000 C 
ATOM      2  C   UNL     1       7.654   7.471  17.617  0.00  0.00    +0.000 C 
ATOM      3  C   UNL     1       7.182   6.303  18.449  0.00  0.00    +0.000 C 
ENDROOT
BRANCH   1   4
ATOM      4  C   UNL     1       5.705   6.294  16.305  0.00  0.00    +0.000 C 
BRANCH   4   6
ATOM      5  C   UNL     1       6.677   4.474  15.005  0.00  0.00    +0.000 C 
ATOM      6  N   UNL     1       5.451   5.049  15.565  0.00  0.00    +0.000 NA
ATOM      7  C   UNL     1       4.811   4.069  16.446  0.00  0.00    +0.000 C 
ENDBRANCH   4   6
ENDBRANCH   1   4
BRANCH   3   8
ATOM      8  C   UNL     1       8.117   5.367  19.131  0.00  0.00    +0.000 C 
BRANCH   8   9
ATOM      9  O   UNL     1       7.984   5.516  20.538  0.00  0.00    +0.000 OA
ATOM     10  H   UNL     1       7.981   4.618  20.910  0.00  0.00    +0.000 HD
ENDBRANCH   8   9
ENDBRANCH   3   8
TORSDOF 4
ENDMDL
MODEL 2
REMARK VINA RESULT:      -4.1      4.557      5.610
REMARK  Name = 
REMARK  6 active torsions:
REMARK  status: ('A' for Active; 'I' for Inactive)
REMARK    1  A    between atoms: C_1  and  N_2
REMARK    2  A    between atoms: N_2  and  C_3
REMARK    3  A    between atoms: N_2  and  C_4
REMARK    4  A    between atoms: C_4  and  C_5
REMARK    5  A    between atoms: C_7  and  C_8
REMARK    6  A    between atoms: C_8  and  O_9
REMARK                            x       y       z     vdW  Elec       q    Type
REMARK                         _______ _______ _______ _____ _____    ______ ____
ROOT
ATOM      1  C   UNL     1       2.217   4.133  19.463  0.00  0.00    +0.000 C 
ATOM      2  C   UNL     1       1.861   5.131  20.539  0.00  0.00    +0.000 C 
ATOM      3  C   UNL     1       1.139   3.806  20.477  0.00  0.00    +0.000 C 
ENDROOT
BRANCH   1   4
ATOM      4  C   UNL     1       1.837   4.351  18.029  0.00  0.00    +0.000 C 
BRANCH   4   6
ATOM      5  C   UNL     1       4.013   4.012  16.980  0.00  0.00    +0.000 C 
ATOM      6  N   UNL     1       2.651   3.500  17.148  0.00  0.00    +0.000 NA
ATOM      7  C   UNL     1       2.704   2.137  17.684  0.00  0.00    +0.000 C 
ENDBRANCH   4   6
ENDBRANCH   1   4
BRANCH   3   8
ATOM      8  C   UNL     1       1.373   2.712  21.459  0.00  0.00    +0.000 C 
BRANCH   8   9
ATOM      9  O   UNL     1       2.333   3.139  22.416  0.00  0.00    +0.000 OA
ATOM     10  H   UNL     1       3.004   2.437  22.465  0.00  0.00    +0.000 HD
ENDBRANCH   8   9
ENDBRANCH   3   8
TORSDOF 4
ENDMDL
MODEL 3
REMARK VINA RESULT:      -4.0      4.422      5.950
REMARK  Name = 
REMARK  6 active torsions:
REMARK  status: ('A' for Active; 'I' for Inactive)
REMARK    1  A    between atoms: C_1  and  N_2
REMARK    2  A    between atoms: N_2  and  C_3
REMARK    3  A    between atoms: N_2  and  C_4
REMARK    4  A    between atoms: C_4  and  C_5
REMARK    5  A    between atoms: C_7  and  C_8
REMARK    6  A    between atoms: C_8  and  O_9
REMARK                            x       y       z     vdW  Elec       q    Type
REMARK                         _______ _______ _______ _____ _____    ______ ____
ROOT
ATOM      1  C   UNL     1       1.786   3.631  18.877  0.00  0.00    +0.000 C 
ATOM      2  C   UNL     1       0.802   2.490  18.787  0.00  0.00    +0.000 C 
ATOM      3  C   UNL     1       1.777   2.549  19.938  0.00  0.00    +0.000 C 
ENDROOT
BRANCH   1   4
ATOM      4  C   UNL     1       2.955   3.739  17.944  0.00  0.00    +0.000 C 
BRANCH   4   6
ATOM      5  C   UNL     1       2.507   6.106  18.323  0.00  0.00    +0.000 C 
ATOM      6  N   UNL     1       3.512   5.099  17.975  0.00  0.00    +0.000 NA
ATOM      7  C   UNL     1       4.617   5.161  18.935  0.00  0.00    +0.000 C 
ENDBRANCH   4   6
ENDBRANCH   1   4
BRANCH   3   8
ATOM      8  C   UNL     1       1.368   2.897  21.326  0.00  0.00    +0.000 C 
BRANCH   8   9
ATOM      9  O   UNL     1       2.499   2.810  22.183  0.00  0.00    +0.000 OA
ATOM     10  H   UNL     1       3.254   2.573  21.618  0.00  0.00    +0.000 HD
ENDBRANCH   8   9
ENDBRANCH   3   8
TORSDOF 4
ENDMDL
MODEL 4
REMARK VINA RESULT:      -4.0      4.489      5.437
REMARK  Name = 
REMARK  6 active torsions:
REMARK  status: ('A' for Active; 'I' for Inactive)
REMARK    1  A    between atoms: C_1  and  N_2
REMARK    2  A    between atoms: N_2  and  C_3
REMARK    3  A    between atoms: N_2  and  C_4
REMARK    4  A    between atoms: C_4  and  C_5
REMARK    5  A    between atoms: C_7  and  C_8
REMARK    6  A    between atoms: C_8  and  O_9
REMARK                            x       y       z     vdW  Elec       q    Type
REMARK                         _______ _______ _______ _____ _____    ______ ____
ROOT
ATOM      1  C   UNL     1       2.332   4.754  18.903  0.00  0.00    +0.000 C 
ATOM      2  C   UNL     1       2.860   6.033  18.299  0.00  0.00    +0.000 C 
ATOM      3  C   UNL     1       3.815   5.060  18.948  0.00  0.00    +0.000 C 
ENDROOT
BRANCH   1   4
ATOM      4  C   UNL     1       1.541   4.753  20.177  0.00  0.00    +0.000 C 
BRANCH   4   6
ATOM      5  C   UNL     1       0.909   2.628  19.159  0.00  0.00    +0.000 C 
ATOM      6  N   UNL     1       0.881   3.453  20.370  0.00  0.00    +0.000 NA
ATOM      7  C   UNL     1       1.523   2.727  21.469  0.00  0.00    +0.000 C 
ENDBRANCH   4   6
ENDBRANCH   1   4
BRANCH   3   8
ATOM      8  C   UNL     1       4.756   4.209  18.168  0.00  0.00    +0.000 C 
BRANCH   8   9
ATOM      9  O   UNL     1       5.559   3.456  19.066  0.00  0.00    +0.000 OA
ATOM     10  H   UNL     1       6.053   2.818  18.523  0.00  0.00    +0.000 HD
ENDBRANCH   8   9
ENDBRANCH   3   8
TORSDOF 4
ENDMDL
MODEL 5
REMARK VINA RESULT:      -3.9      4.573      6.203
REMARK  Name = 
REMARK  6 active torsions:
REMARK  status: ('A' for Active; 'I' for Inactive)
REMARK    1  A    between atoms: C_1  and  N_2
REMARK    2  A    between atoms: N_2  and  C_3
REMARK    3  A    between atoms: N_2  and  C_4
REMARK    4  A    between atoms: C_4  and  C_5
REMARK    5  A    between atoms: C_7  and  C_8
REMARK    6  A    between atoms: C_8  and  O_9
REMARK                            x       y       z     vdW  Elec       q    Type
REMARK                         _______ _______ _______ _____ _____    ______ ____
ROOT
ATOM      1  C   UNL     1       2.601   3.067  18.768  0.00  0.00    +0.000 C 
ATOM      2  C   UNL     1       3.199   1.915  17.999  0.00  0.00    +0.000 C 
ATOM      3  C   UNL     1       3.051   3.262  17.335  0.00  0.00    +0.000 C 
ENDROOT
BRANCH   1   4
ATOM      4  C   UNL     1       1.138   3.122  19.095  0.00  0.00    +0.000 C 
BRANCH   4   6
ATOM      5  C   UNL     1       1.400   2.738  21.490  0.00  0.00    +0.000 C 
ATOM      6  N   UNL     1       0.935   3.658  20.450  0.00  0.00    +0.000 NA
ATOM      7  C   UNL     1       1.630   4.940  20.586  0.00  0.00    +0.000 C 
ENDBRANCH   4   6
ENDBRANCH   1   4
BRANCH   3   8
ATOM      8  C   UNL     1       4.208   4.156  17.052  0.00  0.00    +0.000 C 
BRANCH   8   9
ATOM      9  O   UNL     1       5.294   3.376  16.569  0.00  0.00    +0.000 OA
ATOM     10  H   UNL     1       5.732   3.001  17.352  0.00  0.00    +0.000 HD
ENDBRANCH   8   9
ENDBRANCH   3   8
TORSDOF 4
ENDMDL
MODEL 6
REMARK VINA RESULT:      -3.9      3.964      5.344
REMARK  Name = 
REMARK  6 active torsions:
REMARK  status: ('A' for Active; 'I' for Inactive)
REMARK    1  A    between atoms: C_1  and  N_2
REMARK    2  A    between atoms: N_2  and  C_3
REMARK    3  A    between atoms: N_2  and  C_4
REMARK    4  A    between atoms: C_4  and  C_5
REMARK    5  A    between atoms: C_7  and  C_8
REMARK    6  A    between atoms: C_8  and  O_9
REMARK                            x       y       z     vdW  Elec       q    Type
REMARK                         _______ _______ _______ _____ _____    ______ ____
ROOT
ATOM      1  C   UNL     1       2.888   4.205  18.520  0.00  0.00    +0.000 C 
ATOM      2  C   UNL     1       1.615   4.304  17.715  0.00  0.00    +0.000 C 
ATOM      3  C   UNL     1       1.629   3.512  19.000  0.00  0.00    +0.000 C 
ENDROOT
BRANCH   1   4
ATOM      4  C   UNL     1       4.052   3.381  18.056  0.00  0.00    +0.000 C 
BRANCH   4   6
ATOM      5  C   UNL     1       5.309   5.008  16.744  0.00  0.00    +0.000 C 
ATOM      6  N   UNL     1       5.264   4.208  17.970  0.00  0.00    +0.000 NA
ATOM      7  C   UNL     1       5.345   5.094  19.134  0.00  0.00    +0.000 C 
ENDBRANCH   4   6
ENDBRANCH   1   4
BRANCH   3   8
ATOM      8  C   UNL     1       0.971   3.987  20.249  0.00  0.00    +0.000 C 
BRANCH   8   9
ATOM      9  O   UNL     1       0.816   2.892  21.142  0.00  0.00    +0.000 OA
ATOM     10  H   UNL     1      -0.130   2.667  21.140  0.00  0.00    +0.000 HD
ENDBRANCH   8   9
ENDBRANCH   3   8
TORSDOF 4
ENDMDL
MODEL 7
REMARK VINA RESULT:      -3.9      2.839      3.500
REMARK  Name = 
REMARK  6 active torsions:
REMARK  status: ('A' for Active; 'I' for Inactive)
REMARK    1  A    between atoms: C_1  and  N_2
REMARK    2  A    between atoms: N_2  and  C_3
REMARK    3  A    between atoms: N_2  and  C_4
REMARK    4  A    between atoms: C_4  and  C_5
REMARK    5  A    between atoms: C_7  and  C_8
REMARK    6  A    between atoms: C_8  and  O_9
REMARK                            x       y       z     vdW  Elec       q    Type
REMARK                         _______ _______ _______ _____ _____    ______ ____
ROOT
ATOM      1  C   UNL     1       6.073   5.706  17.791  0.00  0.00    +0.000 C 
ATOM      2  C   UNL     1       7.305   6.490  17.410  0.00  0.00    +0.000 C 
ATOM      3  C   UNL     1       7.185   5.041  17.005  0.00  0.00    +0.000 C 
ENDROOT
BRANCH   1   4
ATOM      4  C   UNL     1       5.815   5.281  19.206  0.00  0.00    +0.000 C 
BRANCH   4   6
ATOM      5  C   UNL     1       3.558   5.247  18.282  0.00  0.00    +0.000 C 
ATOM      6  N   UNL     1       4.444   4.768  19.346  0.00  0.00    +0.000 NA
ATOM      7  C   UNL     1       4.459   3.303  19.346  0.00  0.00    +0.000 C 
ENDBRANCH   4   6
ENDBRANCH   1   4
BRANCH   3   8
ATOM      8  C   UNL     1       6.927   4.613  15.602  0.00  0.00    +0.000 C 
BRANCH   8   9
ATOM      9  O   UNL     1       7.705   5.410  14.719  0.00  0.00    +0.000 OA
ATOM     10  H   UNL     1       8.021   4.814  14.018  0.00  0.00    +0.000 HD
ENDBRANCH   8   9
ENDBRANCH   3   8
TORSDOF 4
ENDMDL
MODEL 8
REMARK VINA RESULT:      -3.9      2.979      4.093
REMARK  Name = 
REMARK  6 active torsions:
REMARK  status: ('A' for Active; 'I' for Inactive)
REMARK    1  A    between atoms: C_1  and  N_2
REMARK    2  A    between atoms: N_2  and  C_3
REMARK    3  A    between atoms: N_2  and  C_4
REMARK    4  A    between atoms: C_4  and  C_5
REMARK    5  A    between atoms: C_7  and  C_8
REMARK    6  A    between atoms: C_8  and  O_9
REMARK                            x       y       z     vdW  Elec       q    Type
REMARK                         _______ _______ _______ _____ _____    ______ ____
ROOT
ATOM      1  C   UNL     1       5.627   4.698  16.669  0.00  0.00    +0.000 C 
ATOM      2  C   UNL     1       7.118   4.586  16.879  0.00  0.00    +0.000 C 
ATOM      3  C   UNL     1       6.496   4.044  15.614  0.00  0.00    +0.000 C 
ENDROOT
BRANCH   1   4
ATOM      4  C   UNL     1       4.657   3.860  17.448  0.00  0.00    +0.000 C 
BRANCH   4   6
ATOM      5  C   UNL     1       4.269   5.246  19.417  0.00  0.00    +0.000 C 
ATOM      6  N   UNL     1       4.883   4.023  18.892  0.00  0.00    +0.000 NA
ATOM      7  C   UNL     1       4.353   2.863  19.613  0.00  0.00    +0.000 C 
ENDBRANCH   4   6
ENDBRANCH   1   4
BRANCH   3   8
ATOM      8  C   UNL     1       6.651   4.705  14.289  0.00  0.00    +0.000 C 
BRANCH   8   9
ATOM      9  O   UNL     1       7.843   5.480  14.289  0.00  0.00    +0.000 OA
ATOM     10  H   UNL     1       7.852   5.969  13.449  0.00  0.00    +0.000 HD
ENDBRANCH   8   9
ENDBRANCH   3   8
TORSDOF 4
ENDMDL
MODEL 9
REMARK VINA RESULT:      -3.9      3.479      4.986
REMARK  Name = 
REMARK  6 active torsions:
REMARK  status: ('A' for Active; 'I' for Inactive)
REMARK    1  A    between atoms: C_1  and  N_2
REMARK    2  A    between atoms: N_2  and  C_3
REMARK    3  A    between atoms: N_2  and  C_4
REMARK    4  A    between atoms: C_4  and  C_5
REMARK    5  A    between atoms: C_7  and  C_8
REMARK    6  A    between atoms: C_8  and  O_9
REMARK                            x       y       z     vdW  Elec       q    Type
REMARK                         _______ _______ _______ _____ _____    ______ ____
ROOT
ATOM      1  C   UNL     1       3.318   4.568  18.013  0.00  0.00    +0.000 C 
ATOM      2  C   UNL     1       1.828   4.472  17.795  0.00  0.00    +0.000 C 
ATOM      3  C   UNL     1       2.727   3.351  17.332  0.00  0.00    +0.000 C 
ENDROOT
BRANCH   1   4
ATOM      4  C   UNL     1       4.171   5.515  17.221  0.00  0.00    +0.000 C 
BRANCH   4   6
ATOM      5  C   UNL     1       5.595   5.186  19.174  0.00  0.00    +0.000 C 
ATOM      6  N   UNL     1       5.542   5.537  17.753  0.00  0.00    +0.000 NA
ATOM      7  C   UNL     1       6.386   4.613  16.991  0.00  0.00    +0.000 C 
ENDBRANCH   4   6
ENDBRANCH   1   4
BRANCH   3   8
ATOM      8  C   UNL     1       2.793   2.031  18.018  0.00  0.00    +0.000 C 
BRANCH   8   9
ATOM      9  O   UNL     1       1.492   1.670  18.462  0.00  0.00    +0.000 OA
ATOM     10  H   UNL     1       0.927   2.448  18.318  0.00  0.00    +0.000 HD
ENDBRANCH   8   9
ENDBRANCH   3   8
TORSDOF 4
ENDMDL
