MODEL 1
REMARK VINA RESULT:      -7.8      0.000      0.000
REMARK  Name = 
REMARK  2 active torsions:
REMARK  status: ('A' for Active; 'I' for Inactive)
REMARK    1  A    between atoms: C_7  and  C_8
REMARK    2  A    between atoms: N_9  and  N_10
REMARK                            x       y       z     vdW  Elec       q    Type
REMARK                         _______ _______ _______ _____ _____    ______ ____
ROOT
ATOM      1  C   UNL     1       4.517   3.364  18.627  0.00  0.00    +0.000 C 
ATOM      2  N   UNL     1       5.423   4.120  19.157  0.00  0.00    +0.000 NA
ENDROOT
BRANCH   2   3
ATOM      3  N   UNL     1       6.634   4.145  18.531  0.00  0.00    +0.000 N 
ATOM      4  C   UNL     1       6.812   4.824  17.372  0.00  0.00    +0.000 A 
ATOM      5  N   UNL     1       6.000   5.873  17.008  0.00  0.00    +0.000 NA
ATOM      6  N   UNL     1       6.413   6.284  15.818  0.00  0.00    +0.000 NA
ATOM      7  N   UNL     1       7.426   5.466  15.523  0.00  0.00    +0.000 N 
ATOM      8  N   UNL     1       7.749   4.556  16.455  0.00  0.00    +0.000 NA
ATOM      9  H   UNL     1       7.260   3.355  18.657  0.00  0.00    +0.000 HD
ATOM     10  H   UNL     1       7.913   5.528  14.634  0.00  0.00    +0.000 HD
ENDBRANCH   2   3
BRANCH   1  17
ATOM     11  F   UNL     1       2.456   1.850  17.470  0.00  0.00    +0.000 F 
ATOM     12  C   UNL     1       2.170   2.580  18.558  0.00  0.00    +0.000 A 
ATOM     13  C   UNL     1       0.867   2.571  19.052  0.00  0.00    +0.000 A 
ATOM     14  C   UNL     1       0.545   3.333  20.177  0.00  0.00    +0.000 A 
ATOM     15  C   UNL     1       1.529   4.095  20.808  0.00  0.00    +0.000 A 
ATOM     16  C   UNL     1       2.835   4.099  20.315  0.00  0.00    +0.000 A 
ATOM     17  C   UNL     1       3.156   3.340  19.183  0.00  0.00    +0.000 A 
ENDBRANCH   1  17
TORSDOF 2
ENDMDL
MODEL 2
REMARK VINA RESULT:      -7.7      0.980      1.028
REMARK  Name = 
REMARK  2 active torsions:
REMARK  status: ('A' for Active; 'I' for Inactive)
REMARK    1  A    between atoms: C_7  and  C_8
REMARK    2  A    between atoms: N_9  and  N_10
REMARK                            x       y       z     vdW  Elec       q    Type
REMARK                         _______ _______ _______ _____ _____    ______ ____
ROOT
ATOM      1  C   UNL     1       4.813   3.300  18.890  0.00  0.00    +0.000 C 
ATOM      2  N   UNL     1       5.643   4.250  19.176  0.00  0.00    +0.000 NA
ENDROOT
BRANCH   2   3
ATOM      3  N   UNL     1       6.815   4.261  18.480  0.00  0.00    +0.000 N 
ATOM      4  C   UNL     1       6.903   4.850  17.263  0.00  0.00    +0.000 A 
ATOM      5  N   UNL     1       6.035   5.841  16.866  0.00  0.00    +0.000 NA
ATOM      6  N   UNL     1       6.366   6.167  15.625  0.00  0.00    +0.000 NA
ATOM      7  N   UNL     1       7.389   5.359  15.335  0.00  0.00    +0.000 N 
ATOM      8  N   UNL     1       7.796   4.538  16.315  0.00  0.00    +0.000 NA
ATOM      9  H   UNL     1       7.474   3.504  18.630  0.00  0.00    +0.000 HD
ATOM     10  H   UNL     1       7.823   5.364  14.417  0.00  0.00    +0.000 HD
ENDBRANCH   2   3
BRANCH   1  17
ATOM     11  F   UNL     1       2.520   4.339  17.648  0.00  0.00    +0.000 F 
ATOM     12  C   UNL     1       2.389   3.800  18.869  0.00  0.00    +0.000 A 
ATOM     13  C   UNL     1       1.132   3.797  19.473  0.00  0.00    +0.000 A 
ATOM     14  C   UNL     1       0.976   3.251  20.749  0.00  0.00    +0.000 A 
ATOM     15  C   UNL     1       2.075   2.705  21.413  0.00  0.00    +0.000 A 
ATOM     16  C   UNL     1       3.331   2.703  20.804  0.00  0.00    +0.000 A 
ATOM     17  C   UNL     1       3.489   3.256  19.528  0.00  0.00    +0.000 A 
ENDBRANCH   1  17
TORSDOF 2
ENDMDL
MODEL 3
REMARK VINA RESULT:      -7.6      1.356      1.543
REMARK  Name = 
REMARK  2 active torsions:
REMARK  status: ('A' for Active; 'I' for Inactive)
REMARK    1  A    between atoms: C_7  and  C_8
REMARK    2  A    between atoms: N_9  and  N_10
REMARK                            x       y       z     vdW  Elec       q    Type
REMARK                         _______ _______ _______ _____ _____    ______ ____
ROOT
ATOM      1  C   UNL     1       4.796   3.406  18.949  0.00  0.00    +0.000 C 
ATOM      2  N   UNL     1       5.681   4.306  19.232  0.00  0.00    +0.000 NA
ENDROOT
BRANCH   2   3
ATOM      3  N   UNL     1       6.831   4.276  18.500  0.00  0.00    +0.000 N 
ATOM      4  C   UNL     1       6.907   4.871  17.285  0.00  0.00    +0.000 A 
ATOM      5  N   UNL     1       6.069   5.899  16.922  0.00  0.00    +0.000 NA
ATOM      6  N   UNL     1       6.375   6.222  15.674  0.00  0.00    +0.000 NA
ATOM      7  N   UNL     1       7.355   5.376  15.348  0.00  0.00    +0.000 N 
ATOM      8  N   UNL     1       7.758   4.531  16.309  0.00  0.00    +0.000 NA
ATOM      9  H   UNL     1       7.463   3.491  18.625  0.00  0.00    +0.000 HD
ATOM     10  H   UNL     1       7.762   5.372  14.417  0.00  0.00    +0.000 HD
ENDBRANCH   2   3
BRANCH   1  17
ATOM     11  F   UNL     1       4.318   1.932  21.289  0.00  0.00    +0.000 F 
ATOM     12  C   UNL     1       3.308   2.651  20.777  0.00  0.00    +0.000 A 
ATOM     13  C   UNL     1       2.069   2.621  21.414  0.00  0.00    +0.000 A 
ATOM     14  C   UNL     1       1.001   3.353  20.891  0.00  0.00    +0.000 A 
ATOM     15  C   UNL     1       1.179   4.119  19.738  0.00  0.00    +0.000 A 
ATOM     16  C   UNL     1       2.423   4.154  19.105  0.00  0.00    +0.000 A 
ATOM     17  C   UNL     1       3.491   3.413  19.626  0.00  0.00    +0.000 A 
ENDBRANCH   1  17
TORSDOF 2
ENDMDL
MODEL 4
REMARK VINA RESULT:      -7.3      1.411      1.743
REMARK  Name = 
REMARK  2 active torsions:
REMARK  status: ('A' for Active; 'I' for Inactive)
REMARK    1  A    between atoms: C_7  and  C_8
REMARK    2  A    between atoms: N_9  and  N_10
REMARK                            x       y       z     vdW  Elec       q    Type
REMARK                         _______ _______ _______ _____ _____    ______ ____
ROOT
ATOM      1  C   UNL     1       4.693   3.765  18.575  0.00  0.00    +0.000 C 
ATOM      2  N   UNL     1       5.788   4.087  19.183  0.00  0.00    +0.000 NA
ENDROOT
BRANCH   2   3
ATOM      3  N   UNL     1       6.914   4.145  18.415  0.00  0.00    +0.000 N 
ATOM      4  C   UNL     1       6.938   4.848  17.257  0.00  0.00    +0.000 A 
ATOM      5  N   UNL     1       6.072   5.889  17.016  0.00  0.00    +0.000 NA
ATOM      6  N   UNL     1       6.331   6.329  15.793  0.00  0.00    +0.000 NA
ATOM      7  N   UNL     1       7.313   5.534  15.360  0.00  0.00    +0.000 N 
ATOM      8  N   UNL     1       7.761   4.614  16.227  0.00  0.00    +0.000 NA
ATOM      9  H   UNL     1       7.562   3.364  18.448  0.00  0.00    +0.000 HD
ATOM     10  H   UNL     1       7.688   5.621  14.421  0.00  0.00    +0.000 HD
ENDBRANCH   2   3
BRANCH   1  17
ATOM     11  F   UNL     1       3.421   6.136  19.375  0.00  0.00    +0.000 F 
ATOM     12  C   UNL     1       2.838   4.969  19.687  0.00  0.00    +0.000 A 
ATOM     13  C   UNL     1       1.644   4.984  20.407  0.00  0.00    +0.000 A 
ATOM     14  C   UNL     1       1.027   3.780  20.752  0.00  0.00    +0.000 A 
ATOM     15  C   UNL     1       1.602   2.567  20.371  0.00  0.00    +0.000 A 
ATOM     16  C   UNL     1       2.794   2.554  19.644  0.00  0.00    +0.000 A 
ATOM     17  C   UNL     1       3.416   3.761  19.304  0.00  0.00    +0.000 A 
ENDBRANCH   1  17
TORSDOF 2
ENDMDL
MODEL 5
REMARK VINA RESULT:      -7.2      1.298      1.534
REMARK  Name = 
REMARK  2 active torsions:
REMARK  status: ('A' for Active; 'I' for Inactive)
REMARK    1  A    between atoms: C_7  and  C_8
REMARK    2  A    between atoms: N_9  and  N_10
REMARK                            x       y       z     vdW  Elec       q    Type
REMARK                         _______ _______ _______ _____ _____    ______ ____
ROOT
ATOM      1  C   UNL     1       3.580   5.359  17.936  0.00  0.00    +0.000 C 
ATOM      2  N   UNL     1       4.836   5.056  18.010  0.00  0.00    +0.000 NA
ENDROOT
BRANCH   2   3
ATOM      3  N   UNL     1       5.700   5.895  17.371  0.00  0.00    +0.000 N 
ATOM      4  C   UNL     1       6.324   5.523  16.228  0.00  0.00    +0.000 A 
ATOM      5  N   UNL     1       5.814   4.550  15.400  0.00  0.00    +0.000 NA
ATOM      6  N   UNL     1       6.676   4.401  14.405  0.00  0.00    +0.000 NA
ATOM      7  N   UNL     1       7.654   5.266  14.686  0.00  0.00    +0.000 N 
ATOM      8  N   UNL     1       7.487   6.018  15.785  0.00  0.00    +0.000 NA
ATOM      9  H   UNL     1       6.207   6.579  17.924  0.00  0.00    +0.000 HD
ATOM     10  H   UNL     1       8.481   5.337  14.101  0.00  0.00    +0.000 HD
ENDBRANCH   2   3
BRANCH   1  17
ATOM     11  F   UNL     1       2.399   3.067  16.828  0.00  0.00    +0.000 F 
ATOM     12  C   UNL     1       2.021   3.441  18.059  0.00  0.00    +0.000 A 
ATOM     13  C   UNL     1       1.050   2.692  18.721  0.00  0.00    +0.000 A 
ATOM     14  C   UNL     1       0.633   3.071  19.999  0.00  0.00    +0.000 A 
ATOM     15  C   UNL     1       1.193   4.193  20.612  0.00  0.00    +0.000 A 
ATOM     16  C   UNL     1       2.170   4.938  19.949  0.00  0.00    +0.000 A 
ATOM     17  C   UNL     1       2.583   4.562  18.665  0.00  0.00    +0.000 A 
ENDBRANCH   1  17
TORSDOF 2
ENDMDL
MODEL 6
REMARK VINA RESULT:      -7.2      1.517      1.690
REMARK  Name = 
REMARK  2 active torsions:
REMARK  status: ('A' for Active; 'I' for Inactive)
REMARK    1  A    between atoms: C_7  and  C_8
REMARK    2  A    between atoms: N_9  and  N_10
REMARK                            x       y       z     vdW  Elec       q    Type
REMARK                         _______ _______ _______ _____ _____    ______ ____
ROOT
ATOM      1  C   UNL     1       3.567   3.070  17.582  0.00  0.00    +0.000 C 
ATOM      2  N   UNL     1       4.856   3.178  17.599  0.00  0.00    +0.000 NA
ENDROOT
BRANCH   2   3
ATOM      3  N   UNL     1       5.481   3.161  16.387  0.00  0.00    +0.000 N 
ATOM      4  C   UNL     1       6.278   4.183  15.992  0.00  0.00    +0.000 A 
ATOM      5  N   UNL     1       6.883   5.028  16.894  0.00  0.00    +0.000 NA
ATOM      6  N   UNL     1       7.550   5.929  16.188  0.00  0.00    +0.000 NA
ATOM      7  N   UNL     1       7.304   5.598  14.918  0.00  0.00    +0.000 N 
ATOM      8  N   UNL     1       6.549   4.506  14.722  0.00  0.00    +0.000 NA
ATOM      9  H   UNL     1       5.047   2.647  15.626  0.00  0.00    +0.000 HD
ATOM     10  H   UNL     1       7.665   6.153  14.148  0.00  0.00    +0.000 HD
ENDBRANCH   2   3
BRANCH   1  17
ATOM     11  F   UNL     1       1.018   4.241  17.689  0.00  0.00    +0.000 F 
ATOM     12  C   UNL     1       1.545   3.769  18.828  0.00  0.00    +0.000 A 
ATOM     13  C   UNL     1       0.819   3.897  20.010  0.00  0.00    +0.000 A 
ATOM     14  C   UNL     1       1.355   3.423  21.209  0.00  0.00    +0.000 A 
ATOM     15  C   UNL     1       2.611   2.817  21.220  0.00  0.00    +0.000 A 
ATOM     16  C   UNL     1       3.335   2.683  20.034  0.00  0.00    +0.000 A 
ATOM     17  C   UNL     1       2.801   3.165  18.833  0.00  0.00    +0.000 A 
ENDBRANCH   1  17
TORSDOF 2
ENDMDL
MODEL 7
REMARK VINA RESULT:      -7.2      6.412      8.773
REMARK  Name = 
REMARK  2 active torsions:
REMARK  status: ('A' for Active; 'I' for Inactive)
REMARK    1  A    between atoms: C_7  and  C_8
REMARK    2  A    between atoms: N_9  and  N_10
REMARK                            x       y       z     vdW  Elec       q    Type
REMARK                         _______ _______ _______ _____ _____    ______ ____
ROOT
ATOM      1  C   UNL     1       8.650  10.000  17.994  0.00  0.00    +0.000 C 
ATOM      2  N   UNL     1       8.350   8.778  18.297  0.00  0.00    +0.000 NA
ENDROOT
BRANCH   2   3
ATOM      3  N   UNL     1       7.635   8.082  17.367  0.00  0.00    +0.000 N 
ATOM      4  C   UNL     1       7.580   6.728  17.393  0.00  0.00    +0.000 A 
ATOM      5  N   UNL     1       7.803   6.009  18.545  0.00  0.00    +0.000 NA
ATOM      6  N   UNL     1       7.716   4.728  18.220  0.00  0.00    +0.000 NA
ATOM      7  N   UNL     1       7.464   4.738  16.909  0.00  0.00    +0.000 N 
ATOM      8  N   UNL     1       7.335   5.944  16.336  0.00  0.00    +0.000 NA
ATOM      9  H   UNL     1       7.511   8.491  16.446  0.00  0.00    +0.000 HD
ATOM     10  H   UNL     1       7.386   3.875  16.380  0.00  0.00    +0.000 HD
ENDBRANCH   2   3
BRANCH   1  17
ATOM     11  F   UNL     1      10.966  11.312  17.106  0.00  0.00    +0.000 F 
ATOM     12  C   UNL     1      10.637  11.418  18.402  0.00  0.00    +0.000 A 
ATOM     13  C   UNL     1      11.464  12.153  19.249  0.00  0.00    +0.000 A 
ATOM     14  C   UNL     1      11.146  12.266  20.604  0.00  0.00    +0.000 A 
ATOM     15  C   UNL     1       9.998  11.649  21.105  0.00  0.00    +0.000 A 
ATOM     16  C   UNL     1       9.168  10.918  20.253  0.00  0.00    +0.000 A 
ATOM     17  C   UNL     1       9.491  10.799  18.896  0.00  0.00    +0.000 A 
ENDBRANCH   1  17
TORSDOF 2
ENDMDL
MODEL 8
REMARK VINA RESULT:      -7.1      1.673      2.151
REMARK  Name = 
REMARK  2 active torsions:
REMARK  status: ('A' for Active; 'I' for Inactive)
REMARK    1  A    between atoms: C_7  and  C_8
REMARK    2  A    between atoms: N_9  and  N_10
REMARK                            x       y       z     vdW  Elec       q    Type
REMARK                         _______ _______ _______ _____ _____    ______ ____
ROOT
ATOM      1  C   UNL     1       3.865   4.161  17.500  0.00  0.00    +0.000 C 
ATOM      2  N   UNL     1       5.076   3.816  17.801  0.00  0.00    +0.000 NA
ENDROOT
BRANCH   2   3
ATOM      3  N   UNL     1       6.043   4.152  16.901  0.00  0.00    +0.000 N 
ATOM      4  C   UNL     1       6.725   5.318  17.004  0.00  0.00    +0.000 A 
ATOM      5  N   UNL     1       6.853   5.985  18.200  0.00  0.00    +0.000 NA
ATOM      6  N   UNL     1       7.534   7.094  17.950  0.00  0.00    +0.000 NA
ATOM      7  N   UNL     1       7.765   7.048  16.636  0.00  0.00    +0.000 N 
ATOM      8  N   UNL     1       7.320   5.959  15.991  0.00  0.00    +0.000 NA
ATOM      9  H   UNL     1       5.970   3.789  15.955  0.00  0.00    +0.000 HD
ATOM     10  H   UNL     1       8.243   7.804  16.157  0.00  0.00    +0.000 HD
ENDBRANCH   2   3
BRANCH   1  17
ATOM     11  F   UNL     1       3.610   5.607  19.892  0.00  0.00    +0.000 F 
ATOM     12  C   UNL     1       2.701   4.657  19.628  0.00  0.00    +0.000 A 
ATOM     13  C   UNL     1       1.688   4.418  20.554  0.00  0.00    +0.000 A 
ATOM     14  C   UNL     1       0.739   3.425  20.304  0.00  0.00    +0.000 A 
ATOM     15  C   UNL     1       0.802   2.681  19.125  0.00  0.00    +0.000 A 
ATOM     16  C   UNL     1       1.813   2.926  18.195  0.00  0.00    +0.000 A 
ATOM     17  C   UNL     1       2.770   3.917  18.449  0.00  0.00    +0.000 A 
ENDBRANCH   1  17
TORSDOF 2
ENDMDL
MODEL 9
REMARK VINA RESULT:      -7.1      1.577      1.814
REMARK  Name = 
REMARK  2 active torsions:
REMARK  status: ('A' for Active; 'I' for Inactive)
REMARK    1  A    between atoms: C_7  and  C_8
REMARK    2  A    between atoms: N_9  and  N_10
REMARK                            x       y       z     vdW  Elec       q    Type
REMARK                         _______ _______ _______ _____ _____    ______ ____
ROOT
ATOM      1  C   UNL     1       4.250   3.818  18.314  0.00  0.00    +0.000 C 
ATOM      2  N   UNL     1       5.509   3.901  18.600  0.00  0.00    +0.000 NA
ENDROOT
BRANCH   2   3
ATOM      3  N   UNL     1       6.352   4.148  17.557  0.00  0.00    +0.000 N 
ATOM      4  C   UNL     1       6.937   5.359  17.397  0.00  0.00    +0.000 A 
ATOM      5  N   UNL     1       7.120   6.227  18.449  0.00  0.00    +0.000 NA
ATOM      6  N   UNL     1       7.674   7.323  17.951  0.00  0.00    +0.000 NA
ATOM      7  N   UNL     1       7.781   7.071  16.644  0.00  0.00    +0.000 N 
ATOM      8  N   UNL     1       7.373   5.861  16.234  0.00  0.00    +0.000 NA
ATOM      9  H   UNL     1       6.221   3.626  16.695  0.00  0.00    +0.000 HD
ATOM     10  H   UNL     1       8.143   7.768  16.000  0.00  0.00    +0.000 HD
ENDBRANCH   2   3
BRANCH   1  17
ATOM     11  F   UNL     1       4.615   1.973  20.398  0.00  0.00    +0.000 F 
ATOM     12  C   UNL     1       3.488   2.700  20.386  0.00  0.00    +0.000 A 
ATOM     13  C   UNL     1       2.544   2.495  21.391  0.00  0.00    +0.000 A 
ATOM     14  C   UNL     1       1.359   3.233  21.391  0.00  0.00    +0.000 A 
ATOM     15  C   UNL     1       1.124   4.177  20.391  0.00  0.00    +0.000 A 
ATOM     16  C   UNL     1       2.073   4.385  19.388  0.00  0.00    +0.000 A 
ATOM     17  C   UNL     1       3.259   3.640  19.385  0.00  0.00    +0.000 A 
ENDBRANCH   1  17
TORSDOF 2
ENDMDL
