MODEL 1
REMARK VINA RESULT:      -6.8      0.000      0.000
REMARK  Name = 
REMARK  7 active torsions:
REMARK  status: ('A' for Active; 'I' for Inactive)
REMARK    1  A    between atoms: C_1  and  O_2
REMARK    2  A    between atoms: O_2  and  C_3
REMARK    3  A    between atoms: C_6  and  C_7
REMARK    4  A    between atoms: C_9  and  N_10
REMARK    5  A    between atoms: N_13  and  C_14
REMARK    6  A    between atoms: C_17  and  O_18
REMARK    7  A    between atoms: C_20  and  O_21
REMARK                            x       y       z     vdW  Elec       q    Type
REMARK                         _______ _______ _______ _____ _____    ______ ____
ROOT
ATOM      1  N   UNL     1       4.648   4.322  18.772  0.00  0.00    +0.000 N 
ATOM      2  C   UNL     1       4.850   4.610  17.434  0.00  0.00    +0.000 C 
ATOM      3  O   UNL     1       4.049   5.185  16.702  0.00  0.00    +0.000 OA
ATOM      4  N   UNL     1       6.055   4.135  16.947  0.00  0.00    +0.000 N 
ATOM      5  H   UNL     1       5.386   3.871  19.295  0.00  0.00    +0.000 HD
ATOM      6  H   UNL     1       6.414   3.292  17.380  0.00  0.00    +0.000 HD
ENDROOT
BRANCH   1  13
ATOM      7  C   UNL     1       2.589   3.463  19.770  0.00  0.00    +0.000 A 
ATOM      8  C   UNL     1       1.382   3.689  20.454  0.00  0.00    +0.000 A 
ATOM      9  C   UNL     1       1.000   4.976  20.834  0.00  0.00    +0.000 A 
ATOM     10  C   UNL     1       1.836   6.058  20.566  0.00  0.00    +0.000 A 
ATOM     11  C   UNL     1       1.459   7.458  20.943  0.00  0.00    +0.000 C 
ATOM     12  C   UNL     1       3.053   5.828  19.919  0.00  0.00    +0.000 A 
ATOM     13  C   UNL     1       3.445   4.548  19.497  0.00  0.00    +0.000 A 
BRANCH   7  15
ATOM     14  C   UNL     1       2.421   1.807  18.084  0.00  0.00    +0.000 C 
ATOM     15  O   UNL     1       2.986   2.221  19.330  0.00  0.00    +0.000 OA
ENDBRANCH   7  15
ENDBRANCH   1  13
BRANCH   4  16
ATOM     16  C   UNL     1       6.386   4.288  15.575  0.00  0.00    +0.000 A 
ATOM     17  C   UNL     1       5.983   3.445  14.555  0.00  0.00    +0.000 A 
ATOM     18  N   UNL     1       6.362   3.584  13.263  0.00  0.00    +0.000 NA
ATOM     19  C   UNL     1       7.191   4.608  13.028  0.00  0.00    +0.000 A 
ATOM     20  N   UNL     1       7.657   5.498  13.902  0.00  0.00    +0.000 NA
ATOM     21  C   UNL     1       7.221   5.308  15.152  0.00  0.00    +0.000 A 
BRANCH  19  22
ATOM     22  O   UNL     1       7.598   4.713  11.737  0.00  0.00    +0.000 OA
ATOM     23  H   UNL     1       8.452   4.258  11.810  0.00  0.00    +0.000 HD
ENDBRANCH  19  22
BRANCH  21  24
ATOM     24  O   UNL     1       7.749   6.180  16.057  0.00  0.00    +0.000 OA
ATOM     25  H   UNL     1       8.077   5.545  16.721  0.00  0.00    +0.000 HD
ENDBRANCH  21  24
ENDBRANCH   4  16
TORSDOF 5
ENDMDL
MODEL 2
REMARK VINA RESULT:      -6.8      2.214      7.533
REMARK  Name = 
REMARK  7 active torsions:
REMARK  status: ('A' for Active; 'I' for Inactive)
REMARK    1  A    between atoms: C_1  and  O_2
REMARK    2  A    between atoms: O_2  and  C_3
REMARK    3  A    between atoms: C_6  and  C_7
REMARK    4  A    between atoms: C_9  and  N_10
REMARK    5  A    between atoms: N_13  and  C_14
REMARK    6  A    between atoms: C_17  and  O_18
REMARK    7  A    between atoms: C_20  and  O_21
REMARK                            x       y       z     vdW  Elec       q    Type
REMARK                         _______ _______ _______ _____ _____    ______ ____
ROOT
ATOM      1  N   UNL     1       4.437   5.360  16.306  0.00  0.00    +0.000 N 
ATOM      2  C   UNL     1       4.098   4.615  17.421  0.00  0.00    +0.000 C 
ATOM      3  O   UNL     1       4.651   3.579  17.778  0.00  0.00    +0.000 OA
ATOM      4  N   UNL     1       3.007   5.121  18.106  0.00  0.00    +0.000 N 
ATOM      5  H   UNL     1       3.937   6.218  16.116  0.00  0.00    +0.000 HD
ATOM      6  H   UNL     1       2.316   5.611  17.552  0.00  0.00    +0.000 HD
ENDROOT
BRANCH   1  13
ATOM      7  C   UNL     1       6.711   5.526  15.423  0.00  0.00    +0.000 A 
ATOM      8  C   UNL     1       7.661   5.200  14.440  0.00  0.00    +0.000 A 
ATOM      9  C   UNL     1       7.324   4.392  13.353  0.00  0.00    +0.000 A 
ATOM     10  C   UNL     1       6.037   3.868  13.247  0.00  0.00    +0.000 A 
ATOM     11  C   UNL     1       5.629   3.010  12.090  0.00  0.00    +0.000 C 
ATOM     12  C   UNL     1       5.104   4.163  14.244  0.00  0.00    +0.000 A 
ATOM     13  C   UNL     1       5.408   4.999  15.330  0.00  0.00    +0.000 A 
BRANCH   7  15
ATOM     14  C   UNL     1       7.532   5.714  17.638  0.00  0.00    +0.000 C 
ATOM     15  O   UNL     1       6.979   6.357  16.486  0.00  0.00    +0.000 OA
ENDBRANCH   7  15
ENDBRANCH   1  13
BRANCH   4  16
ATOM     16  C   UNL     1       2.489   4.435  19.237  0.00  0.00    +0.000 A 
ATOM     17  C   UNL     1       2.713   4.784  20.556  0.00  0.00    +0.000 A 
ATOM     18  N   UNL     1       2.254   4.077  21.615  0.00  0.00    +0.000 NA
ATOM     19  C   UNL     1       1.563   2.976  21.298  0.00  0.00    +0.000 A 
ATOM     20  N   UNL     1       1.267   2.520  20.083  0.00  0.00    +0.000 NA
ATOM     21  C   UNL     1       1.736   3.283  19.089  0.00  0.00    +0.000 A 
BRANCH  19  22
ATOM     22  O   UNL     1       1.143   2.252  22.367  0.00  0.00    +0.000 OA
ATOM     23  H   UNL     1       0.593   2.926  22.799  0.00  0.00    +0.000 HD
ENDBRANCH  19  22
BRANCH  21  24
ATOM     24  O   UNL     1       1.488   2.782  17.847  0.00  0.00    +0.000 OA
ATOM     25  H   UNL     1       1.645   3.584  17.314  0.00  0.00    +0.000 HD
ENDBRANCH  21  24
ENDBRANCH   4  16
TORSDOF 5
ENDMDL
MODEL 3
REMARK VINA RESULT:      -6.7      5.525      9.074
REMARK  Name = 
REMARK  7 active torsions:
REMARK  status: ('A' for Active; 'I' for Inactive)
REMARK    1  A    between atoms: C_1  and  O_2
REMARK    2  A    between atoms: O_2  and  C_3
REMARK    3  A    between atoms: C_6  and  C_7
REMARK    4  A    between atoms: C_9  and  N_10
REMARK    5  A    between atoms: N_13  and  C_14
REMARK    6  A    between atoms: C_17  and  O_18
REMARK    7  A    between atoms: C_20  and  O_21
REMARK                            x       y       z     vdW  Elec       q    Type
REMARK                         _______ _______ _______ _____ _____    ______ ____
ROOT
ATOM      1  N   UNL     1       2.092   7.507  20.510  0.00  0.00    +0.000 N 
ATOM      2  C   UNL     1       0.969   8.171  20.969  0.00  0.00    +0.000 C 
ATOM      3  O   UNL     1      -0.126   7.655  21.175  0.00  0.00    +0.000 OA
ATOM      4  N   UNL     1       1.166   9.530  21.137  0.00  0.00    +0.000 N 
ATOM      5  H   UNL     1       2.957   8.019  20.402  0.00  0.00    +0.000 HD
ATOM      6  H   UNL     1       1.838   9.967  20.517  0.00  0.00    +0.000 HD
ENDROOT
BRANCH   1  13
ATOM      7  C   UNL     1       2.454   5.836  18.763  0.00  0.00    +0.000 A 
ATOM      8  C   UNL     1       2.468   4.493  18.348  0.00  0.00    +0.000 A 
ATOM      9  C   UNL     1       2.142   3.463  19.232  0.00  0.00    +0.000 A 
ATOM     10  C   UNL     1       1.829   3.756  20.557  0.00  0.00    +0.000 A 
ATOM     11  C   UNL     1       1.459   2.684  21.535  0.00  0.00    +0.000 C 
ATOM     12  C   UNL     1       1.851   5.089  20.978  0.00  0.00    +0.000 A 
ATOM     13  C   UNL     1       2.142   6.145  20.101  0.00  0.00    +0.000 A 
BRANCH   7  15
ATOM     14  C   UNL     1       4.061   6.958  17.432  0.00  0.00    +0.000 C 
ATOM     15  O   UNL     1       2.718   6.890  17.919  0.00  0.00    +0.000 OA
ENDBRANCH   7  15
ENDBRANCH   1  13
BRANCH   4  16
ATOM     16  C   UNL     1       0.092  10.368  21.538  0.00  0.00    +0.000 A 
ATOM     17  C   UNL     1      -0.594  11.241  20.714  0.00  0.00    +0.000 A 
ATOM     18  N   UNL     1      -1.576  12.070  21.138  0.00  0.00    +0.000 NA
ATOM     19  C   UNL     1      -1.840  12.004  22.448  0.00  0.00    +0.000 A 
ATOM     20  N   UNL     1      -1.270  11.215  23.357  0.00  0.00    +0.000 NA
ATOM     21  C   UNL     1      -0.325  10.410  22.858  0.00  0.00    +0.000 A 
BRANCH  19  22
ATOM     22  O   UNL     1      -2.798  12.868  22.871  0.00  0.00    +0.000 OA
ATOM     23  H   UNL     1      -2.591  12.871  23.819  0.00  0.00    +0.000 HD
ENDBRANCH  19  22
BRANCH  21  24
ATOM     24  O   UNL     1       0.302   9.649  23.799  0.00  0.00    +0.000 OA
ATOM     25  H   UNL     1       0.808   9.054  23.214  0.00  0.00    +0.000 HD
ENDBRANCH  21  24
ENDBRANCH   4  16
TORSDOF 5
ENDMDL
MODEL 4
REMARK VINA RESULT:      -6.6      2.203      7.474
REMARK  Name = 
REMARK  7 active torsions:
REMARK  status: ('A' for Active; 'I' for Inactive)
REMARK    1  A    between atoms: C_1  and  O_2
REMARK    2  A    between atoms: O_2  and  C_3
REMARK    3  A    between atoms: C_6  and  C_7
REMARK    4  A    between atoms: C_9  and  N_10
REMARK    5  A    between atoms: N_13  and  C_14
REMARK    6  A    between atoms: C_17  and  O_18
REMARK    7  A    between atoms: C_20  and  O_21
REMARK                            x       y       z     vdW  Elec       q    Type
REMARK                         _______ _______ _______ _____ _____    ______ ____
ROOT
ATOM      1  N   UNL     1       4.329   5.097  16.036  0.00  0.00    +0.000 N 
ATOM      2  C   UNL     1       4.101   4.379  17.196  0.00  0.00    +0.000 C 
ATOM      3  O   UNL     1       4.791   3.449  17.603  0.00  0.00    +0.000 OA
ATOM      4  N   UNL     1       2.955   4.771  17.866  0.00  0.00    +0.000 N 
ATOM      5  H   UNL     1       3.717   5.867  15.805  0.00  0.00    +0.000 HD
ATOM      6  H   UNL     1       2.200   5.130  17.294  0.00  0.00    +0.000 HD
ENDROOT
BRANCH   1  13
ATOM      7  C   UNL     1       6.577   5.474  15.152  0.00  0.00    +0.000 A 
ATOM      8  C   UNL     1       7.559   5.224  14.177  0.00  0.00    +0.000 A 
ATOM      9  C   UNL     1       7.309   4.361  13.108  0.00  0.00    +0.000 A 
ATOM     10  C   UNL     1       6.083   3.706  13.014  0.00  0.00    +0.000 A 
ATOM     11  C   UNL     1       5.768   2.784  11.877  0.00  0.00    +0.000 C 
ATOM     12  C   UNL     1       5.121   3.927  14.004  0.00  0.00    +0.000 A 
ATOM     13  C   UNL     1       5.335   4.814  15.070  0.00  0.00    +0.000 A 
BRANCH   7  15
ATOM     14  C   UNL     1       7.418   5.811  17.341  0.00  0.00    +0.000 C 
ATOM     15  O   UNL     1       6.755   6.353  16.195  0.00  0.00    +0.000 OA
ENDBRANCH   7  15
ENDBRANCH   1  13
BRANCH   4  16
ATOM     16  C   UNL     1       2.541   4.088  19.040  0.00  0.00    +0.000 A 
ATOM     17  C   UNL     1       1.938   2.843  19.073  0.00  0.00    +0.000 A 
ATOM     18  N   UNL     1       1.502   2.243  20.204  0.00  0.00    +0.000 NA
ATOM     19  C   UNL     1       1.677   2.956  21.322  0.00  0.00    +0.000 A 
ATOM     20  N   UNL     1       2.240   4.156  21.445  0.00  0.00    +0.000 NA
ATOM     21  C   UNL     1       2.666   4.675  20.288  0.00  0.00    +0.000 A 
BRANCH  19  22
ATOM     22  O   UNL     1       1.198   2.363  22.445  0.00  0.00    +0.000 OA
ATOM     23  H   UNL     1       0.758   3.130  22.846  0.00  0.00    +0.000 HD
ENDBRANCH  19  22
BRANCH  21  24
ATOM     24  O   UNL     1       3.184   5.930  20.406  0.00  0.00    +0.000 OA
ATOM     25  H   UNL     1       3.961   5.732  20.963  0.00  0.00    +0.000 HD
ENDBRANCH  21  24
ENDBRANCH   4  16
TORSDOF 5
ENDMDL
MODEL 5
REMARK VINA RESULT:      -6.6      2.112      7.410
REMARK  Name = 
REMARK  7 active torsions:
REMARK  status: ('A' for Active; 'I' for Inactive)
REMARK    1  A    between atoms: C_1  and  O_2
REMARK    2  A    between atoms: O_2  and  C_3
REMARK    3  A    between atoms: C_6  and  C_7
REMARK    4  A    between atoms: C_9  and  N_10
REMARK    5  A    between atoms: N_13  and  C_14
REMARK    6  A    between atoms: C_17  and  O_18
REMARK    7  A    between atoms: C_20  and  O_21
REMARK                            x       y       z     vdW  Elec       q    Type
REMARK                         _______ _______ _______ _____ _____    ______ ____
ROOT
ATOM      1  N   UNL     1       4.896   5.065  16.008  0.00  0.00    +0.000 N 
ATOM      2  C   UNL     1       4.360   4.234  16.974  0.00  0.00    +0.000 C 
ATOM      3  O   UNL     1       4.407   3.007  16.962  0.00  0.00    +0.000 OA
ATOM      4  N   UNL     1       3.691   4.917  17.975  0.00  0.00    +0.000 N 
ATOM      5  H   UNL     1       4.830   6.066  16.127  0.00  0.00    +0.000 HD
ATOM      6  H   UNL     1       3.253   5.790  17.708  0.00  0.00    +0.000 HD
ENDROOT
BRANCH   1  13
ATOM      7  C   UNL     1       6.870   4.878  14.577  0.00  0.00    +0.000 A 
ATOM      8  C   UNL     1       7.457   4.494  13.359  0.00  0.00    +0.000 A 
ATOM      9  C   UNL     1       6.696   3.915  12.343  0.00  0.00    +0.000 A 
ATOM     10  C   UNL     1       5.337   3.679  12.540  0.00  0.00    +0.000 A 
ATOM     11  C   UNL     1       4.480   3.073  11.472  0.00  0.00    +0.000 C 
ATOM     12  C   UNL     1       4.761   4.028  13.764  0.00  0.00    +0.000 A 
ATOM     13  C   UNL     1       5.497   4.641  14.790  0.00  0.00    +0.000 A 
BRANCH   7  15
ATOM     14  C   UNL     1       7.708   4.731  16.788  0.00  0.00    +0.000 C 
ATOM     15  O   UNL     1       7.566   5.498  15.589  0.00  0.00    +0.000 OA
ENDBRANCH   7  15
ENDBRANCH   1  13
BRANCH   4  16
ATOM     16  C   UNL     1       3.025   4.207  19.009  0.00  0.00    +0.000 A 
ATOM     17  C   UNL     1       1.689   4.340  19.339  0.00  0.00    +0.000 A 
ATOM     18  N   UNL     1       1.095   3.692  20.368  0.00  0.00    +0.000 NA
ATOM     19  C   UNL     1       1.909   2.904  21.080  0.00  0.00    +0.000 A 
ATOM     20  N   UNL     1       3.205   2.675  20.879  0.00  0.00    +0.000 NA
ATOM     21  C   UNL     1       3.715   3.334  19.832  0.00  0.00    +0.000 A 
BRANCH  19  22
ATOM     22  O   UNL     1       1.313   2.291  22.135  0.00  0.00    +0.000 OA
ATOM     23  H   UNL     1       1.495   1.367  21.896  0.00  0.00    +0.000 HD
ENDBRANCH  19  22
BRANCH  21  24
ATOM     24  O   UNL     1       5.055   3.150  19.667  0.00  0.00    +0.000 OA
ATOM     25  H   UNL     1       5.317   4.063  19.444  0.00  0.00    +0.000 HD
ENDBRANCH  21  24
ENDBRANCH   4  16
TORSDOF 5
ENDMDL
MODEL 6
REMARK VINA RESULT:      -6.5      5.189      8.665
REMARK  Name = 
REMARK  7 active torsions:
REMARK  status: ('A' for Active; 'I' for Inactive)
REMARK    1  A    between atoms: C_1  and  O_2
REMARK    2  A    between atoms: O_2  and  C_3
REMARK    3  A    between atoms: C_6  and  C_7
REMARK    4  A    between atoms: C_9  and  N_10
REMARK    5  A    between atoms: N_13  and  C_14
REMARK    6  A    between atoms: C_17  and  O_18
REMARK    7  A    between atoms: C_20  and  O_21
REMARK                            x       y       z     vdW  Elec       q    Type
REMARK                         _______ _______ _______ _____ _____    ______ ____
ROOT
ATOM      1  N   UNL     1       2.224   6.884  20.618  0.00  0.00    +0.000 N 
ATOM      2  C   UNL     1       1.500   8.061  20.558  0.00  0.00    +0.000 C 
ATOM      3  O   UNL     1       0.988   8.529  19.545  0.00  0.00    +0.000 OA
ATOM      4  N   UNL     1       1.437   8.727  21.769  0.00  0.00    +0.000 N 
ATOM      5  H   UNL     1       2.579   6.569  21.510  0.00  0.00    +0.000 HD
ATOM      6  H   UNL     1       2.229   8.610  22.389  0.00  0.00    +0.000 HD
ENDROOT
BRANCH   1  13
ATOM      7  C   UNL     1       2.059   4.773  19.397  0.00  0.00    +0.000 A 
ATOM      8  C   UNL     1       2.444   3.958  18.317  0.00  0.00    +0.000 A 
ATOM      9  C   UNL     1       3.369   4.405  17.372  0.00  0.00    +0.000 A 
ATOM     10  C   UNL     1       3.900   5.689  17.471  0.00  0.00    +0.000 A 
ATOM     11  C   UNL     1       4.905   6.203  16.488  0.00  0.00    +0.000 C 
ATOM     12  C   UNL     1       3.489   6.511  18.523  0.00  0.00    +0.000 A 
ATOM     13  C   UNL     1       2.586   6.074  19.505  0.00  0.00    +0.000 A 
BRANCH   7  15
ATOM     14  C   UNL     1       1.122   2.947  20.580  0.00  0.00    +0.000 C 
ATOM     15  O   UNL     1       1.190   4.361  20.381  0.00  0.00    +0.000 OA
ENDBRANCH   7  15
ENDBRANCH   1  13
BRANCH   4  16
ATOM     16  C   UNL     1       0.787   9.987  21.863  0.00  0.00    +0.000 A 
ATOM     17  C   UNL     1       1.151  11.129  21.172  0.00  0.00    +0.000 A 
ATOM     18  N   UNL     1       0.548  12.330  21.326  0.00  0.00    +0.000 NA
ATOM     19  C   UNL     1      -0.440  12.352  22.228  0.00  0.00    +0.000 A 
ATOM     20  N   UNL     1      -0.900  11.339  22.960  0.00  0.00    +0.000 NA
ATOM     21  C   UNL     1      -0.269  10.181  22.736  0.00  0.00    +0.000 A 
BRANCH  19  22
ATOM     22  O   UNL     1      -1.010  13.572  22.404  0.00  0.00    +0.000 OA
ATOM     23  H   UNL     1      -1.820  13.295  22.863  0.00  0.00    +0.000 HD
ENDBRANCH  19  22
BRANCH  21  24
ATOM     24  O   UNL     1      -0.697   9.160  23.532  0.00  0.00    +0.000 OA
ATOM     25  H   UNL     1      -0.209   8.421  23.122  0.00  0.00    +0.000 HD
ENDBRANCH  21  24
ENDBRANCH   4  16
TORSDOF 5
ENDMDL
MODEL 7
REMARK VINA RESULT:      -6.5      4.351      7.817
REMARK  Name = 
REMARK  7 active torsions:
REMARK  status: ('A' for Active; 'I' for Inactive)
REMARK    1  A    between atoms: C_1  and  O_2
REMARK    2  A    between atoms: O_2  and  C_3
REMARK    3  A    between atoms: C_6  and  C_7
REMARK    4  A    between atoms: C_9  and  N_10
REMARK    5  A    between atoms: N_13  and  C_14
REMARK    6  A    between atoms: C_17  and  O_18
REMARK    7  A    between atoms: C_20  and  O_21
REMARK                            x       y       z     vdW  Elec       q    Type
REMARK                         _______ _______ _______ _____ _____    ______ ____
ROOT
ATOM      1  N   UNL     1       2.941   5.914  19.886  0.00  0.00    +0.000 N 
ATOM      2  C   UNL     1       2.273   7.120  19.783  0.00  0.00    +0.000 C 
ATOM      3  O   UNL     1       2.288   7.859  18.803  0.00  0.00    +0.000 OA
ATOM      4  N   UNL     1       1.597   7.472  20.938  0.00  0.00    +0.000 N 
ATOM      5  H   UNL     1       2.839   5.364  20.729  0.00  0.00    +0.000 HD
ATOM      6  H   UNL     1       1.997   7.148  21.810  0.00  0.00    +0.000 HD
ENDROOT
BRANCH   1  13
ATOM      7  C   UNL     1       3.335   4.578  17.877  0.00  0.00    +0.000 A 
ATOM      8  C   UNL     1       4.224   4.016  16.945  0.00  0.00    +0.000 A 
ATOM      9  C   UNL     1       5.602   4.208  17.058  0.00  0.00    +0.000 A 
ATOM     10  C   UNL     1       6.113   4.993  18.088  0.00  0.00    +0.000 A 
ATOM     11  C   UNL     1       7.585   5.213  18.256  0.00  0.00    +0.000 C 
ATOM     12  C   UNL     1       5.226   5.581  18.994  0.00  0.00    +0.000 A 
ATOM     13  C   UNL     1       3.839   5.377  18.922  0.00  0.00    +0.000 A 
BRANCH   7  15
ATOM     14  C   UNL     1       1.540   3.068  18.217  0.00  0.00    +0.000 C 
ATOM     15  O   UNL     1       1.974   4.377  17.839  0.00  0.00    +0.000 OA
ENDBRANCH   7  15
ENDBRANCH   1  13
BRANCH   4  16
ATOM     16  C   UNL     1       0.915   8.715  21.020  0.00  0.00    +0.000 A 
ATOM     17  C   UNL     1      -0.033   9.169  20.121  0.00  0.00    +0.000 A 
ATOM     18  N   UNL     1      -0.624  10.384  20.193  0.00  0.00    +0.000 NA
ATOM     19  C   UNL     1      -0.211  11.151  21.208  0.00  0.00    +0.000 A 
ATOM     20  N   UNL     1       0.683  10.849  22.148  0.00  0.00    +0.000 NA
ATOM     21  C   UNL     1       1.207   9.624  22.022  0.00  0.00    +0.000 A 
BRANCH  19  22
ATOM     22  O   UNL     1      -0.780  12.383  21.247  0.00  0.00    +0.000 OA
ATOM     23  H   UNL     1      -0.379  12.709  22.069  0.00  0.00    +0.000 HD
ENDBRANCH  19  22
BRANCH  21  24
ATOM     24  O   UNL     1       2.168   9.341  22.945  0.00  0.00    +0.000 OA
ATOM     25  H   UNL     1       2.264   8.382  22.790  0.00  0.00    +0.000 HD
ENDBRANCH  21  24
ENDBRANCH   4  16
TORSDOF 5
ENDMDL
MODEL 8
REMARK VINA RESULT:      -6.4      6.345      8.442
REMARK  Name = 
REMARK  7 active torsions:
REMARK  status: ('A' for Active; 'I' for Inactive)
REMARK    1  A    between atoms: C_1  and  O_2
REMARK    2  A    between atoms: O_2  and  C_3
REMARK    3  A    between atoms: C_6  and  C_7
REMARK    4  A    between atoms: C_9  and  N_10
REMARK    5  A    between atoms: N_13  and  C_14
REMARK    6  A    between atoms: C_17  and  O_18
REMARK    7  A    between atoms: C_20  and  O_21
REMARK                            x       y       z     vdW  Elec       q    Type
REMARK                         _______ _______ _______ _____ _____    ______ ____
ROOT
ATOM      1  N   UNL     1       9.642   9.691  19.271  0.00  0.00    +0.000 N 
ATOM      2  C   UNL     1       8.682   8.936  18.623  0.00  0.00    +0.000 C 
ATOM      3  O   UNL     1       7.869   9.367  17.809  0.00  0.00    +0.000 OA
ATOM      4  N   UNL     1       8.670   7.610  19.017  0.00  0.00    +0.000 N 
ATOM      5  H   UNL     1      10.285   9.233  19.902  0.00  0.00    +0.000 HD
ATOM      6  H   UNL     1       8.954   7.421  19.971  0.00  0.00    +0.000 HD
ENDROOT
BRANCH   1  13
ATOM      7  C   UNL     1       9.311  11.912  20.237  0.00  0.00    +0.000 A 
ATOM      8  C   UNL     1       9.418  13.310  20.137  0.00  0.00    +0.000 A 
ATOM      9  C   UNL     1       9.952  13.912  18.997  0.00  0.00    +0.000 A 
ATOM     10  C   UNL     1      10.420  13.124  17.948  0.00  0.00    +0.000 A 
ATOM     11  C   UNL     1      10.987  13.728  16.701  0.00  0.00    +0.000 C 
ATOM     12  C   UNL     1      10.348  11.733  18.063  0.00  0.00    +0.000 A 
ATOM     13  C   UNL     1       9.785  11.104  19.185  0.00  0.00    +0.000 A 
BRANCH   7  15
ATOM     14  C   UNL     1       8.351  12.128  22.392  0.00  0.00    +0.000 C 
ATOM     15  O   UNL     1       8.748  11.273  21.317  0.00  0.00    +0.000 OA
ENDBRANCH   7  15
ENDBRANCH   1  13
BRANCH   4  16
ATOM     16  C   UNL     1       7.698   6.714  18.496  0.00  0.00    +0.000 A 
ATOM     17  C   UNL     1       7.046   6.857  17.285  0.00  0.00    +0.000 A 
ATOM     18  N   UNL     1       6.082   6.018  16.841  0.00  0.00    +0.000 NA
ATOM     19  C   UNL     1       5.774   5.021  17.679  0.00  0.00    +0.000 A 
ATOM     20  N   UNL     1       6.316   4.757  18.866  0.00  0.00    +0.000 NA
ATOM     21  C   UNL     1       7.276   5.617  19.227  0.00  0.00    +0.000 A 
BRANCH  19  22
ATOM     22  O   UNL     1       4.777   4.210  17.242  0.00  0.00    +0.000 OA
ATOM     23  H   UNL     1       4.832   4.401  16.292  0.00  0.00    +0.000 HD
ENDBRANCH  19  22
BRANCH  21  24
ATOM     24  O   UNL     1       7.784   5.384  20.469  0.00  0.00    +0.000 OA
ATOM     25  H   UNL     1       7.512   4.453  20.583  0.00  0.00    +0.000 HD
ENDBRANCH  21  24
ENDBRANCH   4  16
TORSDOF 5
ENDMDL
MODEL 9
REMARK VINA RESULT:      -6.3      5.805      9.364
REMARK  Name = 
REMARK  7 active torsions:
REMARK  status: ('A' for Active; 'I' for Inactive)
REMARK    1  A    between atoms: C_1  and  O_2
REMARK    2  A    between atoms: O_2  and  C_3
REMARK    3  A    between atoms: C_6  and  C_7
REMARK    4  A    between atoms: C_9  and  N_10
REMARK    5  A    between atoms: N_13  and  C_14
REMARK    6  A    between atoms: C_17  and  O_18
REMARK    7  A    between atoms: C_20  and  O_21
REMARK                            x       y       z     vdW  Elec       q    Type
REMARK                         _______ _______ _______ _____ _____    ______ ____
ROOT
ATOM      1  N   UNL     1       1.876   7.770  21.119  0.00  0.00    +0.000 N 
ATOM      2  C   UNL     1       0.768   8.582  21.276  0.00  0.00    +0.000 C 
ATOM      3  O   UNL     1      -0.334   8.385  20.771  0.00  0.00    +0.000 OA
ATOM      4  N   UNL     1       1.019   9.711  22.035  0.00  0.00    +0.000 N 
ATOM      5  H   UNL     1       2.731   8.006  21.604  0.00  0.00    +0.000 HD
ATOM      6  H   UNL     1       1.960  10.082  21.992  0.00  0.00    +0.000 HD
ENDROOT
BRANCH   1  13
ATOM      7  C   UNL     1       2.399   6.793  18.940  0.00  0.00    +0.000 A 
ATOM      8  C   UNL     1       2.446   5.677  18.087  0.00  0.00    +0.000 A 
ATOM      9  C   UNL     1       2.028   4.419  18.524  0.00  0.00    +0.000 A 
ATOM     10  C   UNL     1       1.588   4.248  19.834  0.00  0.00    +0.000 A 
ATOM     11  C   UNL     1       1.117   2.919  20.340  0.00  0.00    +0.000 C 
ATOM     12  C   UNL     1       1.576   5.350  20.692  0.00  0.00    +0.000 A 
ATOM     13  C   UNL     1       1.959   6.632  20.268  0.00  0.00    +0.000 A 
BRANCH   7  15
ATOM     14  C   UNL     1       1.803   8.721  17.698  0.00  0.00    +0.000 C 
ATOM     15  O   UNL     1       2.751   8.063  18.543  0.00  0.00    +0.000 OA
ENDBRANCH   7  15
ENDBRANCH   1  13
BRANCH   4  16
ATOM     16  C   UNL     1       0.002  10.683  22.235  0.00  0.00    +0.000 A 
ATOM     17  C   UNL     1      -1.027  10.587  23.154  0.00  0.00    +0.000 A 
ATOM     18  N   UNL     1      -2.015  11.503  23.282  0.00  0.00    +0.000 NA
ATOM     19  C   UNL     1      -1.944  12.529  22.426  0.00  0.00    +0.000 A 
ATOM     20  N   UNL     1      -1.017  12.755  21.498  0.00  0.00    +0.000 NA
ATOM     21  C   UNL     1      -0.063  11.818  21.447  0.00  0.00    +0.000 A 
BRANCH  19  22
ATOM     22  O   UNL     1      -2.963  13.420  22.535  0.00  0.00    +0.000 OA
ATOM     23  H   UNL     1      -2.466  14.176  22.886  0.00  0.00    +0.000 HD
ENDBRANCH  19  22
BRANCH  21  24
ATOM     24  O   UNL     1       0.849  12.017  20.454  0.00  0.00    +0.000 OA
ATOM     25  H   UNL     1       0.854  12.993  20.432  0.00  0.00    +0.000 HD
ENDBRANCH  21  24
ENDBRANCH   4  16
TORSDOF 5
ENDMDL
