MODEL 1
REMARK VINA RESULT:      -8.8      0.000      0.000
REMARK  Name = 
REMARK  4 active torsions:
REMARK  status: ('A' for Active; 'I' for Inactive)
REMARK    1  A    between atoms: C_1  and  C_2
REMARK    2  A    between atoms: C_5  and  N_6
REMARK    3  A    between atoms: N_6  and  C_7
REMARK    4  A    between atoms: C_9  and  C_10
REMARK                            x       y       z     vdW  Elec       q    Type
REMARK                         _______ _______ _______ _____ _____    ______ ____
ROOT
ATOM      1  C   UNL     1       3.084   5.640  19.025  0.00  0.00    +0.000 A 
ATOM      2  N   UNL     1       4.084   5.761  18.133  0.00  0.00    +0.000 NA
ATOM      3  C   UNL     1       4.318   4.735  17.309  0.00  0.00    +0.000 A 
ATOM      4  N   UNL     1       3.631   3.583  17.321  0.00  0.00    +0.000 NA
ATOM      5  C   UNL     1       2.635   3.470  18.203  0.00  0.00    +0.000 A 
ATOM      6  C   UNL     1       1.939   2.269  18.261  0.00  0.00    +0.000 A 
ATOM      7  C   UNL     1       0.886   2.067  19.157  0.00  0.00    +0.000 A 
ATOM      8  C   UNL     1       0.505   3.090  20.015  0.00  0.00    +0.000 A 
ATOM      9  C   UNL     1       1.195   4.301  19.985  0.00  0.00    +0.000 A 
ATOM     10  C   UNL     1       2.273   4.497  19.085  0.00  0.00    +0.000 A 
ENDROOT
BRANCH   3  11
ATOM     11  C   UNL     1       5.406   4.893  16.330  0.00  0.00    +0.000 A 
ATOM     12  C   UNL     1       6.507   5.724  16.589  0.00  0.00    +0.000 A 
ATOM     13  C   UNL     1       7.508   5.849  15.639  0.00  0.00    +0.000 A 
ATOM     14  N   UNL     1       7.495   5.208  14.452  0.00  0.00    +0.000 NA
ATOM     15  C   UNL     1       6.436   4.412  14.209  0.00  0.00    +0.000 A 
ATOM     16  C   UNL     1       5.389   4.226  15.098  0.00  0.00    +0.000 A 
ENDBRANCH   3  11
BRANCH   1  17
ATOM     17  N   UNL     1       2.875   6.714  19.924  0.00  0.00    +0.000 N 
ATOM     18  H   UNL     1       2.772   6.359  20.867  0.00  0.00    +0.000 HD
BRANCH  17  23
ATOM     19  C   UNL     1      -0.589  11.145  18.772  0.00  0.00    +0.000 C 
ATOM     20  C   UNL     1       0.352  10.016  19.069  0.00  0.00    +0.000 A 
ATOM     21  C   UNL     1       1.163   9.460  18.074  0.00  0.00    +0.000 A 
ATOM     22  C   UNL     1       2.012   8.383  18.363  0.00  0.00    +0.000 A 
ATOM     23  C   UNL     1       2.084   7.854  19.657  0.00  0.00    +0.000 A 
ATOM     24  C   UNL     1       1.251   8.409  20.641  0.00  0.00    +0.000 A 
ATOM     25  C   UNL     1       0.402   9.481  20.356  0.00  0.00    +0.000 A 
ENDBRANCH  17  23
ENDBRANCH   1  17
TORSDOF 3
ENDMDL
MODEL 2
REMARK VINA RESULT:      -8.7      0.115      1.375
REMARK  Name = 
REMARK  4 active torsions:
REMARK  status: ('A' for Active; 'I' for Inactive)
REMARK    1  A    between atoms: C_1  and  C_2
REMARK    2  A    between atoms: C_5  and  N_6
REMARK    3  A    between atoms: N_6  and  C_7
REMARK    4  A    between atoms: C_9  and  C_10
REMARK                            x       y       z     vdW  Elec       q    Type
REMARK                         _______ _______ _______ _____ _____    ______ ____
ROOT
ATOM      1  C   UNL     1       3.041   5.641  19.032  0.00  0.00    +0.000 A 
ATOM      2  N   UNL     1       4.048   5.763  18.148  0.00  0.00    +0.000 NA
ATOM      3  C   UNL     1       4.307   4.726  17.345  0.00  0.00    +0.000 A 
ATOM      4  N   UNL     1       3.641   3.563  17.372  0.00  0.00    +0.000 NA
ATOM      5  C   UNL     1       2.638   3.448  18.246  0.00  0.00    +0.000 A 
ATOM      6  C   UNL     1       1.963   2.236  18.320  0.00  0.00    +0.000 A 
ATOM      7  C   UNL     1       0.905   2.032  19.210  0.00  0.00    +0.000 A 
ATOM      8  C   UNL     1       0.499   3.063  20.045  0.00  0.00    +0.000 A 
ATOM      9  C   UNL     1       1.167   4.286  19.999  0.00  0.00    +0.000 A 
ATOM     10  C   UNL     1       2.251   4.484  19.106  0.00  0.00    +0.000 A 
ENDROOT
BRANCH   3  11
ATOM     11  C   UNL     1       5.402   4.885  16.373  0.00  0.00    +0.000 A 
ATOM     12  C   UNL     1       5.369   4.245  15.124  0.00  0.00    +0.000 A 
ATOM     13  C   UNL     1       6.422   4.417  14.240  0.00  0.00    +0.000 A 
ATOM     14  N   UNL     1       7.502   5.178  14.505  0.00  0.00    +0.000 NA
ATOM     15  C   UNL     1       7.529   5.791  15.705  0.00  0.00    +0.000 A 
ATOM     16  C   UNL     1       6.524   5.677  16.652  0.00  0.00    +0.000 A 
ENDBRANCH   3  11
BRANCH   1  17
ATOM     17  N   UNL     1       2.805   6.727  19.909  0.00  0.00    +0.000 N 
ATOM     18  H   UNL     1       2.719   6.389  20.860  0.00  0.00    +0.000 HD
BRANCH  17  23
ATOM     19  C   UNL     1      -0.314  11.425  18.832  0.00  0.00    +0.000 C 
ATOM     20  C   UNL     1       0.462  10.174  19.115  0.00  0.00    +0.000 A 
ATOM     21  C   UNL     1       0.436   9.567  20.375  0.00  0.00    +0.000 A 
ATOM     22  C   UNL     1       1.194   8.416  20.629  0.00  0.00    +0.000 A 
ATOM     23  C   UNL     1       1.976   7.835  19.624  0.00  0.00    +0.000 A 
ATOM     24  C   UNL     1       2.008   8.465  18.371  0.00  0.00    +0.000 A 
ATOM     25  C   UNL     1       1.256   9.614  18.113  0.00  0.00    +0.000 A 
ENDBRANCH  17  23
ENDBRANCH   1  17
TORSDOF 3
ENDMDL
MODEL 3
REMARK VINA RESULT:      -8.5      0.384      1.026
REMARK  Name = 
REMARK  4 active torsions:
REMARK  status: ('A' for Active; 'I' for Inactive)
REMARK    1  A    between atoms: C_1  and  C_2
REMARK    2  A    between atoms: C_5  and  N_6
REMARK    3  A    between atoms: N_6  and  C_7
REMARK    4  A    between atoms: C_9  and  C_10
REMARK                            x       y       z     vdW  Elec       q    Type
REMARK                         _______ _______ _______ _____ _____    ______ ____
ROOT
ATOM      1  C   UNL     1       3.202   5.647  18.696  0.00  0.00    +0.000 A 
ATOM      2  N   UNL     1       4.156   5.687  17.749  0.00  0.00    +0.000 NA
ATOM      3  C   UNL     1       4.294   4.623  16.952  0.00  0.00    +0.000 A 
ATOM      4  N   UNL     1       3.553   3.508  17.042  0.00  0.00    +0.000 NA
ATOM      5  C   UNL     1       2.602   3.476  17.979  0.00  0.00    +0.000 A 
ATOM      6  C   UNL     1       1.853   2.314  18.117  0.00  0.00    +0.000 A 
ATOM      7  C   UNL     1       0.842   2.196  19.075  0.00  0.00    +0.000 A 
ATOM      8  C   UNL     1       0.559   3.265  19.914  0.00  0.00    +0.000 A 
ATOM      9  C   UNL     1       1.305   4.438  19.804  0.00  0.00    +0.000 A 
ATOM     10  C   UNL     1       2.341   4.548  18.842  0.00  0.00    +0.000 A 
ENDROOT
BRANCH   3  11
ATOM     11  C   UNL     1       5.333   4.692  15.911  0.00  0.00    +0.000 A 
ATOM     12  C   UNL     1       5.152   4.089  14.656  0.00  0.00    +0.000 A 
ATOM     13  C   UNL     1       6.156   4.173  13.706  0.00  0.00    +0.000 A 
ATOM     14  N   UNL     1       7.325   4.812  13.910  0.00  0.00    +0.000 NA
ATOM     15  C   UNL     1       7.494   5.390  15.116  0.00  0.00    +0.000 A 
ATOM     16  C   UNL     1       6.547   5.357  16.127  0.00  0.00    +0.000 A 
ENDBRANCH   3  11
BRANCH   1  17
ATOM     17  N   UNL     1       3.095   6.760  19.566  0.00  0.00    +0.000 N 
ATOM     18  H   UNL     1       3.154   6.451  20.529  0.00  0.00    +0.000 HD
BRANCH  17  23
ATOM     19  C   UNL     1      -0.663  11.017  18.724  0.00  0.00    +0.000 C 
ATOM     20  C   UNL     1       0.352   9.936  18.939  0.00  0.00    +0.000 A 
ATOM     21  C   UNL     1       1.141   9.454  17.889  0.00  0.00    +0.000 A 
ATOM     22  C   UNL     1       2.061   8.419  18.102  0.00  0.00    +0.000 A 
ATOM     23  C   UNL     1       2.230   7.860  19.374  0.00  0.00    +0.000 A 
ATOM     24  C   UNL     1       1.420   8.339  20.415  0.00  0.00    +0.000 A 
ATOM     25  C   UNL     1       0.499   9.368  20.206  0.00  0.00    +0.000 A 
ENDBRANCH  17  23
ENDBRANCH   1  17
TORSDOF 3
ENDMDL
MODEL 4
REMARK VINA RESULT:      -8.3      1.726      6.219
REMARK  Name = 
REMARK  4 active torsions:
REMARK  status: ('A' for Active; 'I' for Inactive)
REMARK    1  A    between atoms: C_1  and  C_2
REMARK    2  A    between atoms: C_5  and  N_6
REMARK    3  A    between atoms: N_6  and  C_7
REMARK    4  A    between atoms: C_9  and  C_10
REMARK                            x       y       z     vdW  Elec       q    Type
REMARK                         _______ _______ _______ _____ _____    ______ ____
ROOT
ATOM      1  C   UNL     1       4.198   5.148  19.255  0.00  0.00    +0.000 A 
ATOM      2  N   UNL     1       3.724   6.383  19.009  0.00  0.00    +0.000 NA
ATOM      3  C   UNL     1       2.524   6.704  19.503  0.00  0.00    +0.000 A 
ATOM      4  N   UNL     1       1.751   5.871  20.214  0.00  0.00    +0.000 NA
ATOM      5  C   UNL     1       2.228   4.648  20.461  0.00  0.00    +0.000 A 
ATOM      6  C   UNL     1       1.424   3.756  21.160  0.00  0.00    +0.000 A 
ATOM      7  C   UNL     1       1.846   2.457  21.456  0.00  0.00    +0.000 A 
ATOM      8  C   UNL     1       3.106   2.034  21.056  0.00  0.00    +0.000 A 
ATOM      9  C   UNL     1       3.928   2.906  20.344  0.00  0.00    +0.000 A 
ATOM     10  C   UNL     1       3.490   4.217  20.030  0.00  0.00    +0.000 A 
ENDROOT
BRANCH   3  11
ATOM     11  C   UNL     1       2.030   8.065  19.237  0.00  0.00    +0.000 A 
ATOM     12  C   UNL     1       1.252   8.757  20.179  0.00  0.00    +0.000 A 
ATOM     13  C   UNL     1       0.803  10.034  19.889  0.00  0.00    +0.000 A 
ATOM     14  N   UNL     1       1.071  10.675  18.733  0.00  0.00    +0.000 NA
ATOM     15  C   UNL     1       1.818  10.008  17.833  0.00  0.00    +0.000 A 
ATOM     16  C   UNL     1       2.310   8.728  18.036  0.00  0.00    +0.000 A 
ENDBRANCH   3  11
BRANCH   1  17
ATOM     17  N   UNL     1       5.449   4.802  18.688  0.00  0.00    +0.000 N 
ATOM     18  H   UNL     1       6.196   5.254  19.202  0.00  0.00    +0.000 HD
BRANCH  17  23
ATOM     19  C   UNL     1       6.593   3.978  13.123  0.00  0.00    +0.000 C 
ATOM     20  C   UNL     1       6.295   4.239  14.569  0.00  0.00    +0.000 A 
ATOM     21  C   UNL     1       7.259   4.771  15.430  0.00  0.00    +0.000 A 
ATOM     22  C   UNL     1       6.972   4.977  16.787  0.00  0.00    +0.000 A 
ATOM     23  C   UNL     1       5.707   4.675  17.305  0.00  0.00    +0.000 A 
ATOM     24  C   UNL     1       4.755   4.123  16.435  0.00  0.00    +0.000 A 
ATOM     25  C   UNL     1       5.038   3.914  15.083  0.00  0.00    +0.000 A 
ENDBRANCH  17  23
ENDBRANCH   1  17
TORSDOF 3
ENDMDL
MODEL 5
REMARK VINA RESULT:      -8.2      1.723      6.278
REMARK  Name = 
REMARK  4 active torsions:
REMARK  status: ('A' for Active; 'I' for Inactive)
REMARK    1  A    between atoms: C_1  and  C_2
REMARK    2  A    between atoms: C_5  and  N_6
REMARK    3  A    between atoms: N_6  and  C_7
REMARK    4  A    between atoms: C_9  and  C_10
REMARK                            x       y       z     vdW  Elec       q    Type
REMARK                         _______ _______ _______ _____ _____    ______ ____
ROOT
ATOM      1  C   UNL     1       4.149   5.315  19.305  0.00  0.00    +0.000 A 
ATOM      2  N   UNL     1       3.663   6.551  19.092  0.00  0.00    +0.000 NA
ATOM      3  C   UNL     1       2.434   6.827  19.542  0.00  0.00    +0.000 A 
ATOM      4  N   UNL     1       1.646   5.949  20.178  0.00  0.00    +0.000 NA
ATOM      5  C   UNL     1       2.136   4.726  20.394  0.00  0.00    +0.000 A 
ATOM      6  C   UNL     1       1.318   3.788  21.013  0.00  0.00    +0.000 A 
ATOM      7  C   UNL     1       1.753   2.485  21.272  0.00  0.00    +0.000 A 
ATOM      8  C   UNL     1       3.038   2.104  20.914  0.00  0.00    +0.000 A 
ATOM      9  C   UNL     1       3.874   3.022  20.281  0.00  0.00    +0.000 A 
ATOM     10  C   UNL     1       3.425   4.338  20.005  0.00  0.00    +0.000 A 
ENDROOT
BRANCH   3  11
ATOM     11  C   UNL     1       1.925   8.190  19.314  0.00  0.00    +0.000 A 
ATOM     12  C   UNL     1       2.161   8.866  18.106  0.00  0.00    +0.000 A 
ATOM     13  C   UNL     1       1.669  10.149  17.933  0.00  0.00    +0.000 A 
ATOM     14  N   UNL     1       0.960  10.809  18.870  0.00  0.00    +0.000 NA
ATOM     15  C   UNL     1       0.736  10.157  20.028  0.00  0.00    +0.000 A 
ATOM     16  C   UNL     1       1.189   8.874  20.290  0.00  0.00    +0.000 A 
ENDBRANCH   3  11
BRANCH   1  17
ATOM     17  N   UNL     1       5.433   5.018  18.785  0.00  0.00    +0.000 N 
ATOM     18  H   UNL     1       6.122   5.638  19.194  0.00  0.00    +0.000 HD
BRANCH  17  23
ATOM     19  C   UNL     1       6.467   3.935  13.242  0.00  0.00    +0.000 C 
ATOM     20  C   UNL     1       6.193   4.173  14.697  0.00  0.00    +0.000 A 
ATOM     21  C   UNL     1       4.923   3.967  15.245  0.00  0.00    +0.000 A 
ATOM     22  C   UNL     1       4.679   4.227  16.601  0.00  0.00    +0.000 A 
ATOM     23  C   UNL     1       5.704   4.676  17.441  0.00  0.00    +0.000 A 
ATOM     24  C   UNL     1       6.968   4.897  16.874  0.00  0.00    +0.000 A 
ATOM     25  C   UNL     1       7.216   4.642  15.523  0.00  0.00    +0.000 A 
ENDBRANCH  17  23
ENDBRANCH   1  17
TORSDOF 3
ENDMDL
MODEL 6
REMARK VINA RESULT:      -8.1      1.400      6.390
REMARK  Name = 
REMARK  4 active torsions:
REMARK  status: ('A' for Active; 'I' for Inactive)
REMARK    1  A    between atoms: C_1  and  C_2
REMARK    2  A    between atoms: C_5  and  N_6
REMARK    3  A    between atoms: N_6  and  C_7
REMARK    4  A    between atoms: C_9  and  C_10
REMARK                            x       y       z     vdW  Elec       q    Type
REMARK                         _______ _______ _______ _____ _____    ______ ____
ROOT
ATOM      1  C   UNL     1       4.297   5.139  18.210  0.00  0.00    +0.000 A 
ATOM      2  N   UNL     1       3.824   6.393  18.324  0.00  0.00    +0.000 NA
ATOM      3  C   UNL     1       2.581   6.555  18.787  0.00  0.00    +0.000 A 
ATOM      4  N   UNL     1       1.764   5.549  19.132  0.00  0.00    +0.000 NA
ATOM      5  C   UNL     1       2.241   4.306  19.024  0.00  0.00    +0.000 A 
ATOM      6  C   UNL     1       1.396   3.247  19.336  0.00  0.00    +0.000 A 
ATOM      7  C   UNL     1       1.815   1.917  19.247  0.00  0.00    +0.000 A 
ATOM      8  C   UNL     1       3.111   1.628  18.845  0.00  0.00    +0.000 A 
ATOM      9  C   UNL     1       3.975   2.672  18.515  0.00  0.00    +0.000 A 
ATOM     10  C   UNL     1       3.542   4.020  18.592  0.00  0.00    +0.000 A 
ENDROOT
BRANCH   3  11
ATOM     11  C   UNL     1       2.087   7.936  18.919  0.00  0.00    +0.000 A 
ATOM     12  C   UNL     1       2.236   8.869  17.880  0.00  0.00    +0.000 A 
ATOM     13  C   UNL     1       1.761  10.159  18.047  0.00  0.00    +0.000 A 
ATOM     14  N   UNL     1       1.149  10.591  19.168  0.00  0.00    +0.000 NA
ATOM     15  C   UNL     1       1.007   9.692  20.162  0.00  0.00    +0.000 A 
ATOM     16  C   UNL     1       1.451   8.381  20.085  0.00  0.00    +0.000 A 
ENDBRANCH   3  11
BRANCH   1  17
ATOM     17  N   UNL     1       5.598   4.976  17.675  0.00  0.00    +0.000 N 
ATOM     18  H   UNL     1       6.250   5.576  18.166  0.00  0.00    +0.000 HD
BRANCH  17  23
ATOM     19  C   UNL     1       6.914   4.023  12.168  0.00  0.00    +0.000 C 
ATOM     20  C   UNL     1       6.570   4.317  13.597  0.00  0.00    +0.000 A 
ATOM     21  C   UNL     1       7.501   4.889  14.471  0.00  0.00    +0.000 A 
ATOM     22  C   UNL     1       7.171   5.126  15.812  0.00  0.00    +0.000 A 
ATOM     23  C   UNL     1       5.897   4.817  16.303  0.00  0.00    +0.000 A 
ATOM     24  C   UNL     1       4.980   4.226  15.422  0.00  0.00    +0.000 A 
ATOM     25  C   UNL     1       5.304   3.986  14.085  0.00  0.00    +0.000 A 
ENDBRANCH  17  23
ENDBRANCH   1  17
TORSDOF 3
ENDMDL
MODEL 7
REMARK VINA RESULT:      -7.9      1.403      6.360
REMARK  Name = 
REMARK  4 active torsions:
REMARK  status: ('A' for Active; 'I' for Inactive)
REMARK    1  A    between atoms: C_1  and  C_2
REMARK    2  A    between atoms: C_5  and  N_6
REMARK    3  A    between atoms: N_6  and  C_7
REMARK    4  A    between atoms: C_9  and  C_10
REMARK                            x       y       z     vdW  Elec       q    Type
REMARK                         _______ _______ _______ _____ _____    ______ ____
ROOT
ATOM      1  C   UNL     1       4.324   5.135  18.248  0.00  0.00    +0.000 A 
ATOM      2  N   UNL     1       3.853   6.391  18.349  0.00  0.00    +0.000 NA
ATOM      3  C   UNL     1       2.596   6.557  18.774  0.00  0.00    +0.000 A 
ATOM      4  N   UNL     1       1.766   5.553  19.093  0.00  0.00    +0.000 NA
ATOM      5  C   UNL     1       2.240   4.309  18.998  0.00  0.00    +0.000 A 
ATOM      6  C   UNL     1       1.383   3.253  19.283  0.00  0.00    +0.000 A 
ATOM      7  C   UNL     1       1.799   1.921  19.205  0.00  0.00    +0.000 A 
ATOM      8  C   UNL     1       3.106   1.628  18.842  0.00  0.00    +0.000 A 
ATOM      9  C   UNL     1       3.984   2.668  18.541  0.00  0.00    +0.000 A 
ATOM     10  C   UNL     1       3.553   4.018  18.605  0.00  0.00    +0.000 A 
ENDROOT
BRANCH   3  11
ATOM     11  C   UNL     1       2.104   7.939  18.893  0.00  0.00    +0.000 A 
ATOM     12  C   UNL     1       1.470   8.391  20.061  0.00  0.00    +0.000 A 
ATOM     13  C   UNL     1       1.017   9.699  20.131  0.00  0.00    +0.000 A 
ATOM     14  N   UNL     1       1.148  10.589  19.127  0.00  0.00    +0.000 NA
ATOM     15  C   UNL     1       1.758  10.150  18.008  0.00  0.00    +0.000 A 
ATOM     16  C   UNL     1       2.242   8.862  17.848  0.00  0.00    +0.000 A 
ENDBRANCH   3  11
BRANCH   1  17
ATOM     17  N   UNL     1       5.640   4.967  17.753  0.00  0.00    +0.000 N 
ATOM     18  H   UNL     1       6.264   5.629  18.200  0.00  0.00    +0.000 HD
BRANCH  17  23
ATOM     19  C   UNL     1       6.902   4.171  12.209  0.00  0.00    +0.000 C 
ATOM     20  C   UNL     1       6.572   4.333  13.662  0.00  0.00    +0.000 A 
ATOM     21  C   UNL     1       5.304   4.021  14.163  0.00  0.00    +0.000 A 
ATOM     22  C   UNL     1       5.004   4.212  15.519  0.00  0.00    +0.000 A 
ATOM     23  C   UNL     1       5.972   4.696  16.406  0.00  0.00    +0.000 A 
ATOM     24  C   UNL     1       7.234   5.022  15.887  0.00  0.00    +0.000 A 
ATOM     25  C   UNL     1       7.537   4.837  14.536  0.00  0.00    +0.000 A 
ENDBRANCH  17  23
ENDBRANCH   1  17
TORSDOF 3
ENDMDL
MODEL 8
REMARK VINA RESULT:      -7.9      1.613      6.441
REMARK  Name = 
REMARK  4 active torsions:
REMARK  status: ('A' for Active; 'I' for Inactive)
REMARK    1  A    between atoms: C_1  and  C_2
REMARK    2  A    between atoms: C_5  and  N_6
REMARK    3  A    between atoms: N_6  and  C_7
REMARK    4  A    between atoms: C_9  and  C_10
REMARK                            x       y       z     vdW  Elec       q    Type
REMARK                         _______ _______ _______ _____ _____    ______ ____
ROOT
ATOM      1  C   UNL     1       3.963   5.481  19.308  0.00  0.00    +0.000 A 
ATOM      2  N   UNL     1       3.433   6.686  19.588  0.00  0.00    +0.000 NA
ATOM      3  C   UNL     1       2.145   6.738  19.939  0.00  0.00    +0.000 A 
ATOM      4  N   UNL     1       1.338   5.670  20.017  0.00  0.00    +0.000 NA
ATOM      5  C   UNL     1       1.869   4.476  19.745  0.00  0.00    +0.000 A 
ATOM      6  C   UNL     1       1.039   3.362  19.778  0.00  0.00    +0.000 A 
ATOM      7  C   UNL     1       1.516   2.077  19.503  0.00  0.00    +0.000 A 
ATOM      8  C   UNL     1       2.856   1.890  19.196  0.00  0.00    +0.000 A 
ATOM      9  C   UNL     1       3.708   2.993  19.145  0.00  0.00    +0.000 A 
ATOM     10  C   UNL     1       3.217   4.297  19.408  0.00  0.00    +0.000 A 
ENDROOT
BRANCH   3  11
ATOM     11  C   UNL     1       1.587   8.063  20.257  0.00  0.00    +0.000 A 
ATOM     12  C   UNL     1       1.414   9.041  19.264  0.00  0.00    +0.000 A 
ATOM     13  C   UNL     1       0.891  10.277  19.606  0.00  0.00    +0.000 A 
ATOM     14  N   UNL     1       0.526  10.612  20.859  0.00  0.00    +0.000 NA
ATOM     15  C   UNL     1       0.694   9.671  21.808  0.00  0.00    +0.000 A 
ATOM     16  C   UNL     1       1.210   8.409  21.561  0.00  0.00    +0.000 A 
ENDBRANCH   3  11
BRANCH   1  17
ATOM     17  N   UNL     1       5.317   5.442  18.892  0.00  0.00    +0.000 N 
ATOM     18  H   UNL     1       5.862   6.104  19.431  0.00  0.00    +0.000 HD
BRANCH  17  23
ATOM     19  C   UNL     1       6.904   4.609  13.438  0.00  0.00    +0.000 C 
ATOM     20  C   UNL     1       6.524   4.856  14.867  0.00  0.00    +0.000 A 
ATOM     21  C   UNL     1       7.298   4.365  15.924  0.00  0.00    +0.000 A 
ATOM     22  C   UNL     1       6.908   4.578  17.254  0.00  0.00    +0.000 A 
ATOM     23  C   UNL     1       5.751   5.305  17.555  0.00  0.00    +0.000 A 
ATOM     24  C   UNL     1       4.974   5.775  16.485  0.00  0.00    +0.000 A 
ATOM     25  C   UNL     1       5.357   5.563  15.159  0.00  0.00    +0.000 A 
ENDBRANCH  17  23
ENDBRANCH   1  17
TORSDOF 3
ENDMDL
MODEL 9
REMARK VINA RESULT:      -7.9      1.714      6.397
REMARK  Name = 
REMARK  4 active torsions:
REMARK  status: ('A' for Active; 'I' for Inactive)
REMARK    1  A    between atoms: C_1  and  C_2
REMARK    2  A    between atoms: C_5  and  N_6
REMARK    3  A    between atoms: N_6  and  C_7
REMARK    4  A    between atoms: C_9  and  C_10
REMARK                            x       y       z     vdW  Elec       q    Type
REMARK                         _______ _______ _______ _____ _____    ______ ____
ROOT
ATOM      1  C   UNL     1       3.895   5.781  19.209  0.00  0.00    +0.000 A 
ATOM      2  N   UNL     1       3.326   7.000  19.209  0.00  0.00    +0.000 NA
ATOM      3  C   UNL     1       2.134   7.135  19.800  0.00  0.00    +0.000 A 
ATOM      4  N   UNL     1       1.459   6.133  20.381  0.00  0.00    +0.000 NA
ATOM      5  C   UNL     1       2.031   4.926  20.384  0.00  0.00    +0.000 A 
ATOM      6  C   UNL     1       1.328   3.865  20.942  0.00  0.00    +0.000 A 
ATOM      7  C   UNL     1       1.853   2.571  20.982  0.00  0.00    +0.000 A 
ATOM      8  C   UNL     1       3.116   2.323  20.462  0.00  0.00    +0.000 A 
ATOM      9  C   UNL     1       3.837   3.368  19.886  0.00  0.00    +0.000 A 
ATOM     10  C   UNL     1       3.294   4.677  19.832  0.00  0.00    +0.000 A 
ENDROOT
BRANCH   3  11
ATOM     11  C   UNL     1       1.535   8.480  19.805  0.00  0.00    +0.000 A 
ATOM     12  C   UNL     1       1.008   9.042  20.979  0.00  0.00    +0.000 A 
ATOM     13  C   UNL     1       0.448  10.308  20.939  0.00  0.00    +0.000 A 
ATOM     14  N   UNL     1       0.375  11.058  19.821  0.00  0.00    +0.000 NA
ATOM     15  C   UNL     1       0.883  10.515  18.697  0.00  0.00    +0.000 A 
ATOM     16  C   UNL     1       1.461   9.257  18.641  0.00  0.00    +0.000 A 
ENDBRANCH   3  11
BRANCH   1  17
ATOM     17  N   UNL     1       5.135   5.638  18.540  0.00  0.00    +0.000 N 
ATOM     18  H   UNL     1       5.752   6.401  18.792  0.00  0.00    +0.000 HD
BRANCH  17  23
ATOM     19  C   UNL     1       6.089   3.930  13.143  0.00  0.00    +0.000 C 
ATOM     20  C   UNL     1       5.795   4.377  14.543  0.00  0.00    +0.000 A 
ATOM     21  C   UNL     1       5.374   5.682  14.821  0.00  0.00    +0.000 A 
ATOM     22  C   UNL     1       5.136   6.091  16.140  0.00  0.00    +0.000 A 
ATOM     23  C   UNL     1       5.292   5.198  17.207  0.00  0.00    +0.000 A 
ATOM     24  C   UNL     1       5.733   3.898  16.916  0.00  0.00    +0.000 A 
ATOM     25  C   UNL     1       5.974   3.487  15.603  0.00  0.00    +0.000 A 
ENDBRANCH  17  23
ENDBRANCH   1  17
TORSDOF 3
ENDMDL
