MODEL 1
REMARK VINA RESULT:      -6.0      0.000      0.000
REMARK  Name = 
REMARK  6 active torsions:
REMARK  status: ('A' for Active; 'I' for Inactive)
REMARK    1  A    between atoms: C_4  and  O_5
REMARK    2  A    between atoms: C_6  and  C_7
REMARK    3  A    between atoms: C_7  and  C_8
REMARK    4  A    between atoms: C_7  and  C_9
REMARK    5  A    between atoms: C_12  and  C_13
REMARK    6  A    between atoms: C_15  and  O_16
REMARK                            x       y       z     vdW  Elec       q    Type
REMARK                         _______ _______ _______ _____ _____    ______ ____
ROOT
ATOM      1  C   UNL     1       6.512   6.592  17.242  0.00  0.00    +0.000 C 
ATOM      2  C   UNL     1       5.202   6.324  17.387  0.00  0.00    +0.000 C 
ATOM      3  C   UNL     1       4.755   4.932  17.797  0.00  0.00    +0.000 C 
ATOM      4  C   UNL     1       4.544   4.693  19.307  0.00  0.00    +0.000 C 
ATOM      5  C   UNL     1       3.515   3.577  19.732  0.00  0.00    +0.000 C 
ATOM      6  C   UNL     1       2.472   4.176  20.741  0.00  0.00    +0.000 C 
ATOM      7  C   UNL     1       1.358   5.070  20.151  0.00  0.00    +0.000 C 
ATOM      8  C   UNL     1       1.875   6.420  19.718  0.00  0.00    +0.000 C 
ATOM      9  C   UNL     1       2.124   7.417  20.820  0.00  0.00    +0.000 C 
ATOM     10  C   UNL     1       2.180   6.662  18.428  0.00  0.00    +0.000 C 
ATOM     11  C   UNL     1       3.058   7.785  17.935  0.00  0.00    +0.000 C 
ATOM     12  C   UNL     1       4.140   7.320  16.925  0.00  0.00    +0.000 C 
ENDROOT
BRANCH   5  13
ATOM     13  C   UNL     1       2.831   2.721  18.607  0.00  0.00    +0.000 C 
ATOM     14  C   UNL     1       1.488   2.128  19.071  0.00  0.00    +0.000 C 
ATOM     15  C   UNL     1       3.678   1.531  18.121  0.00  0.00    +0.000 C 
ENDBRANCH   5  13
BRANCH   4  16
ATOM     16  O   UNL     1       5.814   4.370  19.911  0.00  0.00    +0.000 OA
ATOM     17  H   UNL     1       6.095   5.133  20.437  0.00  0.00    +0.000 HD
ENDBRANCH   4  16
BRANCH  11  18
ATOM     18  O   UNL     1       2.217   8.742  17.287  0.00  0.00    +0.000 OA
ATOM     19  H   UNL     1       2.745   9.184  16.603  0.00  0.00    +0.000 HD
ENDBRANCH  11  18
TORSDOF 3
ENDMDL
MODEL 2
REMARK VINA RESULT:      -5.9      1.921      4.185
REMARK  Name = 
REMARK  6 active torsions:
REMARK  status: ('A' for Active; 'I' for Inactive)
REMARK    1  A    between atoms: C_4  and  O_5
REMARK    2  A    between atoms: C_6  and  C_7
REMARK    3  A    between atoms: C_7  and  C_8
REMARK    4  A    between atoms: C_7  and  C_9
REMARK    5  A    between atoms: C_12  and  C_13
REMARK    6  A    between atoms: C_15  and  O_16
REMARK                            x       y       z     vdW  Elec       q    Type
REMARK                         _______ _______ _______ _____ _____    ______ ____
ROOT
ATOM      1  C   UNL     1       0.833   2.917  19.817  0.00  0.00    +0.000 C 
ATOM      2  C   UNL     1       1.799   3.853  19.815  0.00  0.00    +0.000 C 
ATOM      3  C   UNL     1       3.082   3.614  19.040  0.00  0.00    +0.000 C 
ATOM      4  C   UNL     1       3.128   4.160  17.597  0.00  0.00    +0.000 C 
ATOM      5  C   UNL     1       4.541   4.526  17.001  0.00  0.00    +0.000 C 
ATOM      6  C   UNL     1       4.516   5.995  16.447  0.00  0.00    +0.000 C 
ATOM      7  C   UNL     1       4.586   7.138  17.484  0.00  0.00    +0.000 C 
ATOM      8  C   UNL     1       3.298   7.293  18.254  0.00  0.00    +0.000 C 
ATOM      9  C   UNL     1       2.174   7.988  17.530  0.00  0.00    +0.000 C 
ATOM     10  C   UNL     1       3.154   6.748  19.479  0.00  0.00    +0.000 C 
ATOM     11  C   UNL     1       1.838   6.481  20.166  0.00  0.00    +0.000 C 
ATOM     12  C   UNL     1       1.735   5.051  20.760  0.00  0.00    +0.000 C 
ENDROOT
BRANCH   5  13
ATOM     13  C   UNL     1       5.818   4.238  17.868  0.00  0.00    +0.000 C 
ATOM     14  C   UNL     1       5.837   5.076  19.161  0.00  0.00    +0.000 C 
ATOM     15  C   UNL     1       7.146   4.533  17.149  0.00  0.00    +0.000 C 
ENDBRANCH   5  13
BRANCH   4  16
ATOM     16  O   UNL     1       2.516   3.198  16.714  0.00  0.00    +0.000 OA
ATOM     17  H   UNL     1       1.695   2.896  17.128  0.00  0.00    +0.000 HD
ENDBRANCH   4  16
BRANCH  11  18
ATOM     18  O   UNL     1       1.705   7.424  21.232  0.00  0.00    +0.000 OA
ATOM     19  H   UNL     1       1.828   6.945  22.068  0.00  0.00    +0.000 HD
ENDBRANCH  11  18
TORSDOF 3
ENDMDL
MODEL 3
REMARK VINA RESULT:      -5.6      8.165     10.993
REMARK  Name = 
REMARK  6 active torsions:
REMARK  status: ('A' for Active; 'I' for Inactive)
REMARK    1  A    between atoms: C_4  and  O_5
REMARK    2  A    between atoms: C_6  and  C_7
REMARK    3  A    between atoms: C_7  and  C_8
REMARK    4  A    between atoms: C_7  and  C_9
REMARK    5  A    between atoms: C_12  and  C_13
REMARK    6  A    between atoms: C_15  and  O_16
REMARK                            x       y       z     vdW  Elec       q    Type
REMARK                         _______ _______ _______ _____ _____    ______ ____
ROOT
ATOM      1  C   UNL     1       8.782   9.846  18.506  0.00  0.00    +0.000 C 
ATOM      2  C   UNL     1       9.251  10.920  19.165  0.00  0.00    +0.000 C 
ATOM      3  C   UNL     1       9.770  12.118  18.390  0.00  0.00    +0.000 C 
ATOM      4  C   UNL     1       8.758  13.250  18.113  0.00  0.00    +0.000 C 
ATOM      5  C   UNL     1       9.329  14.707  17.924  0.00  0.00    +0.000 C 
ATOM      6  C   UNL     1       8.588  15.695  18.894  0.00  0.00    +0.000 C 
ATOM      7  C   UNL     1       8.998  15.658  20.382  0.00  0.00    +0.000 C 
ATOM      8  C   UNL     1       8.495  14.421  21.085  0.00  0.00    +0.000 C 
ATOM      9  C   UNL     1       7.037  14.422  21.464  0.00  0.00    +0.000 C 
ATOM     10  C   UNL     1       9.297  13.353  21.266  0.00  0.00    +0.000 C 
ATOM     11  C   UNL     1       8.829  11.952  21.571  0.00  0.00    +0.000 C 
ATOM     12  C   UNL     1       9.491  10.874  20.673  0.00  0.00    +0.000 C 
ENDROOT
BRANCH   5  13
ATOM     13  C   UNL     1      10.886  14.911  17.943  0.00  0.00    +0.000 C 
ATOM     14  C   UNL     1      11.274  16.399  17.860  0.00  0.00    +0.000 C 
ATOM     15  C   UNL     1      11.625  14.213  16.788  0.00  0.00    +0.000 C 
ENDBRANCH   5  13
BRANCH   4  16
ATOM     16  O   UNL     1       7.999  12.920  16.931  0.00  0.00    +0.000 OA
ATOM     17  H   UNL     1       8.625  12.800  16.202  0.00  0.00    +0.000 HD
ENDBRANCH   4  16
BRANCH  11  18
ATOM     18  O   UNL     1       9.161  11.670  22.933  0.00  0.00    +0.000 OA
ATOM     19  H   UNL     1       8.450  12.027  23.490  0.00  0.00    +0.000 HD
ENDBRANCH  11  18
TORSDOF 3
ENDMDL
MODEL 4
REMARK VINA RESULT:      -5.6      1.753      4.352
REMARK  Name = 
REMARK  6 active torsions:
REMARK  status: ('A' for Active; 'I' for Inactive)
REMARK    1  A    between atoms: C_4  and  O_5
REMARK    2  A    between atoms: C_6  and  C_7
REMARK    3  A    between atoms: C_7  and  C_8
REMARK    4  A    between atoms: C_7  and  C_9
REMARK    5  A    between atoms: C_12  and  C_13
REMARK    6  A    between atoms: C_15  and  O_16
REMARK                            x       y       z     vdW  Elec       q    Type
REMARK                         _______ _______ _______ _____ _____    ______ ____
ROOT
ATOM      1  C   UNL     1       2.696   2.332  19.935  0.00  0.00    +0.000 C 
ATOM      2  C   UNL     1       3.153   3.596  19.896  0.00  0.00    +0.000 C 
ATOM      3  C   UNL     1       4.415   3.922  19.118  0.00  0.00    +0.000 C 
ATOM      4  C   UNL     1       4.224   4.388  17.659  0.00  0.00    +0.000 C 
ATOM      5  C   UNL     1       5.335   5.319  17.040  0.00  0.00    +0.000 C 
ATOM      6  C   UNL     1       4.670   6.610  16.443  0.00  0.00    +0.000 C 
ATOM      7  C   UNL     1       4.226   7.699  17.445  0.00  0.00    +0.000 C 
ATOM      8  C   UNL     1       2.996   7.295  18.222  0.00  0.00    +0.000 C 
ATOM      9  C   UNL     1       1.685   7.404  17.488  0.00  0.00    +0.000 C 
ATOM     10  C   UNL     1       3.100   6.780  19.463  0.00  0.00    +0.000 C 
ATOM     11  C   UNL     1       2.032   5.984  20.169  0.00  0.00    +0.000 C 
ATOM     12  C   UNL     1       2.564   4.673  20.806  0.00  0.00    +0.000 C 
ENDROOT
BRANCH   5  13
ATOM     13  C   UNL     1       6.604   5.648  17.904  0.00  0.00    +0.000 C 
ATOM     14  C   UNL     1       7.298   6.943  17.441  0.00  0.00    +0.000 C 
ATOM     15  C   UNL     1       7.684   4.552  17.876  0.00  0.00    +0.000 C 
ENDBRANCH   5  13
BRANCH   4  16
ATOM     16  O   UNL     1       4.102   3.228  16.810  0.00  0.00    +0.000 OA
ATOM     17  H   UNL     1       4.572   3.415  15.984  0.00  0.00    +0.000 HD
ENDBRANCH   4  16
BRANCH  11  18
ATOM     18  O   UNL     1       1.493   6.804  21.209  0.00  0.00    +0.000 OA
ATOM     19  H   UNL     1       0.528   6.817  21.105  0.00  0.00    +0.000 HD
ENDBRANCH  11  18
TORSDOF 3
ENDMDL
MODEL 5
REMARK VINA RESULT:      -5.6      1.973      4.509
REMARK  Name = 
REMARK  6 active torsions:
REMARK  status: ('A' for Active; 'I' for Inactive)
REMARK    1  A    between atoms: C_4  and  O_5
REMARK    2  A    between atoms: C_6  and  C_7
REMARK    3  A    between atoms: C_7  and  C_8
REMARK    4  A    between atoms: C_7  and  C_9
REMARK    5  A    between atoms: C_12  and  C_13
REMARK    6  A    between atoms: C_15  and  O_16
REMARK                            x       y       z     vdW  Elec       q    Type
REMARK                         _______ _______ _______ _____ _____    ______ ____
ROOT
ATOM      1  C   UNL     1       3.629   1.532  18.605  0.00  0.00    +0.000 C 
ATOM      2  C   UNL     1       3.794   2.817  18.966  0.00  0.00    +0.000 C 
ATOM      3  C   UNL     1       4.973   3.609  18.429  0.00  0.00    +0.000 C 
ATOM      4  C   UNL     1       4.724   4.434  17.149  0.00  0.00    +0.000 C 
ATOM      5  C   UNL     1       5.616   5.713  16.920  0.00  0.00    +0.000 C 
ATOM      6  C   UNL     1       4.698   6.958  16.653  0.00  0.00    +0.000 C 
ATOM      7  C   UNL     1       3.995   7.588  17.876  0.00  0.00    +0.000 C 
ATOM      8  C   UNL     1       2.865   6.731  18.392  0.00  0.00    +0.000 C 
ATOM      9  C   UNL     1       1.583   6.780  17.601  0.00  0.00    +0.000 C 
ATOM     10  C   UNL     1       3.046   5.906  19.443  0.00  0.00    +0.000 C 
ATOM     11  C   UNL     1       2.163   4.736  19.796  0.00  0.00    +0.000 C 
ATOM     12  C   UNL     1       2.956   3.434  20.084  0.00  0.00    +0.000 C 
ENDROOT
BRANCH   5  13
ATOM     13  C   UNL     1       6.756   6.026  17.955  0.00  0.00    +0.000 C 
ATOM     14  C   UNL     1       7.549   7.291  17.574  0.00  0.00    +0.000 C 
ATOM     15  C   UNL     1       7.795   4.900  18.104  0.00  0.00    +0.000 C 
ENDBRANCH   5  13
BRANCH   4  16
ATOM     16  O   UNL     1       4.886   3.577  16.000  0.00  0.00    +0.000 OA
ATOM     17  H   UNL     1       4.359   3.948  15.277  0.00  0.00    +0.000 HD
ENDBRANCH   4  16
BRANCH  11  18
ATOM     18  O   UNL     1       1.427   5.086  20.970  0.00  0.00    +0.000 OA
ATOM     19  H   UNL     1       1.869   4.674  21.730  0.00  0.00    +0.000 HD
ENDBRANCH  11  18
TORSDOF 3
ENDMDL
MODEL 6
REMARK VINA RESULT:      -5.4      1.963      3.897
REMARK  Name = 
REMARK  6 active torsions:
REMARK  status: ('A' for Active; 'I' for Inactive)
REMARK    1  A    between atoms: C_4  and  O_5
REMARK    2  A    between atoms: C_6  and  C_7
REMARK    3  A    between atoms: C_7  and  C_8
REMARK    4  A    between atoms: C_7  and  C_9
REMARK    5  A    between atoms: C_12  and  C_13
REMARK    6  A    between atoms: C_15  and  O_16
REMARK                            x       y       z     vdW  Elec       q    Type
REMARK                         _______ _______ _______ _____ _____    ______ ____
ROOT
ATOM      1  C   UNL     1       1.874   8.158  17.644  0.00  0.00    +0.000 C 
ATOM      2  C   UNL     1       2.875   7.311  17.946  0.00  0.00    +0.000 C 
ATOM      3  C   UNL     1       2.579   6.028  18.701  0.00  0.00    +0.000 C 
ATOM      4  C   UNL     1       2.328   4.768  17.846  0.00  0.00    +0.000 C 
ATOM      5  C   UNL     1       2.656   3.369  18.495  0.00  0.00    +0.000 C 
ATOM      6  C   UNL     1       3.606   2.556  17.545  0.00  0.00    +0.000 C 
ATOM      7  C   UNL     1       5.095   2.966  17.521  0.00  0.00    +0.000 C 
ATOM      8  C   UNL     1       5.317   4.273  16.799  0.00  0.00    +0.000 C 
ATOM      9  C   UNL     1       5.286   4.212  15.294  0.00  0.00    +0.000 C 
ATOM     10  C   UNL     1       5.438   5.429  17.483  0.00  0.00    +0.000 C 
ATOM     11  C   UNL     1       5.259   6.808  16.901  0.00  0.00    +0.000 C 
ATOM     12  C   UNL     1       4.334   7.718  17.752  0.00  0.00    +0.000 C 
ENDROOT
BRANCH   5  13
ATOM     13  C   UNL     1       3.135   3.331  19.990  0.00  0.00    +0.000 C 
ATOM     14  C   UNL     1       4.085   2.149  20.261  0.00  0.00    +0.000 C 
ATOM     15  C   UNL     1       1.992   3.203  21.012  0.00  0.00    +0.000 C 
ENDBRANCH   5  13
BRANCH   4  16
ATOM     16  O   UNL     1       0.944   4.747  17.438  0.00  0.00    +0.000 OA
ATOM     17  H   UNL     1       0.868   5.267  16.625  0.00  0.00    +0.000 HD
ENDBRANCH   4  16
BRANCH  11  18
ATOM     18  O   UNL     1       6.550   7.420  16.828  0.00  0.00    +0.000 OA
ATOM     19  H   UNL     1       7.152   6.790  16.400  0.00  0.00    +0.000 HD
ENDBRANCH  11  18
TORSDOF 3
ENDMDL
MODEL 7
REMARK VINA RESULT:      -5.2      8.637     11.358
REMARK  Name = 
REMARK  6 active torsions:
REMARK  status: ('A' for Active; 'I' for Inactive)
REMARK    1  A    between atoms: C_4  and  O_5
REMARK    2  A    between atoms: C_6  and  C_7
REMARK    3  A    between atoms: C_7  and  C_8
REMARK    4  A    between atoms: C_7  and  C_9
REMARK    5  A    between atoms: C_12  and  C_13
REMARK    6  A    between atoms: C_15  and  O_16
REMARK                            x       y       z     vdW  Elec       q    Type
REMARK                         _______ _______ _______ _____ _____    ______ ____
ROOT
ATOM      1  C   UNL     1       5.759  15.101  18.578  0.00  0.00    +0.000 C 
ATOM      2  C   UNL     1       7.053  15.053  18.943  0.00  0.00    +0.000 C 
ATOM      3  C   UNL     1       7.782  13.722  18.976  0.00  0.00    +0.000 C 
ATOM      4  C   UNL     1       8.559  13.332  17.700  0.00  0.00    +0.000 C 
ATOM      5  C   UNL     1       9.798  12.371  17.867  0.00  0.00    +0.000 C 
ATOM      6  C   UNL     1      11.059  13.011  17.185  0.00  0.00    +0.000 C 
ATOM      7  C   UNL     1      11.763  14.156  17.947  0.00  0.00    +0.000 C 
ATOM      8  C   UNL     1      10.966  15.437  17.920  0.00  0.00    +0.000 C 
ATOM      9  C   UNL     1      11.022  16.224  16.636  0.00  0.00    +0.000 C 
ATOM     10  C   UNL     1      10.182  15.786  18.959  0.00  0.00    +0.000 C 
ATOM     11  C   UNL     1       9.057  16.789  18.905  0.00  0.00    +0.000 C 
ATOM     12  C   UNL     1       7.744  16.273  19.550  0.00  0.00    +0.000 C 
ENDROOT
BRANCH   5  13
ATOM     13  C   UNL     1      10.117  11.802  19.296  0.00  0.00    +0.000 C 
ATOM     14  C   UNL     1      11.619  11.509  19.477  0.00  0.00    +0.000 C 
ATOM     15  C   UNL     1       9.384  10.490  19.628  0.00  0.00    +0.000 C 
ENDBRANCH   5  13
BRANCH   4  16
ATOM     16  O   UNL     1       7.648  12.714  16.768  0.00  0.00    +0.000 OA
ATOM     17  H   UNL     1       7.356  13.394  16.145  0.00  0.00    +0.000 HD
ENDBRANCH   4  16
BRANCH  11  18
ATOM     18  O   UNL     1       9.481  17.956  19.614  0.00  0.00    +0.000 OA
ATOM     19  H   UNL     1       9.731  18.626  18.958  0.00  0.00    +0.000 HD
ENDBRANCH  11  18
TORSDOF 3
ENDMDL
MODEL 8
REMARK VINA RESULT:      -5.1      8.617     11.327
REMARK  Name = 
REMARK  6 active torsions:
REMARK  status: ('A' for Active; 'I' for Inactive)
REMARK    1  A    between atoms: C_4  and  O_5
REMARK    2  A    between atoms: C_6  and  C_7
REMARK    3  A    between atoms: C_7  and  C_8
REMARK    4  A    between atoms: C_7  and  C_9
REMARK    5  A    between atoms: C_12  and  C_13
REMARK    6  A    between atoms: C_15  and  O_16
REMARK                            x       y       z     vdW  Elec       q    Type
REMARK                         _______ _______ _______ _____ _____    ______ ____
ROOT
ATOM      1  C   UNL     1       9.012  10.419  18.344  0.00  0.00    +0.000 C 
ATOM      2  C   UNL     1       9.409  11.242  19.331  0.00  0.00    +0.000 C 
ATOM      3  C   UNL     1      10.116  12.542  18.994  0.00  0.00    +0.000 C 
ATOM      4  C   UNL     1       9.227  13.798  18.869  0.00  0.00    +0.000 C 
ATOM      5  C   UNL     1       9.893  15.195  19.167  0.00  0.00    +0.000 C 
ATOM      6  C   UNL     1       9.040  15.971  20.233  0.00  0.00    +0.000 C 
ATOM      7  C   UNL     1       9.176  15.520  21.704  0.00  0.00    +0.000 C 
ATOM      8  C   UNL     1       8.495  14.199  21.965  0.00  0.00    +0.000 C 
ATOM      9  C   UNL     1       6.995  14.242  22.092  0.00  0.00    +0.000 C 
ATOM     10  C   UNL     1       9.199  13.049  21.981  0.00  0.00    +0.000 C 
ATOM     11  C   UNL     1       8.616  11.667  21.826  0.00  0.00    +0.000 C 
ATOM     12  C   UNL     1       9.374  10.794  20.791  0.00  0.00    +0.000 C 
ENDROOT
BRANCH   5  13
ATOM     13  C   UNL     1      11.430  15.240  19.487  0.00  0.00    +0.000 C 
ATOM     14  C   UNL     1      11.865  16.614  20.031  0.00  0.00    +0.000 C 
ATOM     15  C   UNL     1      12.333  14.955  18.274  0.00  0.00    +0.000 C 
ENDBRANCH   5  13
BRANCH   4  16
ATOM     16  O   UNL     1       8.676  13.850  17.537  0.00  0.00    +0.000 OA
ATOM     17  H   UNL     1       8.893  14.716  17.162  0.00  0.00    +0.000 HD
ENDBRANCH   4  16
BRANCH  11  18
ATOM     18  O   UNL     1       8.684  11.021  23.099  0.00  0.00    +0.000 OA
ATOM     19  H   UNL     1       9.001  10.115  22.954  0.00  0.00    +0.000 HD
ENDBRANCH  11  18
TORSDOF 3
ENDMDL
MODEL 9
REMARK VINA RESULT:      -4.9      9.178     11.898
REMARK  Name = 
REMARK  6 active torsions:
REMARK  status: ('A' for Active; 'I' for Inactive)
REMARK    1  A    between atoms: C_4  and  O_5
REMARK    2  A    between atoms: C_6  and  C_7
REMARK    3  A    between atoms: C_7  and  C_8
REMARK    4  A    between atoms: C_7  and  C_9
REMARK    5  A    between atoms: C_12  and  C_13
REMARK    6  A    between atoms: C_15  and  O_16
REMARK                            x       y       z     vdW  Elec       q    Type
REMARK                         _______ _______ _______ _____ _____    ______ ____
ROOT
ATOM      1  C   UNL     1       6.653  15.860  19.909  0.00  0.00    +0.000 C 
ATOM      2  C   UNL     1       7.954  15.520  19.945  0.00  0.00    +0.000 C 
ATOM      3  C   UNL     1       8.385  14.129  19.516  0.00  0.00    +0.000 C 
ATOM      4  C   UNL     1       8.811  13.963  18.042  0.00  0.00    +0.000 C 
ATOM      5  C   UNL     1       9.833  12.811  17.704  0.00  0.00    +0.000 C 
ATOM      6  C   UNL     1      11.049  13.401  16.905  0.00  0.00    +0.000 C 
ATOM      7  C   UNL     1      12.105  14.188  17.712  0.00  0.00    +0.000 C 
ATOM      8  C   UNL     1      11.600  15.541  18.150  0.00  0.00    +0.000 C 
ATOM      9  C   UNL     1      11.576  16.613  17.091  0.00  0.00    +0.000 C 
ATOM     10  C   UNL     1      11.113  15.728  19.393  0.00  0.00    +0.000 C 
ATOM     11  C   UNL     1      10.231  16.874  19.821  0.00  0.00    +0.000 C 
ATOM     12  C   UNL     1       8.983  16.420  20.625  0.00  0.00    +0.000 C 
ENDROOT
BRANCH   5  13
ATOM     13  C   UNL     1      10.290  11.851  18.861  0.00  0.00    +0.000 C 
ATOM     14  C   UNL     1      11.719  11.320  18.638  0.00  0.00    +0.000 C 
ATOM     15  C   UNL     1       9.397  10.611  19.038  0.00  0.00    +0.000 C 
ENDBRANCH   5  13
BRANCH   4  16
ATOM     16  O   UNL     1       7.634  13.754  17.235  0.00  0.00    +0.000 OA
ATOM     17  H   UNL     1       6.873  13.698  17.832  0.00  0.00    +0.000 HD
ENDBRANCH   4  16
BRANCH  11  18
ATOM     18  O   UNL     1      11.011  17.739  20.649  0.00  0.00    +0.000 OA
ATOM     19  H   UNL     1      10.820  17.515  21.574  0.00  0.00    +0.000 HD
ENDBRANCH  11  18
TORSDOF 3
ENDMDL
