MODEL 1
REMARK VINA RESULT:      -7.9      0.000      0.000
REMARK  Name = 
REMARK  12 active torsions:
REMARK  status: ('A' for Active; 'I' for Inactive)
REMARK    1  A    between atoms: C_1  and  C_2
REMARK    2  A    between atoms: C_2  and  C_3
REMARK    3  A    between atoms: C_3  and  C_4
REMARK    4  A    between atoms: C_7  and  C_8
REMARK    5  A    between atoms: C_8  and  C_10
REMARK    6  A    between atoms: C_10  and  C_11
REMARK    7  A    between atoms: C_10  and  O_12
REMARK    8  A    between atoms: O_12  and  C_13
REMARK    9  A    between atoms: C_13  and  C_15
REMARK   10  A    between atoms: C_16  and  C_17
REMARK   11  A    between atoms: N_19  and  C_20
REMARK   12  A    between atoms: C_20  and  C_21
REMARK                            x       y       z     vdW  Elec       q    Type
REMARK                         _______ _______ _______ _____ _____    ______ ____
ROOT
ATOM      1  C   UNL     1       2.675   5.828  19.960  0.00  0.00    +0.000 C 
ATOM      2  O   UNL     1       1.880   5.086  20.538  0.00  0.00    +0.000 OA
ENDROOT
BRANCH   1   3
ATOM      3  C   UNL     1       2.325   7.137  19.441  0.00  0.00    +0.000 A 
ATOM      4  C   UNL     1       2.726   7.765  18.225  0.00  0.00    +0.000 A 
ATOM      5  C   UNL     1       3.466   7.183  17.079  0.00  0.00    +0.000 C 
ATOM      6  N   UNL     1       2.290   9.032  18.146  0.00  0.00    +0.000 NA
ATOM      7  N   UNL     1       1.547   9.210  19.266  0.00  0.00    +0.000 N 
ATOM      8  C   UNL     1       1.483   8.063  20.013  0.00  0.00    +0.000 A 
ATOM      9 CL   UNL     1       0.482   7.960  21.388  0.00  0.00    +0.000 Cl
BRANCH   7  10
ATOM     10  C   UNL     1       1.100  10.558  19.593  0.00  0.00    +0.000 C 
BRANCH  10  11
ATOM     11  C   UNL     1      -0.256  10.920  19.037  0.00  0.00    +0.000 A 
ATOM     12  C   UNL     1      -0.949  10.005  18.226  0.00  0.00    +0.000 A 
ATOM     13  C   UNL     1      -2.275  10.243  17.857  0.00  0.00    +0.000 A 
ATOM     14  C   UNL     1      -2.928  11.389  18.303  0.00  0.00    +0.000 A 
ATOM     15  C   UNL     1      -2.242  12.321  19.080  0.00  0.00    +0.000 A 
ATOM     16  C   UNL     1      -0.909  12.097  19.432  0.00  0.00    +0.000 A 
ENDBRANCH  10  11
ENDBRANCH   7  10
ENDBRANCH   1   3
BRANCH   1  17
ATOM     17  O   UNL     1       3.994   5.545  19.788  0.00  0.00    +0.000 OA
BRANCH  17  18
ATOM     18  C   UNL     1       4.339   4.365  19.031  0.00  0.00    +0.000 C 
ATOM     19  C   UNL     1       4.364   3.188  20.008  0.00  0.00    +0.000 C 
BRANCH  18  20
ATOM     20  C   UNL     1       5.725   4.573  18.394  0.00  0.00    +0.000 C 
ATOM     21  O   UNL     1       6.725   4.801  19.080  0.00  0.00    +0.000 OA
BRANCH  20  25
ATOM     22  C   UNL     1       6.312   4.219  14.111  0.00  0.00    +0.000 A 
ATOM     23  C   UNL     1       7.317   4.730  14.943  0.00  0.00    +0.000 A 
ATOM     24  C   UNL     1       7.111   4.847  16.324  0.00  0.00    +0.000 A 
ATOM     25  C   UNL     1       5.882   4.487  16.899  0.00  0.00    +0.000 A 
ATOM     26  C   UNL     1       4.858   4.044  16.057  0.00  0.00    +0.000 A 
ATOM     27  C   UNL     1       5.077   3.895  14.683  0.00  0.00    +0.000 A 
BRANCH  22  28
ATOM     28  C   UNL     1       6.541   4.027  12.628  0.00  0.00    +0.000 C 
BRANCH  28  30
ATOM     29  C   UNL     1       5.840   1.867  11.520  0.00  0.00    +0.000 C 
ATOM     30  C   UNL     1       5.402   3.258  11.952  0.00  0.00    +0.000 C 
ENDBRANCH  28  30
ENDBRANCH  22  28
ENDBRANCH  20  25
ENDBRANCH  18  20
ENDBRANCH  17  18
ENDBRANCH   1  17
TORSDOF 9
ENDMDL
MODEL 2
REMARK VINA RESULT:      -7.5      1.315      2.197
REMARK  Name = 
REMARK  12 active torsions:
REMARK  status: ('A' for Active; 'I' for Inactive)
REMARK    1  A    between atoms: C_1  and  C_2
REMARK    2  A    between atoms: C_2  and  C_3
REMARK    3  A    between atoms: C_3  and  C_4
REMARK    4  A    between atoms: C_7  and  C_8
REMARK    5  A    between atoms: C_8  and  C_10
REMARK    6  A    between atoms: C_10  and  C_11
REMARK    7  A    between atoms: C_10  and  O_12
REMARK    8  A    between atoms: O_12  and  C_13
REMARK    9  A    between atoms: C_13  and  C_15
REMARK   10  A    between atoms: C_16  and  C_17
REMARK   11  A    between atoms: N_19  and  C_20
REMARK   12  A    between atoms: C_20  and  C_21
REMARK                            x       y       z     vdW  Elec       q    Type
REMARK                         _______ _______ _______ _____ _____    ______ ____
ROOT
ATOM      1  C   UNL     1       2.064   6.378  20.432  0.00  0.00    +0.000 C 
ATOM      2  O   UNL     1       1.310   5.527  20.906  0.00  0.00    +0.000 OA
ENDROOT
BRANCH   1   3
ATOM      3  C   UNL     1       1.678   7.758  20.202  0.00  0.00    +0.000 A 
ATOM      4  C   UNL     1       1.272   8.752  21.140  0.00  0.00    +0.000 A 
ATOM      5  C   UNL     1       1.305   8.699  22.623  0.00  0.00    +0.000 C 
ATOM      6  N   UNL     1       0.877   9.883  20.535  0.00  0.00    +0.000 NA
ATOM      7  N   UNL     1       1.091   9.659  19.215  0.00  0.00    +0.000 N 
ATOM      8  C   UNL     1       1.651   8.427  19.000  0.00  0.00    +0.000 A 
ATOM      9 CL   UNL     1       2.173   7.954  17.449  0.00  0.00    +0.000 Cl
BRANCH   7  10
ATOM     10  C   UNL     1       0.565  10.621  18.256  0.00  0.00    +0.000 C 
BRANCH  10  11
ATOM     11  C   UNL     1      -0.940  10.616  18.125  0.00  0.00    +0.000 A 
ATOM     12  C   UNL     1      -1.711  11.531  18.861  0.00  0.00    +0.000 A 
ATOM     13  C   UNL     1      -3.079  11.668  18.617  0.00  0.00    +0.000 A 
ATOM     14  C   UNL     1      -3.690  10.903  17.626  0.00  0.00    +0.000 A 
ATOM     15  C   UNL     1      -2.943   9.968  16.912  0.00  0.00    +0.000 A 
ATOM     16  C   UNL     1      -1.580   9.813  17.170  0.00  0.00    +0.000 A 
ENDBRANCH  10  11
ENDBRANCH   7  10
ENDBRANCH   1   3
BRANCH   1  17
ATOM     17  O   UNL     1       3.369   6.152  20.124  0.00  0.00    +0.000 OA
BRANCH  17  18
ATOM     18  C   UNL     1       3.671   5.077  19.209  0.00  0.00    +0.000 C 
ATOM     19  C   UNL     1       3.383   3.763  19.939  0.00  0.00    +0.000 C 
BRANCH  18  20
ATOM     20  C   UNL     1       5.156   5.165  18.814  0.00  0.00    +0.000 C 
ATOM     21  O   UNL     1       6.022   5.511  19.622  0.00  0.00    +0.000 OA
BRANCH  20  25
ATOM     22  C   UNL     1       6.274   4.278  14.718  0.00  0.00    +0.000 A 
ATOM     23  C   UNL     1       4.939   4.212  15.138  0.00  0.00    +0.000 A 
ATOM     24  C   UNL     1       4.593   4.492  16.466  0.00  0.00    +0.000 A 
ATOM     25  C   UNL     1       5.579   4.812  17.412  0.00  0.00    +0.000 A 
ATOM     26  C   UNL     1       6.916   4.809  17.006  0.00  0.00    +0.000 A 
ATOM     27  C   UNL     1       7.257   4.562  15.672  0.00  0.00    +0.000 A 
BRANCH  22  28
ATOM     28  C   UNL     1       6.657   4.039  13.273  0.00  0.00    +0.000 C 
BRANCH  28  30
ATOM     29  C   UNL     1       5.898   2.254  11.655  0.00  0.00    +0.000 C 
ATOM     30  C   UNL     1       5.494   3.491  12.441  0.00  0.00    +0.000 C 
ENDBRANCH  28  30
ENDBRANCH  22  28
ENDBRANCH  20  25
ENDBRANCH  18  20
ENDBRANCH  17  18
ENDBRANCH   1  17
TORSDOF 9
ENDMDL
MODEL 3
REMARK VINA RESULT:      -7.5      4.474     10.873
REMARK  Name = 
REMARK  12 active torsions:
REMARK  status: ('A' for Active; 'I' for Inactive)
REMARK    1  A    between atoms: C_1  and  C_2
REMARK    2  A    between atoms: C_2  and  C_3
REMARK    3  A    between atoms: C_3  and  C_4
REMARK    4  A    between atoms: C_7  and  C_8
REMARK    5  A    between atoms: C_8  and  C_10
REMARK    6  A    between atoms: C_10  and  C_11
REMARK    7  A    between atoms: C_10  and  O_12
REMARK    8  A    between atoms: O_12  and  C_13
REMARK    9  A    between atoms: C_13  and  C_15
REMARK   10  A    between atoms: C_16  and  C_17
REMARK   11  A    between atoms: N_19  and  C_20
REMARK   12  A    between atoms: C_20  and  C_21
REMARK                            x       y       z     vdW  Elec       q    Type
REMARK                         _______ _______ _______ _____ _____    ______ ____
ROOT
ATOM      1  C   UNL     1       0.044  11.006  19.374  0.00  0.00    +0.000 C 
ATOM      2  O   UNL     1      -0.964  11.075  18.670  0.00  0.00    +0.000 OA
ENDROOT
BRANCH   1   3
ATOM      3  C   UNL     1       0.588   9.759  19.882  0.00  0.00    +0.000 A 
ATOM      4  C   UNL     1       0.493   9.198  21.190  0.00  0.00    +0.000 A 
ATOM      5  C   UNL     1      -0.335   9.647  22.336  0.00  0.00    +0.000 C 
ATOM      6  N   UNL     1       1.229   8.081  21.312  0.00  0.00    +0.000 NA
ATOM      7  N   UNL     1       1.741   7.872  20.074  0.00  0.00    +0.000 N 
ATOM      8  C   UNL     1       1.302   8.814  19.183  0.00  0.00    +0.000 A 
ATOM      9 CL   UNL     1       1.664   8.694  17.522  0.00  0.00    +0.000 Cl
BRANCH   7  10
ATOM     10  C   UNL     1       2.766   6.847  19.915  0.00  0.00    +0.000 C 
BRANCH  10  11
ATOM     11  C   UNL     1       2.234   5.478  19.567  0.00  0.00    +0.000 A 
ATOM     12  C   UNL     1       1.653   4.676  20.564  0.00  0.00    +0.000 A 
ATOM     13  C   UNL     1       0.991   3.493  20.231  0.00  0.00    +0.000 A 
ATOM     14  C   UNL     1       0.890   3.102  18.898  0.00  0.00    +0.000 A 
ATOM     15  C   UNL     1       1.491   3.871  17.902  0.00  0.00    +0.000 A 
ATOM     16  C   UNL     1       2.172   5.043  18.235  0.00  0.00    +0.000 A 
ENDBRANCH  10  11
ENDBRANCH   7  10
ENDBRANCH   1   3
BRANCH   1  17
ATOM     17  O   UNL     1       0.811  12.076  19.715  0.00  0.00    +0.000 OA
BRANCH  17  18
ATOM     18  C   UNL     1       0.140  13.316  20.023  0.00  0.00    +0.000 C 
ATOM     19  C   UNL     1       1.174  14.437  19.901  0.00  0.00    +0.000 C 
BRANCH  18  20
ATOM     20  C   UNL     1      -0.409  13.238  21.460  0.00  0.00    +0.000 C 
ATOM     21  O   UNL     1       0.331  13.331  22.442  0.00  0.00    +0.000 OA
BRANCH  20  25
ATOM     22  C   UNL     1      -4.658  12.836  22.234  0.00  0.00    +0.000 A 
ATOM     23  C   UNL     1      -3.711  12.621  23.243  0.00  0.00    +0.000 A 
ATOM     24  C   UNL     1      -2.342  12.745  22.978  0.00  0.00    +0.000 A 
ATOM     25  C   UNL     1      -1.887  13.055  21.686  0.00  0.00    +0.000 A 
ATOM     26  C   UNL     1      -2.831  13.201  20.666  0.00  0.00    +0.000 A 
ATOM     27  C   UNL     1      -4.200  13.110  20.941  0.00  0.00    +0.000 A 
BRANCH  22  28
ATOM     28  C   UNL     1      -6.143  12.767  22.520  0.00  0.00    +0.000 C 
BRANCH  28  30
ATOM     29  C   UNL     1      -6.591  14.956  23.698  0.00  0.00    +0.000 C 
ATOM     30  C   UNL     1      -6.518  13.444  23.841  0.00  0.00    +0.000 C 
ENDBRANCH  28  30
ENDBRANCH  22  28
ENDBRANCH  20  25
ENDBRANCH  18  20
ENDBRANCH  17  18
ENDBRANCH   1  17
TORSDOF 9
ENDMDL
MODEL 4
REMARK VINA RESULT:      -7.4      1.895      2.796
REMARK  Name = 
REMARK  12 active torsions:
REMARK  status: ('A' for Active; 'I' for Inactive)
REMARK    1  A    between atoms: C_1  and  C_2
REMARK    2  A    between atoms: C_2  and  C_3
REMARK    3  A    between atoms: C_3  and  C_4
REMARK    4  A    between atoms: C_7  and  C_8
REMARK    5  A    between atoms: C_8  and  C_10
REMARK    6  A    between atoms: C_10  and  C_11
REMARK    7  A    between atoms: C_10  and  O_12
REMARK    8  A    between atoms: O_12  and  C_13
REMARK    9  A    between atoms: C_13  and  C_15
REMARK   10  A    between atoms: C_16  and  C_17
REMARK   11  A    between atoms: N_19  and  C_20
REMARK   12  A    between atoms: C_20  and  C_21
REMARK                            x       y       z     vdW  Elec       q    Type
REMARK                         _______ _______ _______ _____ _____    ______ ____
ROOT
ATOM      1  C   UNL     1       1.940   8.335  18.752  0.00  0.00    +0.000 C 
ATOM      2  O   UNL     1       2.001   8.272  17.523  0.00  0.00    +0.000 OA
ENDROOT
BRANCH   1   3
ATOM      3  C   UNL     1       1.189   9.349  19.470  0.00  0.00    +0.000 A 
ATOM      4  C   UNL     1       0.336   9.207  20.604  0.00  0.00    +0.000 A 
ATOM      5  C   UNL     1       0.125   8.018  21.466  0.00  0.00    +0.000 C 
ATOM      6  N   UNL     1      -0.281  10.358  20.916  0.00  0.00    +0.000 NA
ATOM      7  N   UNL     1       0.220  11.264  20.040  0.00  0.00    +0.000 N 
ATOM      8  C   UNL     1       1.164  10.702  19.222  0.00  0.00    +0.000 A 
ATOM      9 CL   UNL     1       2.070  11.652  18.136  0.00  0.00    +0.000 Cl
BRANCH   7  10
ATOM     10  C   UNL     1      -0.405  12.579  19.972  0.00  0.00    +0.000 C 
BRANCH  10  11
ATOM     11  C   UNL     1      -1.884  12.555  19.670  0.00  0.00    +0.000 A 
ATOM     12  C   UNL     1      -2.361  11.845  18.555  0.00  0.00    +0.000 A 
ATOM     13  C   UNL     1      -3.731  11.655  18.364  0.00  0.00    +0.000 A 
ATOM     14  C   UNL     1      -4.640  12.160  19.291  0.00  0.00    +0.000 A 
ATOM     15  C   UNL     1      -4.182  12.896  20.383  0.00  0.00    +0.000 A 
ATOM     16  C   UNL     1      -2.813  13.106  20.564  0.00  0.00    +0.000 A 
ENDBRANCH  10  11
ENDBRANCH   7  10
ENDBRANCH   1   3
BRANCH   1  17
ATOM     17  O   UNL     1       2.513   7.432  19.590  0.00  0.00    +0.000 OA
BRANCH  17  18
ATOM     18  C   UNL     1       2.529   6.047  19.183  0.00  0.00    +0.000 C 
ATOM     19  C   UNL     1       1.851   5.238  20.289  0.00  0.00    +0.000 C 
BRANCH  18  20
ATOM     20  C   UNL     1       3.992   5.601  19.001  0.00  0.00    +0.000 C 
ATOM     21  O   UNL     1       4.746   5.446  19.966  0.00  0.00    +0.000 OA
BRANCH  20  25
ATOM     22  C   UNL     1       5.663   4.935  15.055  0.00  0.00    +0.000 A 
ATOM     23  C   UNL     1       5.287   6.216  15.479  0.00  0.00    +0.000 A 
ATOM     24  C   UNL     1       4.740   6.416  16.752  0.00  0.00    +0.000 A 
ATOM     25  C   UNL     1       4.526   5.333  17.619  0.00  0.00    +0.000 A 
ATOM     26  C   UNL     1       4.838   4.048  17.167  0.00  0.00    +0.000 A 
ATOM     27  C   UNL     1       5.416   3.855  15.907  0.00  0.00    +0.000 A 
BRANCH  22  28
ATOM     28  C   UNL     1       6.313   4.712  13.706  0.00  0.00    +0.000 C 
BRANCH  28  30
ATOM     29  C   UNL     1       5.288   3.316  11.866  0.00  0.00    +0.000 C 
ATOM     30  C   UNL     1       6.076   3.298  13.167  0.00  0.00    +0.000 C 
ENDBRANCH  28  30
ENDBRANCH  22  28
ENDBRANCH  20  25
ENDBRANCH  18  20
ENDBRANCH  17  18
ENDBRANCH   1  17
TORSDOF 9
ENDMDL
MODEL 5
REMARK VINA RESULT:      -7.4      3.779      8.970
REMARK  Name = 
REMARK  12 active torsions:
REMARK  status: ('A' for Active; 'I' for Inactive)
REMARK    1  A    between atoms: C_1  and  C_2
REMARK    2  A    between atoms: C_2  and  C_3
REMARK    3  A    between atoms: C_3  and  C_4
REMARK    4  A    between atoms: C_7  and  C_8
REMARK    5  A    between atoms: C_8  and  C_10
REMARK    6  A    between atoms: C_10  and  C_11
REMARK    7  A    between atoms: C_10  and  O_12
REMARK    8  A    between atoms: O_12  and  C_13
REMARK    9  A    between atoms: C_13  and  C_15
REMARK   10  A    between atoms: C_16  and  C_17
REMARK   11  A    between atoms: N_19  and  C_20
REMARK   12  A    between atoms: C_20  and  C_21
REMARK                            x       y       z     vdW  Elec       q    Type
REMARK                         _______ _______ _______ _____ _____    ______ ____
ROOT
ATOM      1  C   UNL     1       0.384  11.885  20.767  0.00  0.00    +0.000 C 
ATOM      2  O   UNL     1       0.997  12.582  21.576  0.00  0.00    +0.000 OA
ENDROOT
BRANCH   1   3
ATOM      3  C   UNL     1       1.029  11.080  19.746  0.00  0.00    +0.000 A 
ATOM      4  C   UNL     1       1.746  11.496  18.586  0.00  0.00    +0.000 A 
ATOM      5  C   UNL     1       2.180  12.862  18.202  0.00  0.00    +0.000 C 
ATOM      6  N   UNL     1       2.098  10.457  17.813  0.00  0.00    +0.000 NA
ATOM      7  N   UNL     1       1.681   9.363  18.497  0.00  0.00    +0.000 N 
ATOM      8  C   UNL     1       1.116   9.708  19.697  0.00  0.00    +0.000 A 
ATOM      9 CL   UNL     1       0.653   8.520  20.827  0.00  0.00    +0.000 Cl
BRANCH   7  10
ATOM     10  C   UNL     1       1.723   8.070  17.826  0.00  0.00    +0.000 C 
BRANCH  10  11
ATOM     11  C   UNL     1       2.906   7.209  18.198  0.00  0.00    +0.000 A 
ATOM     12  C   UNL     1       2.841   6.376  19.327  0.00  0.00    +0.000 A 
ATOM     13  C   UNL     1       3.846   5.440  19.581  0.00  0.00    +0.000 A 
ATOM     14  C   UNL     1       4.920   5.316  18.703  0.00  0.00    +0.000 A 
ATOM     15  C   UNL     1       5.014   6.159  17.597  0.00  0.00    +0.000 A 
ATOM     16  C   UNL     1       4.022   7.112  17.354  0.00  0.00    +0.000 A 
ENDBRANCH  10  11
ENDBRANCH   7  10
ENDBRANCH   1   3
BRANCH   1  17
ATOM     17  O   UNL     1      -0.967  11.730  20.764  0.00  0.00    +0.000 OA
BRANCH  17  18
ATOM     18  C   UNL     1      -1.767  12.786  20.191  0.00  0.00    +0.000 C 
ATOM     19  C   UNL     1      -2.069  13.787  21.308  0.00  0.00    +0.000 C 
BRANCH  18  20
ATOM     20  C   UNL     1      -3.070  12.177  19.640  0.00  0.00    +0.000 C 
ATOM     21  O   UNL     1      -4.131  12.244  20.266  0.00  0.00    +0.000 OA
BRANCH  20  25
ATOM     22  C   UNL     1      -3.072  10.354  15.704  0.00  0.00    +0.000 A 
ATOM     23  C   UNL     1      -4.151  11.129  16.148  0.00  0.00    +0.000 A 
ATOM     24  C   UNL     1      -4.142  11.705  17.424  0.00  0.00    +0.000 A 
ATOM     25  C   UNL     1      -3.066  11.490  18.300  0.00  0.00    +0.000 A 
ATOM     26  C   UNL     1      -2.023  10.659  17.881  0.00  0.00    +0.000 A 
ATOM     27  C   UNL     1      -2.019  10.113  16.593  0.00  0.00    +0.000 A 
BRANCH  22  28
ATOM     28  C   UNL     1      -3.039   9.777  14.306  0.00  0.00    +0.000 C 
BRANCH  28  30
ATOM     29  C   UNL     1      -4.152   9.690  12.039  0.00  0.00    +0.000 C 
ATOM     30  C   UNL     1      -4.255  10.190  13.472  0.00  0.00    +0.000 C 
ENDBRANCH  28  30
ENDBRANCH  22  28
ENDBRANCH  20  25
ENDBRANCH  18  20
ENDBRANCH  17  18
ENDBRANCH   1  17
TORSDOF 9
ENDMDL
MODEL 6
REMARK VINA RESULT:      -7.3      1.716      2.560
REMARK  Name = 
REMARK  12 active torsions:
REMARK  status: ('A' for Active; 'I' for Inactive)
REMARK    1  A    between atoms: C_1  and  C_2
REMARK    2  A    between atoms: C_2  and  C_3
REMARK    3  A    between atoms: C_3  and  C_4
REMARK    4  A    between atoms: C_7  and  C_8
REMARK    5  A    between atoms: C_8  and  C_10
REMARK    6  A    between atoms: C_10  and  C_11
REMARK    7  A    between atoms: C_10  and  O_12
REMARK    8  A    between atoms: O_12  and  C_13
REMARK    9  A    between atoms: C_13  and  C_15
REMARK   10  A    between atoms: C_16  and  C_17
REMARK   11  A    between atoms: N_19  and  C_20
REMARK   12  A    between atoms: C_20  and  C_21
REMARK                            x       y       z     vdW  Elec       q    Type
REMARK                         _______ _______ _______ _____ _____    ______ ____
ROOT
ATOM      1  C   UNL     1       2.038   6.936  20.318  0.00  0.00    +0.000 C 
ATOM      2  O   UNL     1       1.648   6.146  21.180  0.00  0.00    +0.000 OA
ENDROOT
BRANCH   1   3
ATOM      3  C   UNL     1       1.544   8.294  20.187  0.00  0.00    +0.000 A 
ATOM      4  C   UNL     1       1.104   9.197  21.199  0.00  0.00    +0.000 A 
ATOM      5  C   UNL     1       1.197   9.059  22.673  0.00  0.00    +0.000 C 
ATOM      6  N   UNL     1       0.604  10.330  20.680  0.00  0.00    +0.000 NA
ATOM      7  N   UNL     1       0.784  10.202  19.342  0.00  0.00    +0.000 N 
ATOM      8  C   UNL     1       1.423   9.030  19.031  0.00  0.00    +0.000 A 
ATOM      9 CL   UNL     1       1.918   8.691  17.437  0.00  0.00    +0.000 Cl
BRANCH   7  10
ATOM     10  C   UNL     1       0.152  11.177  18.463  0.00  0.00    +0.000 C 
BRANCH  10  11
ATOM     11  C   UNL     1      -1.321  10.946  18.225  0.00  0.00    +0.000 A 
ATOM     12  C   UNL     1      -2.268  11.809  18.801  0.00  0.00    +0.000 A 
ATOM     13  C   UNL     1      -3.616  11.725  18.446  0.00  0.00    +0.000 A 
ATOM     14  C   UNL     1      -4.031  10.789  17.502  0.00  0.00    +0.000 A 
ATOM     15  C   UNL     1      -3.107   9.905  16.948  0.00  0.00    +0.000 A 
ATOM     16  C   UNL     1      -1.762   9.971  17.319  0.00  0.00    +0.000 A 
ENDBRANCH  10  11
ENDBRANCH   7  10
ENDBRANCH   1   3
BRANCH   1  17
ATOM     17  O   UNL     1       3.022   6.659  19.422  0.00  0.00    +0.000 OA
BRANCH  17  18
ATOM     18  C   UNL     1       3.582   5.329  19.422  0.00  0.00    +0.000 C 
ATOM     19  C   UNL     1       5.102   5.473  19.527  0.00  0.00    +0.000 C 
BRANCH  18  20
ATOM     20  C   UNL     1       3.192   4.627  18.108  0.00  0.00    +0.000 C 
ATOM     21  O   UNL     1       2.095   4.080  17.967  0.00  0.00    +0.000 OA
BRANCH  20  25
ATOM     22  C   UNL     1       6.077   4.689  14.870  0.00  0.00    +0.000 A 
ATOM     23  C   UNL     1       5.419   5.856  15.281  0.00  0.00    +0.000 A 
ATOM     24  C   UNL     1       4.483   5.821  16.322  0.00  0.00    +0.000 A 
ATOM     25  C   UNL     1       4.160   4.609  16.954  0.00  0.00    +0.000 A 
ATOM     26  C   UNL     1       4.766   3.437  16.495  0.00  0.00    +0.000 A 
ATOM     27  C   UNL     1       5.726   3.480  15.478  0.00  0.00    +0.000 A 
BRANCH  22  28
ATOM     28  C   UNL     1       7.137   4.722  13.790  0.00  0.00    +0.000 C 
BRANCH  28  30
ATOM     29  C   UNL     1       5.272   3.733  12.402  0.00  0.00    +0.000 C 
ATOM     30  C   UNL     1       6.778   3.844  12.589  0.00  0.00    +0.000 C 
ENDBRANCH  28  30
ENDBRANCH  22  28
ENDBRANCH  20  25
ENDBRANCH  18  20
ENDBRANCH  17  18
ENDBRANCH   1  17
TORSDOF 9
ENDMDL
MODEL 7
REMARK VINA RESULT:      -7.3      3.631      6.470
REMARK  Name = 
REMARK  12 active torsions:
REMARK  status: ('A' for Active; 'I' for Inactive)
REMARK    1  A    between atoms: C_1  and  C_2
REMARK    2  A    between atoms: C_2  and  C_3
REMARK    3  A    between atoms: C_3  and  C_4
REMARK    4  A    between atoms: C_7  and  C_8
REMARK    5  A    between atoms: C_8  and  C_10
REMARK    6  A    between atoms: C_10  and  C_11
REMARK    7  A    between atoms: C_10  and  O_12
REMARK    8  A    between atoms: O_12  and  C_13
REMARK    9  A    between atoms: C_13  and  C_15
REMARK   10  A    between atoms: C_16  and  C_17
REMARK   11  A    between atoms: N_19  and  C_20
REMARK   12  A    between atoms: C_20  and  C_21
REMARK                            x       y       z     vdW  Elec       q    Type
REMARK                         _______ _______ _______ _____ _____    ______ ____
ROOT
ATOM      1  C   UNL     1      -0.154  11.605  19.937  0.00  0.00    +0.000 C 
ATOM      2  O   UNL     1       0.864  11.924  19.319  0.00  0.00    +0.000 OA
ENDROOT
BRANCH   1   3
ATOM      3  C   UNL     1      -1.455  11.439  19.315  0.00  0.00    +0.000 A 
ATOM      4  C   UNL     1      -1.822  10.651  18.184  0.00  0.00    +0.000 A 
ATOM      5  C   UNL     1      -1.013   9.651  17.446  0.00  0.00    +0.000 C 
ATOM      6  N   UNL     1      -3.103  10.845  17.832  0.00  0.00    +0.000 NA
ATOM      7  N   UNL     1      -3.591  11.695  18.768  0.00  0.00    +0.000 N 
ATOM      8  C   UNL     1      -2.647  11.996  19.714  0.00  0.00    +0.000 A 
ATOM      9 CL   UNL     1      -3.042  12.915  21.094  0.00  0.00    +0.000 Cl
BRANCH   7  10
ATOM     10  C   UNL     1      -4.910  12.278  18.552  0.00  0.00    +0.000 C 
BRANCH  10  11
ATOM     11  C   UNL     1      -6.025  11.602  19.313  0.00  0.00    +0.000 A 
ATOM     12  C   UNL     1      -6.404  10.290  18.983  0.00  0.00    +0.000 A 
ATOM     13  C   UNL     1      -7.299   9.583  19.789  0.00  0.00    +0.000 A 
ATOM     14  C   UNL     1      -7.816  10.173  20.940  0.00  0.00    +0.000 A 
ATOM     15  C   UNL     1      -7.474  11.486  21.261  0.00  0.00    +0.000 A 
ATOM     16  C   UNL     1      -6.597  12.202  20.444  0.00  0.00    +0.000 A 
ENDBRANCH  10  11
ENDBRANCH   7  10
ENDBRANCH   1   3
BRANCH   1  17
ATOM     17  O   UNL     1      -0.178  11.307  21.263  0.00  0.00    +0.000 OA
BRANCH  17  18
ATOM     18  C   UNL     1      -0.307   9.919  21.641  0.00  0.00    +0.000 C 
ATOM     19  C   UNL     1      -1.011   9.881  22.999  0.00  0.00    +0.000 C 
BRANCH  18  20
ATOM     20  C   UNL     1       1.099   9.300  21.739  0.00  0.00    +0.000 C 
ATOM     21  O   UNL     1       1.889   9.624  22.630  0.00  0.00    +0.000 OA
BRANCH  20  25
ATOM     22  C   UNL     1       2.188   6.232  18.873  0.00  0.00    +0.000 A 
ATOM     23  C   UNL     1       1.867   5.908  20.198  0.00  0.00    +0.000 A 
ATOM     24  C   UNL     1       1.526   6.910  21.116  0.00  0.00    +0.000 A 
ATOM     25  C   UNL     1       1.530   8.261  20.737  0.00  0.00    +0.000 A 
ATOM     26  C   UNL     1       1.918   8.586  19.435  0.00  0.00    +0.000 A 
ATOM     27  C   UNL     1       2.226   7.582  18.510  0.00  0.00    +0.000 A 
BRANCH  22  28
ATOM     28  C   UNL     1       2.498   5.157  17.854  0.00  0.00    +0.000 C 
BRANCH  28  30
ATOM     29  C   UNL     1       4.496   3.899  16.956  0.00  0.00    +0.000 C 
ATOM     30  C   UNL     1       3.922   5.264  17.302  0.00  0.00    +0.000 C 
ENDBRANCH  28  30
ENDBRANCH  22  28
ENDBRANCH  20  25
ENDBRANCH  18  20
ENDBRANCH  17  18
ENDBRANCH   1  17
TORSDOF 9
ENDMDL
MODEL 8
REMARK VINA RESULT:      -7.3      1.977      2.967
REMARK  Name = 
REMARK  12 active torsions:
REMARK  status: ('A' for Active; 'I' for Inactive)
REMARK    1  A    between atoms: C_1  and  C_2
REMARK    2  A    between atoms: C_2  and  C_3
REMARK    3  A    between atoms: C_3  and  C_4
REMARK    4  A    between atoms: C_7  and  C_8
REMARK    5  A    between atoms: C_8  and  C_10
REMARK    6  A    between atoms: C_10  and  C_11
REMARK    7  A    between atoms: C_10  and  O_12
REMARK    8  A    between atoms: O_12  and  C_13
REMARK    9  A    between atoms: C_13  and  C_15
REMARK   10  A    between atoms: C_16  and  C_17
REMARK   11  A    between atoms: N_19  and  C_20
REMARK   12  A    between atoms: C_20  and  C_21
REMARK                            x       y       z     vdW  Elec       q    Type
REMARK                         _______ _______ _______ _____ _____    ______ ____
ROOT
ATOM      1  C   UNL     1       4.530   5.070  18.875  0.00  0.00    +0.000 C 
ATOM      2  O   UNL     1       4.506   3.839  18.931  0.00  0.00    +0.000 OA
ENDROOT
BRANCH   1   3
ATOM      3  C   UNL     1       3.415   5.916  19.260  0.00  0.00    +0.000 A 
ATOM      4  C   UNL     1       2.958   7.132  18.673  0.00  0.00    +0.000 A 
ATOM      5  C   UNL     1       3.388   7.771  17.404  0.00  0.00    +0.000 C 
ATOM      6  N   UNL     1       1.964   7.691  19.382  0.00  0.00    +0.000 NA
ATOM      7  N   UNL     1       1.721   6.810  20.383  0.00  0.00    +0.000 N 
ATOM      8  C   UNL     1       2.518   5.700  20.281  0.00  0.00    +0.000 A 
ATOM      9 CL   UNL     1       2.307   4.364  21.316  0.00  0.00    +0.000 Cl
BRANCH   7  10
ATOM     10  C   UNL     1       0.833   7.220  21.464  0.00  0.00    +0.000 C 
BRANCH  10  11
ATOM     11  C   UNL     1       0.388   8.661  21.397  0.00  0.00    +0.000 A 
ATOM     12  C   UNL     1      -0.251   9.250  22.501  0.00  0.00    +0.000 A 
ATOM     13  C   UNL     1      -0.501  10.624  22.529  0.00  0.00    +0.000 A 
ATOM     14  C   UNL     1      -0.105  11.427  21.463  0.00  0.00    +0.000 A 
ATOM     15  C   UNL     1       0.499  10.850  20.346  0.00  0.00    +0.000 A 
ATOM     16  C   UNL     1       0.730   9.473  20.306  0.00  0.00    +0.000 A 
ENDBRANCH  10  11
ENDBRANCH   7  10
ENDBRANCH   1   3
BRANCH   1  17
ATOM     17  O   UNL     1       5.620   5.795  18.507  0.00  0.00    +0.000 OA
BRANCH  17  18
ATOM     18  C   UNL     1       6.739   5.087  17.934  0.00  0.00    +0.000 C 
ATOM     19  C   UNL     1       7.918   5.239  18.898  0.00  0.00    +0.000 C 
BRANCH  18  20
ATOM     20  C   UNL     1       7.072   5.711  16.566  0.00  0.00    +0.000 C 
ATOM     21  O   UNL     1       7.661   6.791  16.473  0.00  0.00    +0.000 OA
BRANCH  20  25
ATOM     22  C   UNL     1       5.810   3.729  12.920  0.00  0.00    +0.000 A 
ATOM     23  C   UNL     1       5.040   3.662  14.088  0.00  0.00    +0.000 A 
ATOM     24  C   UNL     1       5.463   4.299  15.262  0.00  0.00    +0.000 A 
ATOM     25  C   UNL     1       6.685   4.990  15.301  0.00  0.00    +0.000 A 
ATOM     26  C   UNL     1       7.483   4.997  14.155  0.00  0.00    +0.000 A 
ATOM     27  C   UNL     1       7.042   4.389  12.974  0.00  0.00    +0.000 A 
BRANCH  22  28
ATOM     28  C   UNL     1       5.336   3.100  11.628  0.00  0.00    +0.000 C 
BRANCH  28  30
ATOM     29  C   UNL     1       3.457   3.900  10.140  0.00  0.00    +0.000 C 
ATOM     30  C   UNL     1       3.820   3.207  11.445  0.00  0.00    +0.000 C 
ENDBRANCH  28  30
ENDBRANCH  22  28
ENDBRANCH  20  25
ENDBRANCH  18  20
ENDBRANCH  17  18
ENDBRANCH   1  17
TORSDOF 9
ENDMDL
MODEL 9
REMARK VINA RESULT:      -7.2      2.460      9.408
REMARK  Name = 
REMARK  12 active torsions:
REMARK  status: ('A' for Active; 'I' for Inactive)
REMARK    1  A    between atoms: C_1  and  C_2
REMARK    2  A    between atoms: C_2  and  C_3
REMARK    3  A    between atoms: C_3  and  C_4
REMARK    4  A    between atoms: C_7  and  C_8
REMARK    5  A    between atoms: C_8  and  C_10
REMARK    6  A    between atoms: C_10  and  C_11
REMARK    7  A    between atoms: C_10  and  O_12
REMARK    8  A    between atoms: O_12  and  C_13
REMARK    9  A    between atoms: C_13  and  C_15
REMARK   10  A    between atoms: C_16  and  C_17
REMARK   11  A    between atoms: N_19  and  C_20
REMARK   12  A    between atoms: C_20  and  C_21
REMARK                            x       y       z     vdW  Elec       q    Type
REMARK                         _______ _______ _______ _____ _____    ______ ____
ROOT
ATOM      1  C   UNL     1       2.831   5.552  19.140  0.00  0.00    +0.000 C 
ATOM      2  O   UNL     1       2.723   5.138  20.295  0.00  0.00    +0.000 OA
ENDROOT
BRANCH   1   3
ATOM      3  C   UNL     1       3.686   4.936  18.141  0.00  0.00    +0.000 A 
ATOM      4  C   UNL     1       3.603   3.638  17.556  0.00  0.00    +0.000 A 
ATOM      5  C   UNL     1       2.519   2.631  17.678  0.00  0.00    +0.000 C 
ATOM      6  N   UNL     1       4.646   3.381  16.752  0.00  0.00    +0.000 NA
ATOM      7  N   UNL     1       5.369   4.528  16.751  0.00  0.00    +0.000 N 
ATOM      8  C   UNL     1       4.768   5.500  17.506  0.00  0.00    +0.000 A 
ATOM      9 CL   UNL     1       5.379   7.090  17.547  0.00  0.00    +0.000 Cl
BRANCH   7  10
ATOM     10  C   UNL     1       6.690   4.513  16.136  0.00  0.00    +0.000 C 
BRANCH  10  11
ATOM     11  C   UNL     1       6.679   4.504  14.626  0.00  0.00    +0.000 A 
ATOM     12  C   UNL     1       7.598   5.292  13.913  0.00  0.00    +0.000 A 
ATOM     13  C   UNL     1       7.728   5.158  12.530  0.00  0.00    +0.000 A 
ATOM     14  C   UNL     1       6.952   4.227  11.844  0.00  0.00    +0.000 A 
ATOM     15  C   UNL     1       6.012   3.463  12.534  0.00  0.00    +0.000 A 
ATOM     16  C   UNL     1       5.864   3.611  13.915  0.00  0.00    +0.000 A 
ENDBRANCH  10  11
ENDBRANCH   7  10
ENDBRANCH   1   3
BRANCH   1  17
ATOM     17  O   UNL     1       2.121   6.595  18.634  0.00  0.00    +0.000 OA
BRANCH  17  18
ATOM     18  C   UNL     1       2.293   7.890  19.247  0.00  0.00    +0.000 C 
ATOM     19  C   UNL     1       1.393   7.933  20.483  0.00  0.00    +0.000 C 
BRANCH  18  20
ATOM     20  C   UNL     1       1.880   8.975  18.236  0.00  0.00    +0.000 C 
ATOM     21  O   UNL     1       2.338   9.002  17.091  0.00  0.00    +0.000 OA
BRANCH  20  25
ATOM     22  C   UNL     1      -1.086  11.891  19.466  0.00  0.00    +0.000 A 
ATOM     23  C   UNL     1      -1.420  10.827  18.618  0.00  0.00    +0.000 A 
ATOM     24  C   UNL     1      -0.451   9.898  18.221  0.00  0.00    +0.000 A 
ATOM     25  C   UNL     1       0.883  10.031  18.638  0.00  0.00    +0.000 A 
ATOM     26  C   UNL     1       1.227  11.132  19.426  0.00  0.00    +0.000 A 
ATOM     27  C   UNL     1       0.250  12.040  19.849  0.00  0.00    +0.000 A 
BRANCH  22  28
ATOM     28  C   UNL     1      -2.135  12.867  19.954  0.00  0.00    +0.000 C 
BRANCH  28  30
ATOM     29  C   UNL     1      -4.483  12.633  20.856  0.00  0.00    +0.000 C 
ATOM     30  C   UNL     1      -3.561  12.386  19.672  0.00  0.00    +0.000 C 
ENDBRANCH  28  30
ENDBRANCH  22  28
ENDBRANCH  20  25
ENDBRANCH  18  20
ENDBRANCH  17  18
ENDBRANCH   1  17
TORSDOF 9
ENDMDL
