MODEL 1
REMARK VINA RESULT:      -8.7      0.000      0.000
REMARK  Name = 
REMARK  9 active torsions:
REMARK  status: ('A' for Active; 'I' for Inactive)
REMARK    1  A    between atoms: C_1  and  C_2
REMARK    2  A    between atoms: C_2  and  O_3
REMARK    3  A    between atoms: O_3  and  C_4
REMARK    4  A    between atoms: N_9  and  C_10
REMARK    5  A    between atoms: C_10  and  C_11
REMARK    6  A    between atoms: C_11  and  C_12
REMARK    7  A    between atoms: C_12  and  O_13
REMARK    8  A    between atoms: O_13  and  C_14
REMARK    9  A    between atoms: C_16  and  O_17
REMARK                            x       y       z     vdW  Elec       q    Type
REMARK                         _______ _______ _______ _____ _____    ______ ____
ROOT
ATOM      1  C   UNL     1       1.985   7.325  19.798  0.00  0.00    +0.000 A 
ATOM      2  C   UNL     1       2.119   8.065  18.625  0.00  0.00    +0.000 A 
ATOM      3  C   UNL     1       1.635   9.372  18.557  0.00  0.00    +0.000 A 
ATOM      4  C   UNL     1       1.010   9.962  19.662  0.00  0.00    +0.000 A 
ATOM      5  C   UNL     1       0.883   9.221  20.841  0.00  0.00    +0.000 A 
ATOM      6  C   UNL     1       1.379   7.910  20.910  0.00  0.00    +0.000 A 
ATOM      7  C   UNL     1       0.192   9.784  22.020  0.00  0.00    +0.000 C 
ATOM      8  O   UNL     1       0.164   9.174  23.080  0.00  0.00    +0.000 OA
ATOM      9  C   UNL     1      -0.499  11.081  21.892  0.00  0.00    +0.000 A 
ATOM     10  C   UNL     1      -1.296  11.556  22.938  0.00  0.00    +0.000 A 
ATOM     11  C   UNL     1      -1.970  12.772  22.806  0.00  0.00    +0.000 A 
ATOM     12  C   UNL     1      -1.842  13.520  21.636  0.00  0.00    +0.000 A 
ATOM     13  C   UNL     1      -1.038  13.051  20.598  0.00  0.00    +0.000 A 
ATOM     14  C   UNL     1      -0.368  11.828  20.723  0.00  0.00    +0.000 A 
ATOM     15  C   UNL     1       0.471  11.349  19.608  0.00  0.00    +0.000 C 
ATOM     16  O   UNL     1       0.692  12.111  18.679  0.00  0.00    +0.000 OA
ENDROOT
BRANCH   3  17
ATOM     17  O   UNL     1       1.761  10.043  17.374  0.00  0.00    +0.000 OA
ATOM     18  H   UNL     1       1.916  10.989  17.526  0.00  0.00    +0.000 HD
ENDBRANCH   3  17
BRANCH   1  19
ATOM     19  O   UNL     1       2.388   6.026  19.963  0.00  0.00    +0.000 OA
BRANCH  19  20
ATOM     20  C   UNL     1       1.738   5.303  21.011  0.00  0.00    +0.000 C 
BRANCH  20  21
ATOM     21  C   UNL     1       2.257   3.875  21.002  0.00  0.00    +0.000 C 
BRANCH  21  22
ATOM     22  C   UNL     1       1.999   3.177  19.662  0.00  0.00    +0.000 C 
BRANCH  22  28
ATOM     23  C   UNL     1       5.821   4.155  16.628  0.00  0.00    +0.000 C 
ATOM     24  O   UNL     1       5.772   3.914  15.428  0.00  0.00    +0.000 OA
ATOM     25  N   UNL     1       4.761   3.989  17.491  0.00  0.00    +0.000 N 
ATOM     26  C   UNL     1       3.517   3.422  16.987  0.00  0.00    +0.000 C 
ATOM     27  C   UNL     1       3.146   2.136  17.755  0.00  0.00    +0.000 C 
ATOM     28  N   UNL     1       3.106   2.303  19.230  0.00  0.00    +0.000 NA
ATOM     29  C   UNL     1       4.425   2.832  19.664  0.00  0.00    +0.000 C 
ATOM     30  C   UNL     1       4.856   4.132  18.948  0.00  0.00    +0.000 C 
BRANCH  23  31
ATOM     31  O   UNL     1       6.953   4.533  17.276  0.00  0.00    +0.000 OA
BRANCH  31  33
ATOM     32  C   UNL     1       7.717   6.428  18.493  0.00  0.00    +0.000 C 
ATOM     33  C   UNL     1       7.289   5.917  17.130  0.00  0.00    +0.000 C 
ENDBRANCH  31  33
ENDBRANCH  23  31
ENDBRANCH  22  28
ENDBRANCH  21  22
ENDBRANCH  20  21
ENDBRANCH  19  20
ENDBRANCH   1  19
TORSDOF 8
ENDMDL
MODEL 2
REMARK VINA RESULT:      -8.2      1.656      2.740
REMARK  Name = 
REMARK  9 active torsions:
REMARK  status: ('A' for Active; 'I' for Inactive)
REMARK    1  A    between atoms: C_1  and  C_2
REMARK    2  A    between atoms: C_2  and  O_3
REMARK    3  A    between atoms: O_3  and  C_4
REMARK    4  A    between atoms: N_9  and  C_10
REMARK    5  A    between atoms: C_10  and  C_11
REMARK    6  A    between atoms: C_11  and  C_12
REMARK    7  A    between atoms: C_12  and  O_13
REMARK    8  A    between atoms: O_13  and  C_14
REMARK    9  A    between atoms: C_16  and  O_17
REMARK                            x       y       z     vdW  Elec       q    Type
REMARK                         _______ _______ _______ _____ _____    ______ ____
ROOT
ATOM      1  C   UNL     1       1.833   6.920  19.606  0.00  0.00    +0.000 A 
ATOM      2  C   UNL     1       2.097   7.726  18.499  0.00  0.00    +0.000 A 
ATOM      3  C   UNL     1       1.773   9.082  18.522  0.00  0.00    +0.000 A 
ATOM      4  C   UNL     1       1.181   9.659  19.652  0.00  0.00    +0.000 A 
ATOM      5  C   UNL     1       0.924   8.851  20.765  0.00  0.00    +0.000 A 
ATOM      6  C   UNL     1       1.261   7.489  20.744  0.00  0.00    +0.000 A 
ATOM      7  C   UNL     1       0.262   9.403  21.965  0.00  0.00    +0.000 C 
ATOM      8  O   UNL     1       0.124   8.723  22.973  0.00  0.00    +0.000 OA
ATOM      9  C   UNL     1      -0.266  10.780  21.921  0.00  0.00    +0.000 A 
ATOM     10  C   UNL     1      -1.040  11.267  22.980  0.00  0.00    +0.000 A 
ATOM     11  C   UNL     1      -1.561  12.562  22.925  0.00  0.00    +0.000 A 
ATOM     12  C   UNL     1      -1.303  13.375  21.822  0.00  0.00    +0.000 A 
ATOM     13  C   UNL     1      -0.523  12.892  20.773  0.00  0.00    +0.000 A 
ATOM     14  C   UNL     1      -0.006  11.591  20.819  0.00  0.00    +0.000 A 
ATOM     15  C   UNL     1       0.812  11.100  19.692  0.00  0.00    +0.000 C 
ATOM     16  O   UNL     1       1.154  11.898  18.834  0.00  0.00    +0.000 OA
ENDROOT
BRANCH   3  17
ATOM     17  O   UNL     1       2.020   9.821  17.399  0.00  0.00    +0.000 OA
ATOM     18  H   UNL     1       2.864   9.566  16.995  0.00  0.00    +0.000 HD
ENDBRANCH   3  17
BRANCH   1  19
ATOM     19  O   UNL     1       2.075   5.574  19.679  0.00  0.00    +0.000 OA
BRANCH  19  20
ATOM     20  C   UNL     1       3.170   5.185  20.511  0.00  0.00    +0.000 C 
BRANCH  20  21
ATOM     21  C   UNL     1       4.159   4.399  19.666  0.00  0.00    +0.000 C 
BRANCH  21  22
ATOM     22  C   UNL     1       5.296   5.284  19.141  0.00  0.00    +0.000 C 
BRANCH  22  28
ATOM     23  C   UNL     1       6.922   4.632  14.482  0.00  0.00    +0.000 C 
ATOM     24  O   UNL     1       7.877   5.258  14.038  0.00  0.00    +0.000 OA
ATOM     25  N   UNL     1       6.492   4.709  15.788  0.00  0.00    +0.000 N 
ATOM     26  C   UNL     1       7.147   5.639  16.699  0.00  0.00    +0.000 C 
ATOM     27  C   UNL     1       6.136   6.649  17.279  0.00  0.00    +0.000 C 
ATOM     28  N   UNL     1       4.947   6.020  17.910  0.00  0.00    +0.000 NA
ATOM     29  C   UNL     1       4.311   5.133  16.901  0.00  0.00    +0.000 C 
ATOM     30  C   UNL     1       5.263   4.082  16.287  0.00  0.00    +0.000 C 
BRANCH  23  31
ATOM     31  O   UNL     1       6.111   3.853  13.722  0.00  0.00    +0.000 OA
BRANCH  31  33
ATOM     32  C   UNL     1       5.968   2.471  11.792  0.00  0.00    +0.000 C 
ATOM     33  C   UNL     1       6.466   3.797  12.336  0.00  0.00    +0.000 C 
ENDBRANCH  31  33
ENDBRANCH  23  31
ENDBRANCH  22  28
ENDBRANCH  21  22
ENDBRANCH  20  21
ENDBRANCH  19  20
ENDBRANCH   1  19
TORSDOF 8
ENDMDL
MODEL 3
REMARK VINA RESULT:      -8.1      1.470      1.832
REMARK  Name = 
REMARK  9 active torsions:
REMARK  status: ('A' for Active; 'I' for Inactive)
REMARK    1  A    between atoms: C_1  and  C_2
REMARK    2  A    between atoms: C_2  and  O_3
REMARK    3  A    between atoms: O_3  and  C_4
REMARK    4  A    between atoms: N_9  and  C_10
REMARK    5  A    between atoms: C_10  and  C_11
REMARK    6  A    between atoms: C_11  and  C_12
REMARK    7  A    between atoms: C_12  and  O_13
REMARK    8  A    between atoms: O_13  and  C_14
REMARK    9  A    between atoms: C_16  and  O_17
REMARK                            x       y       z     vdW  Elec       q    Type
REMARK                         _______ _______ _______ _____ _____    ______ ____
ROOT
ATOM      1  C   UNL     1       1.524   8.279  20.170  0.00  0.00    +0.000 A 
ATOM      2  C   UNL     1       1.302   8.888  18.936  0.00  0.00    +0.000 A 
ATOM      3  C   UNL     1       0.513  10.036  18.848  0.00  0.00    +0.000 A 
ATOM      4  C   UNL     1      -0.066  10.596  19.992  0.00  0.00    +0.000 A 
ATOM      5  C   UNL     1       0.164   9.989  21.231  0.00  0.00    +0.000 A 
ATOM      6  C   UNL     1       0.966   8.840  21.318  0.00  0.00    +0.000 A 
ATOM      7  C   UNL     1      -0.460  10.517  22.462  0.00  0.00    +0.000 C 
ATOM      8  O   UNL     1      -0.184  10.046  23.557  0.00  0.00    +0.000 OA
ATOM      9  C   UNL     1      -1.454  11.602  22.351  0.00  0.00    +0.000 A 
ATOM     10  C   UNL     1      -2.179  12.005  23.477  0.00  0.00    +0.000 A 
ATOM     11  C   UNL     1      -3.138  13.015  23.365  0.00  0.00    +0.000 A 
ATOM     12  C   UNL     1      -3.367  13.630  22.134  0.00  0.00    +0.000 A 
ATOM     13  C   UNL     1      -2.636  13.234  21.015  0.00  0.00    +0.000 A 
ATOM     14  C   UNL     1      -1.680  12.216  21.122  0.00  0.00    +0.000 A 
ATOM     15  C   UNL     1      -0.924  11.810  19.920  0.00  0.00    +0.000 C 
ATOM     16  O   UNL     1      -1.033  12.487  18.910  0.00  0.00    +0.000 OA
ENDROOT
BRANCH   3  17
ATOM     17  O   UNL     1       0.298  10.574  17.610  0.00  0.00    +0.000 OA
ATOM     18  H   UNL     1       1.087  11.041  17.293  0.00  0.00    +0.000 HD
ENDBRANCH   3  17
BRANCH   1  19
ATOM     19  O   UNL     1       2.247   7.133  20.366  0.00  0.00    +0.000 OA
BRANCH  19  20
ATOM     20  C   UNL     1       1.612   6.127  21.159  0.00  0.00    +0.000 C 
BRANCH  20  21
ATOM     21  C   UNL     1       1.630   4.822  20.382  0.00  0.00    +0.000 C 
BRANCH  21  22
ATOM     22  C   UNL     1       3.057   4.367  20.053  0.00  0.00    +0.000 C 
BRANCH  22  28
ATOM     23  C   UNL     1       5.565   6.207  16.167  0.00  0.00    +0.000 C 
ATOM     24  O   UNL     1       5.028   6.926  15.334  0.00  0.00    +0.000 OA
ATOM     25  N   UNL     1       4.940   5.750  17.306  0.00  0.00    +0.000 N 
ATOM     26  C   UNL     1       3.533   6.061  17.518  0.00  0.00    +0.000 C 
ATOM     27  C   UNL     1       2.697   4.772  17.657  0.00  0.00    +0.000 C 
ATOM     28  N   UNL     1       3.203   3.830  18.686  0.00  0.00    +0.000 NA
ATOM     29  C   UNL     1       4.622   3.524  18.365  0.00  0.00    +0.000 C 
ATOM     30  C   UNL     1       5.526   4.770  18.228  0.00  0.00    +0.000 C 
BRANCH  23  31
ATOM     31  O   UNL     1       6.816   5.697  16.031  0.00  0.00    +0.000 OA
BRANCH  31  33
ATOM     32  C   UNL     1       6.146   3.785  14.786  0.00  0.00    +0.000 C 
ATOM     33  C   UNL     1       7.046   5.007  14.798  0.00  0.00    +0.000 C 
ENDBRANCH  31  33
ENDBRANCH  23  31
ENDBRANCH  22  28
ENDBRANCH  21  22
ENDBRANCH  20  21
ENDBRANCH  19  20
ENDBRANCH   1  19
TORSDOF 8
ENDMDL
MODEL 4
REMARK VINA RESULT:      -8.1      6.704      8.892
REMARK  Name = 
REMARK  9 active torsions:
REMARK  status: ('A' for Active; 'I' for Inactive)
REMARK    1  A    between atoms: C_1  and  C_2
REMARK    2  A    between atoms: C_2  and  O_3
REMARK    3  A    between atoms: O_3  and  C_4
REMARK    4  A    between atoms: N_9  and  C_10
REMARK    5  A    between atoms: C_10  and  C_11
REMARK    6  A    between atoms: C_11  and  C_12
REMARK    7  A    between atoms: C_12  and  O_13
REMARK    8  A    between atoms: O_13  and  C_14
REMARK    9  A    between atoms: C_16  and  O_17
REMARK                            x       y       z     vdW  Elec       q    Type
REMARK                         _______ _______ _______ _____ _____    ______ ____
ROOT
ATOM      1  C   UNL     1       9.601  10.475  19.039  0.00  0.00    +0.000 A 
ATOM      2  C   UNL     1      10.346  10.952  17.962  0.00  0.00    +0.000 A 
ATOM      3  C   UNL     1      10.966  12.199  18.031  0.00  0.00    +0.000 A 
ATOM      4  C   UNL     1      10.854  12.992  19.179  0.00  0.00    +0.000 A 
ATOM      5  C   UNL     1      10.112  12.510  20.262  0.00  0.00    +0.000 A 
ATOM      6  C   UNL     1       9.498  11.250  20.194  0.00  0.00    +0.000 A 
ATOM      7  C   UNL     1       9.928  13.327  21.480  0.00  0.00    +0.000 C 
ATOM      8  O   UNL     1       9.361  12.869  22.462  0.00  0.00    +0.000 OA
ATOM      9  C   UNL     1      10.406  14.723  21.482  0.00  0.00    +0.000 A 
ATOM     10  C   UNL     1      10.098  15.567  22.555  0.00  0.00    +0.000 A 
ATOM     11  C   UNL     1      10.529  16.895  22.544  0.00  0.00    +0.000 A 
ATOM     12  C   UNL     1      11.276  17.380  21.471  0.00  0.00    +0.000 A 
ATOM     13  C   UNL     1      11.591  16.536  20.408  0.00  0.00    +0.000 A 
ATOM     14  C   UNL     1      11.152  15.206  20.410  0.00  0.00    +0.000 A 
ATOM     15  C   UNL     1      11.493  14.334  19.269  0.00  0.00    +0.000 C 
ATOM     16  O   UNL     1      12.288  14.747  18.440  0.00  0.00    +0.000 OA
ENDROOT
BRANCH   3  17
ATOM     17  O   UNL     1      11.657  12.635  16.936  0.00  0.00    +0.000 OA
ATOM     18  H   UNL     1      12.017  11.889  16.432  0.00  0.00    +0.000 HD
ENDBRANCH   3  17
BRANCH   1  19
ATOM     19  O   UNL     1       8.921   9.286  19.065  0.00  0.00    +0.000 OA
BRANCH  19  20
ATOM     20  C   UNL     1       8.134   8.996  17.908  0.00  0.00    +0.000 C 
BRANCH  20  21
ATOM     21  C   UNL     1       7.862   7.501  17.876  0.00  0.00    +0.000 C 
BRANCH  21  22
ATOM     22  C   UNL     1       6.706   7.147  16.933  0.00  0.00    +0.000 C 
BRANCH  22  28
ATOM     23  C   UNL     1       3.866   3.635  19.025  0.00  0.00    +0.000 C 
ATOM     24  O   UNL     1       4.269   2.947  19.953  0.00  0.00    +0.000 OA
ATOM     25  N   UNL     1       4.577   4.679  18.474  0.00  0.00    +0.000 N 
ATOM     26  C   UNL     1       5.925   4.952  18.956  0.00  0.00    +0.000 C 
ATOM     27  C   UNL     1       6.950   4.864  17.806  0.00  0.00    +0.000 C 
ATOM     28  N   UNL     1       6.614   5.705  16.630  0.00  0.00    +0.000 NA
ATOM     29  C   UNL     1       5.252   5.326  16.172  0.00  0.00    +0.000 C 
ATOM     30  C   UNL     1       4.167   5.408  17.269  0.00  0.00    +0.000 C 
BRANCH  23  31
ATOM     31  O   UNL     1       2.704   3.403  18.361  0.00  0.00    +0.000 OA
BRANCH  31  33
ATOM     32  C   UNL     1       0.687   2.208  18.758  0.00  0.00    +0.000 C 
ATOM     33  C   UNL     1       2.181   2.080  18.523  0.00  0.00    +0.000 C 
ENDBRANCH  31  33
ENDBRANCH  23  31
ENDBRANCH  22  28
ENDBRANCH  21  22
ENDBRANCH  20  21
ENDBRANCH  19  20
ENDBRANCH   1  19
TORSDOF 8
ENDMDL
MODEL 5
REMARK VINA RESULT:      -8.1      5.637      9.445
REMARK  Name = 
REMARK  9 active torsions:
REMARK  status: ('A' for Active; 'I' for Inactive)
REMARK    1  A    between atoms: C_1  and  C_2
REMARK    2  A    between atoms: C_2  and  O_3
REMARK    3  A    between atoms: O_3  and  C_4
REMARK    4  A    between atoms: N_9  and  C_10
REMARK    5  A    between atoms: C_10  and  C_11
REMARK    6  A    between atoms: C_11  and  C_12
REMARK    7  A    between atoms: C_12  and  O_13
REMARK    8  A    between atoms: O_13  and  C_14
REMARK    9  A    between atoms: C_16  and  O_17
REMARK                            x       y       z     vdW  Elec       q    Type
REMARK                         _______ _______ _______ _____ _____    ______ ____
ROOT
ATOM      1  C   UNL     1       6.823   6.300  16.873  0.00  0.00    +0.000 A 
ATOM      2  C   UNL     1       6.925   5.062  16.241  0.00  0.00    +0.000 A 
ATOM      3  C   UNL     1       5.939   4.093  16.427  0.00  0.00    +0.000 A 
ATOM      4  C   UNL     1       4.833   4.344  17.248  0.00  0.00    +0.000 A 
ATOM      5  C   UNL     1       4.729   5.590  17.875  0.00  0.00    +0.000 A 
ATOM      6  C   UNL     1       5.716   6.567  17.678  0.00  0.00    +0.000 A 
ATOM      7  C   UNL     1       3.603   5.888  18.785  0.00  0.00    +0.000 C 
ATOM      8  O   UNL     1       3.459   7.007  19.258  0.00  0.00    +0.000 OA
ATOM      9  C   UNL     1       2.670   4.804  19.147  0.00  0.00    +0.000 A 
ATOM     10  C   UNL     1       1.698   5.015  20.131  0.00  0.00    +0.000 A 
ATOM     11  C   UNL     1       0.832   3.980  20.491  0.00  0.00    +0.000 A 
ATOM     12  C   UNL     1       0.927   2.738  19.864  0.00  0.00    +0.000 A 
ATOM     13  C   UNL     1       1.888   2.532  18.876  0.00  0.00    +0.000 A 
ATOM     14  C   UNL     1       2.764   3.564  18.519  0.00  0.00    +0.000 A 
ATOM     15  C   UNL     1       3.778   3.319  17.475  0.00  0.00    +0.000 C 
ATOM     16  O   UNL     1       3.713   2.281  16.836  0.00  0.00    +0.000 OA
ENDROOT
BRANCH   3  17
ATOM     17  O   UNL     1       6.103   2.884  15.812  0.00  0.00    +0.000 OA
ATOM     18  H   UNL     1       6.083   2.160  16.458  0.00  0.00    +0.000 HD
ENDBRANCH   3  17
BRANCH   1  19
ATOM     19  O   UNL     1       7.747   7.308  16.791  0.00  0.00    +0.000 OA
BRANCH  19  20
ATOM     20  C   UNL     1       7.425   8.505  17.503  0.00  0.00    +0.000 C 
BRANCH  20  21
ATOM     21  C   UNL     1       8.621   8.890  18.358  0.00  0.00    +0.000 C 
BRANCH  21  22
ATOM     22  C   UNL     1       8.802  10.410  18.442  0.00  0.00    +0.000 C 
BRANCH  22  28
ATOM     23  C   UNL     1      10.679  14.972  19.108  0.00  0.00    +0.000 C 
ATOM     24  O   UNL     1      11.278  15.560  18.217  0.00  0.00    +0.000 OA
ATOM     25  N   UNL     1      10.063  13.751  18.946  0.00  0.00    +0.000 N 
ATOM     26  C   UNL     1      10.180  13.060  17.668  0.00  0.00    +0.000 C 
ATOM     27  C   UNL     1      10.825  11.671  17.848  0.00  0.00    +0.000 C 
ATOM     28  N   UNL     1      10.156  10.819  18.864  0.00  0.00    +0.000 NA
ATOM     29  C   UNL     1      10.127  11.574  20.144  0.00  0.00    +0.000 C 
ATOM     30  C   UNL     1       9.477  12.973  20.043  0.00  0.00    +0.000 C 
BRANCH  23  31
ATOM     31  O   UNL     1      10.623  15.405  20.394  0.00  0.00    +0.000 OA
BRANCH  31  33
ATOM     32  C   UNL     1      10.408  17.293  21.824  0.00  0.00    +0.000 C 
ATOM     33  C   UNL     1       9.866  16.606  20.584  0.00  0.00    +0.000 C 
ENDBRANCH  31  33
ENDBRANCH  23  31
ENDBRANCH  22  28
ENDBRANCH  21  22
ENDBRANCH  20  21
ENDBRANCH  19  20
ENDBRANCH   1  19
TORSDOF 8
ENDMDL
MODEL 6
REMARK VINA RESULT:      -8.0      1.553      2.144
REMARK  Name = 
REMARK  9 active torsions:
REMARK  status: ('A' for Active; 'I' for Inactive)
REMARK    1  A    between atoms: C_1  and  C_2
REMARK    2  A    between atoms: C_2  and  O_3
REMARK    3  A    between atoms: O_3  and  C_4
REMARK    4  A    between atoms: N_9  and  C_10
REMARK    5  A    between atoms: C_10  and  C_11
REMARK    6  A    between atoms: C_11  and  C_12
REMARK    7  A    between atoms: C_12  and  O_13
REMARK    8  A    between atoms: O_13  and  C_14
REMARK    9  A    between atoms: C_16  and  O_17
REMARK                            x       y       z     vdW  Elec       q    Type
REMARK                         _______ _______ _______ _____ _____    ______ ____
ROOT
ATOM      1  C   UNL     1       1.524   8.037  20.622  0.00  0.00    +0.000 A 
ATOM      2  C   UNL     1       1.449   8.537  19.323  0.00  0.00    +0.000 A 
ATOM      3  C   UNL     1       0.774   9.730  19.065  0.00  0.00    +0.000 A 
ATOM      4  C   UNL     1       0.164  10.447  20.102  0.00  0.00    +0.000 A 
ATOM      5  C   UNL     1       0.247   9.948  21.406  0.00  0.00    +0.000 A 
ATOM      6  C   UNL     1       0.935   8.753  21.664  0.00  0.00    +0.000 A 
ATOM      7  C   UNL     1      -0.416  10.645  22.528  0.00  0.00    +0.000 C 
ATOM      8  O   UNL     1      -0.265  10.263  23.680  0.00  0.00    +0.000 OA
ATOM      9  C   UNL     1      -1.299  11.790  22.235  0.00  0.00    +0.000 A 
ATOM     10  C   UNL     1      -2.067  12.361  23.256  0.00  0.00    +0.000 A 
ATOM     11  C   UNL     1      -2.921  13.430  22.973  0.00  0.00    +0.000 A 
ATOM     12  C   UNL     1      -3.002  13.936  21.677  0.00  0.00    +0.000 A 
ATOM     13  C   UNL     1      -2.229  13.374  20.662  0.00  0.00    +0.000 A 
ATOM     14  C   UNL     1      -1.379  12.296  20.940  0.00  0.00    +0.000 A 
ATOM     15  C   UNL     1      -0.575  11.713  19.848  0.00  0.00    +0.000 C 
ATOM     16  O   UNL     1      -0.548  12.294  18.774  0.00  0.00    +0.000 OA
ENDROOT
BRANCH   3  17
ATOM     17  O   UNL     1       0.700  10.159  17.770  0.00  0.00    +0.000 OA
ATOM     18  H   UNL     1       1.582  10.210  17.370  0.00  0.00    +0.000 HD
ENDBRANCH   3  17
BRANCH   1  19
ATOM     19  O   UNL     1       2.126   6.861  20.982  0.00  0.00    +0.000 OA
BRANCH  19  20
ATOM     20  C   UNL     1       1.339   5.681  20.804  0.00  0.00    +0.000 C 
BRANCH  20  21
ATOM     21  C   UNL     1       2.270   4.531  20.457  0.00  0.00    +0.000 C 
BRANCH  21  22
ATOM     22  C   UNL     1       2.883   4.688  19.061  0.00  0.00    +0.000 C 
BRANCH  22  28
ATOM     23  C   UNL     1       6.963   4.807  16.211  0.00  0.00    +0.000 C 
ATOM     24  O   UNL     1       8.033   4.352  16.596  0.00  0.00    +0.000 OA
ATOM     25  N   UNL     1       5.787   4.716  16.923  0.00  0.00    +0.000 N 
ATOM     26  C   UNL     1       5.805   4.115  18.250  0.00  0.00    +0.000 C 
ATOM     27  C   UNL     1       5.291   5.108  19.313  0.00  0.00    +0.000 C 
ATOM     28  N   UNL     1       3.962   5.694  19.002  0.00  0.00    +0.000 NA
ATOM     29  C   UNL     1       4.048   6.330  17.662  0.00  0.00    +0.000 C 
ATOM     30  C   UNL     1       4.540   5.388  16.540  0.00  0.00    +0.000 C 
BRANCH  23  31
ATOM     31  O   UNL     1       6.817   5.537  15.076  0.00  0.00    +0.000 OA
BRANCH  31  33
ATOM     32  C   UNL     1       8.110   5.582  13.081  0.00  0.00    +0.000 C 
ATOM     33  C   UNL     1       7.065   4.812  13.867  0.00  0.00    +0.000 C 
ENDBRANCH  31  33
ENDBRANCH  23  31
ENDBRANCH  22  28
ENDBRANCH  21  22
ENDBRANCH  20  21
ENDBRANCH  19  20
ENDBRANCH   1  19
TORSDOF 8
ENDMDL
MODEL 7
REMARK VINA RESULT:      -7.9      1.605      2.432
REMARK  Name = 
REMARK  9 active torsions:
REMARK  status: ('A' for Active; 'I' for Inactive)
REMARK    1  A    between atoms: C_1  and  C_2
REMARK    2  A    between atoms: C_2  and  O_3
REMARK    3  A    between atoms: O_3  and  C_4
REMARK    4  A    between atoms: N_9  and  C_10
REMARK    5  A    between atoms: C_10  and  C_11
REMARK    6  A    between atoms: C_11  and  C_12
REMARK    7  A    between atoms: C_12  and  O_13
REMARK    8  A    between atoms: O_13  and  C_14
REMARK    9  A    between atoms: C_16  and  O_17
REMARK                            x       y       z     vdW  Elec       q    Type
REMARK                         _______ _______ _______ _____ _____    ______ ____
ROOT
ATOM      1  C   UNL     1       1.326   8.276  20.636  0.00  0.00    +0.000 A 
ATOM      2  C   UNL     1       1.325   8.801  19.345  0.00  0.00    +0.000 A 
ATOM      3  C   UNL     1       0.636   9.981  19.064  0.00  0.00    +0.000 A 
ATOM      4  C   UNL     1      -0.063  10.659  20.070  0.00  0.00    +0.000 A 
ATOM      5  C   UNL     1      -0.055  10.135  21.367  0.00  0.00    +0.000 A 
ATOM      6  C   UNL     1       0.647   8.954  21.649  0.00  0.00    +0.000 A 
ATOM      7  C   UNL     1      -0.814  10.790  22.453  0.00  0.00    +0.000 C 
ATOM      8  O   UNL     1      -0.730  10.388  23.606  0.00  0.00    +0.000 OA
ATOM      9  C   UNL     1      -1.706  11.917  22.123  0.00  0.00    +0.000 A 
ATOM     10  C   UNL     1      -2.558  12.446  23.099  0.00  0.00    +0.000 A 
ATOM     11  C   UNL     1      -3.420  13.496  22.778  0.00  0.00    +0.000 A 
ATOM     12  C   UNL     1      -3.428  14.028  21.489  0.00  0.00    +0.000 A 
ATOM     13  C   UNL     1      -2.572  13.508  20.520  0.00  0.00    +0.000 A 
ATOM     14  C   UNL     1      -1.712  12.448  20.835  0.00  0.00    +0.000 A 
ATOM     15  C   UNL     1      -0.819  11.910  19.790  0.00  0.00    +0.000 C 
ATOM     16  O   UNL     1      -0.736  12.514  18.732  0.00  0.00    +0.000 OA
ENDROOT
BRANCH   3  17
ATOM     17  O   UNL     1       0.638  10.435  17.775  0.00  0.00    +0.000 OA
ATOM     18  H   UNL     1       1.519  10.749  17.519  0.00  0.00    +0.000 HD
ENDBRANCH   3  17
BRANCH   1  19
ATOM     19  O   UNL     1       1.935   7.109  21.014  0.00  0.00    +0.000 OA
BRANCH  19  20
ATOM     20  C   UNL     1       1.840   6.029  20.082  0.00  0.00    +0.000 C 
BRANCH  20  21
ATOM     21  C   UNL     1       2.729   4.897  20.568  0.00  0.00    +0.000 C 
BRANCH  21  22
ATOM     22  C   UNL     1       3.717   4.438  19.490  0.00  0.00    +0.000 C 
BRANCH  22  28
ATOM     23  C   UNL     1       6.696   4.538  15.503  0.00  0.00    +0.000 C 
ATOM     24  O   UNL     1       7.524   5.426  15.338  0.00  0.00    +0.000 OA
ATOM     25  N   UNL     1       5.915   4.415  16.631  0.00  0.00    +0.000 N 
ATOM     26  C   UNL     1       6.003   5.432  17.671  0.00  0.00    +0.000 C 
ATOM     27  C   UNL     1       4.630   6.091  17.917  0.00  0.00    +0.000 C 
ATOM     28  N   UNL     1       3.537   5.125  18.196  0.00  0.00    +0.000 NA
ATOM     29  C   UNL     1       3.481   4.161  17.066  0.00  0.00    +0.000 C 
ATOM     30  C   UNL     1       4.821   3.448  16.772  0.00  0.00    +0.000 C 
BRANCH  23  31
ATOM     31  O   UNL     1       6.381   3.614  14.560  0.00  0.00    +0.000 OA
BRANCH  31  33
ATOM     32  C   UNL     1       6.065   3.166  12.246  0.00  0.00    +0.000 C 
ATOM     33  C   UNL     1       5.803   4.155  13.367  0.00  0.00    +0.000 C 
ENDBRANCH  31  33
ENDBRANCH  23  31
ENDBRANCH  22  28
ENDBRANCH  21  22
ENDBRANCH  20  21
ENDBRANCH  19  20
ENDBRANCH   1  19
TORSDOF 8
ENDMDL
MODEL 8
REMARK VINA RESULT:      -7.9      1.188      1.365
REMARK  Name = 
REMARK  9 active torsions:
REMARK  status: ('A' for Active; 'I' for Inactive)
REMARK    1  A    between atoms: C_1  and  C_2
REMARK    2  A    between atoms: C_2  and  O_3
REMARK    3  A    between atoms: O_3  and  C_4
REMARK    4  A    between atoms: N_9  and  C_10
REMARK    5  A    between atoms: C_10  and  C_11
REMARK    6  A    between atoms: C_11  and  C_12
REMARK    7  A    between atoms: C_12  and  O_13
REMARK    8  A    between atoms: O_13  and  C_14
REMARK    9  A    between atoms: C_16  and  O_17
REMARK                            x       y       z     vdW  Elec       q    Type
REMARK                         _______ _______ _______ _____ _____    ______ ____
ROOT
ATOM      1  C   UNL     1       1.823   7.998  19.426  0.00  0.00    +0.000 A 
ATOM      2  C   UNL     1       2.108   8.951  18.450  0.00  0.00    +0.000 A 
ATOM      3  C   UNL     1       1.696  10.274  18.615  0.00  0.00    +0.000 A 
ATOM      4  C   UNL     1       0.993  10.667  19.760  0.00  0.00    +0.000 A 
ATOM      5  C   UNL     1       0.713   9.711  20.741  0.00  0.00    +0.000 A 
ATOM      6  C   UNL     1       1.138   8.384  20.578  0.00  0.00    +0.000 A 
ATOM      7  C   UNL     1      -0.064  10.067  21.947  0.00  0.00    +0.000 C 
ATOM      8  O   UNL     1      -0.226   9.257  22.849  0.00  0.00    +0.000 OA
ATOM      9  C   UNL     1      -0.676  11.406  22.033  0.00  0.00    +0.000 A 
ATOM     10  C   UNL     1      -1.551  11.711  23.081  0.00  0.00    +0.000 A 
ATOM     11  C   UNL     1      -2.150  12.971  23.147  0.00  0.00    +0.000 A 
ATOM     12  C   UNL     1      -1.870  13.931  22.176  0.00  0.00    +0.000 A 
ATOM     13  C   UNL     1      -0.990  13.631  21.138  0.00  0.00    +0.000 A 
ATOM     14  C   UNL     1      -0.395  12.365  21.063  0.00  0.00    +0.000 A 
ATOM     15  C   UNL     1       0.529  12.069  19.949  0.00  0.00    +0.000 C 
ATOM     16  O   UNL     1       0.876  12.987  19.224  0.00  0.00    +0.000 OA
ENDROOT
BRANCH   3  17
ATOM     17  O   UNL     1       1.972  11.162  17.614  0.00  0.00    +0.000 OA
ATOM     18  H   UNL     1       2.008  12.069  17.955  0.00  0.00    +0.000 HD
ENDBRANCH   3  17
BRANCH   1  19
ATOM     19  O   UNL     1       2.145   6.669  19.350  0.00  0.00    +0.000 OA
BRANCH  19  20
ATOM     20  C   UNL     1       1.641   5.847  20.405  0.00  0.00    +0.000 C 
BRANCH  20  21
ATOM     21  C   UNL     1       2.350   4.504  20.348  0.00  0.00    +0.000 C 
BRANCH  21  22
ATOM     22  C   UNL     1       2.719   4.110  18.913  0.00  0.00    +0.000 C 
BRANCH  22  28
ATOM     23  C   UNL     1       6.772   6.108  16.827  0.00  0.00    +0.000 C 
ATOM     24  O   UNL     1       7.071   5.892  15.659  0.00  0.00    +0.000 OA
ATOM     25  N   UNL     1       5.616   5.655  17.423  0.00  0.00    +0.000 N 
ATOM     26  C   UNL     1       4.713   4.800  16.662  0.00  0.00    +0.000 C 
ATOM     27  C   UNL     1       4.511   3.444  17.369  0.00  0.00    +0.000 C 
ATOM     28  N   UNL     1       4.083   3.559  18.787  0.00  0.00    +0.000 NA
ATOM     29  C   UNL     1       5.082   4.397  19.498  0.00  0.00    +0.000 C 
ATOM     30  C   UNL     1       5.324   5.781  18.855  0.00  0.00    +0.000 C 
BRANCH  23  31
ATOM     31  O   UNL     1       7.584   6.747  17.708  0.00  0.00    +0.000 OA
BRANCH  31  33
ATOM     32  C   UNL     1       8.628   8.706  18.562  0.00  0.00    +0.000 C 
ATOM     33  C   UNL     1       7.756   8.145  17.453  0.00  0.00    +0.000 C 
ENDBRANCH  31  33
ENDBRANCH  23  31
ENDBRANCH  22  28
ENDBRANCH  21  22
ENDBRANCH  20  21
ENDBRANCH  19  20
ENDBRANCH   1  19
TORSDOF 8
ENDMDL
MODEL 9
REMARK VINA RESULT:      -7.9      6.539      8.668
REMARK  Name = 
REMARK  9 active torsions:
REMARK  status: ('A' for Active; 'I' for Inactive)
REMARK    1  A    between atoms: C_1  and  C_2
REMARK    2  A    between atoms: C_2  and  O_3
REMARK    3  A    between atoms: O_3  and  C_4
REMARK    4  A    between atoms: N_9  and  C_10
REMARK    5  A    between atoms: C_10  and  C_11
REMARK    6  A    between atoms: C_11  and  C_12
REMARK    7  A    between atoms: C_12  and  O_13
REMARK    8  A    between atoms: O_13  and  C_14
REMARK    9  A    between atoms: C_16  and  O_17
REMARK                            x       y       z     vdW  Elec       q    Type
REMARK                         _______ _______ _______ _____ _____    ______ ____
ROOT
ATOM      1  C   UNL     1       9.314  10.299  19.088  0.00  0.00    +0.000 A 
ATOM      2  C   UNL     1      10.007  10.735  17.960  0.00  0.00    +0.000 A 
ATOM      3  C   UNL     1      10.664  11.965  17.969  0.00  0.00    +0.000 A 
ATOM      4  C   UNL     1      10.641  12.781  19.106  0.00  0.00    +0.000 A 
ATOM      5  C   UNL     1       9.952  12.339  20.240  0.00  0.00    +0.000 A 
ATOM      6  C   UNL     1       9.301  11.096  20.232  0.00  0.00    +0.000 A 
ATOM      7  C   UNL     1       9.863  13.183  21.450  0.00  0.00    +0.000 C 
ATOM      8  O   UNL     1       9.344  12.758  22.473  0.00  0.00    +0.000 OA
ATOM      9  C   UNL     1      10.378  14.564  21.397  0.00  0.00    +0.000 A 
ATOM     10  C   UNL     1      10.158  15.435  22.470  0.00  0.00    +0.000 A 
ATOM     11  C   UNL     1      10.624  16.751  22.408  0.00  0.00    +0.000 A 
ATOM     12  C   UNL     1      11.318  17.195  21.284  0.00  0.00    +0.000 A 
ATOM     13  C   UNL     1      11.546  16.324  20.220  0.00  0.00    +0.000 A 
ATOM     14  C   UNL     1      11.073  15.007  20.274  0.00  0.00    +0.000 A 
ATOM     15  C   UNL     1      11.321  14.105  19.132  0.00  0.00    +0.000 C 
ATOM     16  O   UNL     1      12.076  14.482  18.249  0.00  0.00    +0.000 OA
ENDROOT
BRANCH   3  17
ATOM     17  O   UNL     1      11.299  12.362  16.826  0.00  0.00    +0.000 OA
ATOM     18  H   UNL     1      12.248  12.162  16.869  0.00  0.00    +0.000 HD
ENDBRANCH   3  17
BRANCH   1  19
ATOM     19  O   UNL     1       8.605   9.130  19.178  0.00  0.00    +0.000 OA
BRANCH  19  20
ATOM     20  C   UNL     1       8.204   8.551  17.934  0.00  0.00    +0.000 C 
BRANCH  20  21
ATOM     21  C   UNL     1       7.987   7.062  18.145  0.00  0.00    +0.000 C 
BRANCH  21  22
ATOM     22  C   UNL     1       6.885   6.506  17.235  0.00  0.00    +0.000 C 
BRANCH  22  28
ATOM     23  C   UNL     1       3.292   3.110  17.807  0.00  0.00    +0.000 C 
ATOM     24  O   UNL     1       2.426   2.937  16.958  0.00  0.00    +0.000 OA
ATOM     25  N   UNL     1       4.358   3.970  17.655  0.00  0.00    +0.000 N 
ATOM     26  C   UNL     1       4.442   4.791  16.455  0.00  0.00    +0.000 C 
ATOM     27  C   UNL     1       4.474   6.291  16.814  0.00  0.00    +0.000 C 
ATOM     28  N   UNL     1       5.528   6.656  17.795  0.00  0.00    +0.000 NA
ATOM     29  C   UNL     1       5.336   5.813  19.004  0.00  0.00    +0.000 C 
ATOM     30  C   UNL     1       5.311   4.294  18.722  0.00  0.00    +0.000 C 
BRANCH  23  31
ATOM     31  O   UNL     1       3.265   2.544  19.041  0.00  0.00    +0.000 OA
BRANCH  31  33
ATOM     32  C   UNL     1       1.401   3.444  20.213  0.00  0.00    +0.000 C 
ATOM     33  C   UNL     1       1.955   2.215  19.515  0.00  0.00    +0.000 C 
ENDBRANCH  31  33
ENDBRANCH  23  31
ENDBRANCH  22  28
ENDBRANCH  21  22
ENDBRANCH  20  21
ENDBRANCH  19  20
ENDBRANCH   1  19
TORSDOF 8
ENDMDL
