MODEL 1
REMARK VINA RESULT:      -8.5      0.000      0.000
REMARK  Name = 
REMARK  6 active torsions:
REMARK  status: ('A' for Active; 'I' for Inactive)
REMARK    1  A    between atoms: C_2  and  C_3
REMARK    2  A    between atoms: C_6  and  C_7
REMARK    3  A    between atoms: C_7  and  O_8
REMARK    4  A    between atoms: O_8  and  C_9
REMARK    5  A    between atoms: N_20  and  C_21
REMARK    6  A    between atoms: C_21  and  C_22
REMARK                            x       y       z     vdW  Elec       q    Type
REMARK                         _______ _______ _______ _____ _____    ______ ____
ROOT
ATOM      1  O   UNL     1       2.373   9.249  17.514  0.00  0.00    +0.000 OA
ATOM      2  C   UNL     1       1.873   8.754  18.525  0.00  0.00    +0.000 C 
ATOM      3  N   UNL     1       1.116   9.537  19.400  0.00  0.00    +0.000 N 
ATOM      4  C   UNL     1       0.585   9.105  20.700  0.00  0.00    +0.000 C 
ATOM      5  C   UNL     1       0.834  10.154  21.809  0.00  0.00    +0.000 C 
ATOM      6  N   UNL     1       0.462  11.544  21.456  0.00  0.00    +0.000 NA
ATOM      7  C   UNL     1       1.139  11.886  20.184  0.00  0.00    +0.000 C 
ATOM      8  C   UNL     1       0.825  10.923  19.028  0.00  0.00    +0.000 C 
ENDROOT
BRANCH   2   9
ATOM      9  C   UNL     1       2.104   7.357  18.848  0.00  0.00    +0.000 A 
ATOM     10  C   UNL     1       2.175   6.744  20.080  0.00  0.00    +0.000 A 
ATOM     11  C   UNL     1       2.478   5.388  19.845  0.00  0.00    +0.000 A 
ATOM     12  C   UNL     1       2.631   5.253  18.481  0.00  0.00    +0.000 A 
ATOM     13  O   UNL     1       2.411   6.450  17.867  0.00  0.00    +0.000 OA
BRANCH  12  14
ATOM     14  C   UNL     1       3.098   4.123  17.633  0.00  0.00    +0.000 C 
BRANCH  14  15
ATOM     15  O   UNL     1       4.342   3.661  18.155  0.00  0.00    +0.000 OA
BRANCH  15  16
ATOM     16  C   UNL     1       5.443   4.457  17.941  0.00  0.00    +0.000 A 
ATOM     17  C   UNL     1       6.023   4.934  19.129  0.00  0.00    +0.000 A 
ATOM     18  C   UNL     1       7.107   5.822  19.106  0.00  0.00    +0.000 A 
ATOM     19  C   UNL     1       7.626   6.248  17.890  0.00  0.00    +0.000 A 
ATOM     20  C   UNL     1       7.058   5.793  16.704  0.00  0.00    +0.000 A 
ATOM     21  C   UNL     1       5.963   4.913  16.719  0.00  0.00    +0.000 A 
ATOM     22 CL   UNL     1       5.307   4.563  15.159  0.00  0.00    +0.000 Cl
ENDBRANCH  15  16
ENDBRANCH  14  15
ENDBRANCH  12  14
ENDBRANCH   2   9
BRANCH   6  23
ATOM     23  C   UNL     1      -1.002  11.675  21.388  0.00  0.00    +0.000 C 
BRANCH  23  24
ATOM     24  C   UNL     1      -1.617  12.507  22.493  0.00  0.00    +0.000 A 
ATOM     25  C   UNL     1      -2.958  12.295  22.886  0.00  0.00    +0.000 A 
ATOM     26  C   UNL     1      -3.562  13.109  23.850  0.00  0.00    +0.000 A 
ATOM     27  C   UNL     1      -2.804  14.117  24.405  0.00  0.00    +0.000 A 
ATOM     28  C   UNL     1      -1.494  14.316  24.047  0.00  0.00    +0.000 A 
ATOM     29  C   UNL     1      -0.870  13.531  23.101  0.00  0.00    +0.000 A 
ATOM     30  O   UNL     1      -0.925  15.359  24.710  0.00  0.00    +0.000 OA
ATOM     31  C   UNL     1      -2.043  15.816  25.500  0.00  0.00    +0.000 C 
ATOM     32  O   UNL     1      -3.231  15.016  25.332  0.00  0.00    +0.000 OA
ENDBRANCH  23  24
ENDBRANCH   6  23
TORSDOF 6
ENDMDL
MODEL 2
REMARK VINA RESULT:      -8.5      1.024      1.070
REMARK  Name = 
REMARK  6 active torsions:
REMARK  status: ('A' for Active; 'I' for Inactive)
REMARK    1  A    between atoms: C_2  and  C_3
REMARK    2  A    between atoms: C_6  and  C_7
REMARK    3  A    between atoms: C_7  and  O_8
REMARK    4  A    between atoms: O_8  and  C_9
REMARK    5  A    between atoms: N_20  and  C_21
REMARK    6  A    between atoms: C_21  and  C_22
REMARK                            x       y       z     vdW  Elec       q    Type
REMARK                         _______ _______ _______ _____ _____    ______ ____
ROOT
ATOM      1  O   UNL     1       2.332   8.619  18.212  0.00  0.00    +0.000 OA
ATOM      2  C   UNL     1       1.876   8.163  19.261  0.00  0.00    +0.000 C 
ATOM      3  N   UNL     1       1.102   8.963  20.106  0.00  0.00    +0.000 N 
ATOM      4  C   UNL     1       0.618   8.587  21.440  0.00  0.00    +0.000 C 
ATOM      5  C   UNL     1       0.842   9.709  22.481  0.00  0.00    +0.000 C 
ATOM      6  N   UNL     1       0.402  11.059  22.056  0.00  0.00    +0.000 NA
ATOM      7  C   UNL     1       1.038  11.354  20.751  0.00  0.00    +0.000 C 
ATOM      8  C   UNL     1       0.743  10.312  19.661  0.00  0.00    +0.000 C 
ENDROOT
BRANCH   2   9
ATOM      9  C   UNL     1       2.174   6.799  19.659  0.00  0.00    +0.000 A 
ATOM     10  C   UNL     1       1.577   6.020  20.626  0.00  0.00    +0.000 A 
ATOM     11  C   UNL     1       2.279   4.797  20.657  0.00  0.00    +0.000 A 
ATOM     12  C   UNL     1       3.305   4.914  19.743  0.00  0.00    +0.000 A 
ATOM     13  O   UNL     1       3.251   6.133  19.135  0.00  0.00    +0.000 OA
BRANCH  12  14
ATOM     14  C   UNL     1       4.467   4.040  19.425  0.00  0.00    +0.000 C 
BRANCH  14  15
ATOM     15  O   UNL     1       4.936   4.382  18.122  0.00  0.00    +0.000 OA
BRANCH  15  16
ATOM     16  C   UNL     1       5.945   5.313  18.046  0.00  0.00    +0.000 A 
ATOM     17  C   UNL     1       6.889   5.195  19.081  0.00  0.00    +0.000 A 
ATOM     18  C   UNL     1       7.946   6.105  19.211  0.00  0.00    +0.000 A 
ATOM     19  C   UNL     1       8.073   7.151  18.306  0.00  0.00    +0.000 A 
ATOM     20  C   UNL     1       7.143   7.287  17.280  0.00  0.00    +0.000 A 
ATOM     21  C   UNL     1       6.073   6.387  17.150  0.00  0.00    +0.000 A 
ATOM     22 CL   UNL     1       4.946   6.791  15.904  0.00  0.00    +0.000 Cl
ENDBRANCH  15  16
ENDBRANCH  14  15
ENDBRANCH  12  14
ENDBRANCH   2   9
BRANCH   6  23
ATOM     23  C   UNL     1      -1.067  11.123  22.014  0.00  0.00    +0.000 C 
BRANCH  23  24
ATOM     24  C   UNL     1      -1.680  12.199  22.884  0.00  0.00    +0.000 A 
ATOM     25  C   UNL     1      -2.995  12.053  23.382  0.00  0.00    +0.000 A 
ATOM     26  C   UNL     1      -3.602  13.074  24.121  0.00  0.00    +0.000 A 
ATOM     27  C   UNL     1      -2.873  14.221  24.349  0.00  0.00    +0.000 A 
ATOM     28  C   UNL     1      -1.587  14.364  23.888  0.00  0.00    +0.000 A 
ATOM     29  C   UNL     1      -0.961  13.376  23.158  0.00  0.00    +0.000 A 
ATOM     30  O   UNL     1      -1.045  15.567  24.219  0.00  0.00    +0.000 OA
ATOM     31  C   UNL     1      -2.154  16.180  24.910  0.00  0.00    +0.000 C 
ATOM     32  O   UNL     1      -3.308  15.321  25.020  0.00  0.00    +0.000 OA
ENDBRANCH  23  24
ENDBRANCH   6  23
TORSDOF 6
ENDMDL
MODEL 3
REMARK VINA RESULT:      -8.4      1.033      1.510
REMARK  Name = 
REMARK  6 active torsions:
REMARK  status: ('A' for Active; 'I' for Inactive)
REMARK    1  A    between atoms: C_2  and  C_3
REMARK    2  A    between atoms: C_6  and  C_7
REMARK    3  A    between atoms: C_7  and  O_8
REMARK    4  A    between atoms: O_8  and  C_9
REMARK    5  A    between atoms: N_20  and  C_21
REMARK    6  A    between atoms: C_21  and  C_22
REMARK                            x       y       z     vdW  Elec       q    Type
REMARK                         _______ _______ _______ _____ _____    ______ ____
ROOT
ATOM      1  O   UNL     1       2.397   9.050  17.507  0.00  0.00    +0.000 OA
ATOM      2  C   UNL     1       1.895   8.622  18.547  0.00  0.00    +0.000 C 
ATOM      3  N   UNL     1       1.140   9.461  19.370  0.00  0.00    +0.000 N 
ATOM      4  C   UNL     1       0.607   9.116  20.694  0.00  0.00    +0.000 C 
ATOM      5  C   UNL     1       0.858  10.232  21.735  0.00  0.00    +0.000 C 
ATOM      6  N   UNL     1       0.491  11.598  21.293  0.00  0.00    +0.000 NA
ATOM      7  C   UNL     1       1.170  11.856  20.002  0.00  0.00    +0.000 C 
ATOM      8  C   UNL     1       0.854  10.822  18.910  0.00  0.00    +0.000 C 
ENDROOT
BRANCH   2   9
ATOM      9  C   UNL     1       2.121   7.247  18.960  0.00  0.00    +0.000 A 
ATOM     10  C   UNL     1       2.075   6.693  20.220  0.00  0.00    +0.000 A 
ATOM     11  C   UNL     1       2.431   5.336  20.082  0.00  0.00    +0.000 A 
ATOM     12  C   UNL     1       2.730   5.144  18.750  0.00  0.00    +0.000 A 
ATOM     13  O   UNL     1       2.549   6.305  18.060  0.00  0.00    +0.000 OA
BRANCH  12  14
ATOM     14  C   UNL     1       3.308   3.990  18.011  0.00  0.00    +0.000 C 
BRANCH  14  15
ATOM     15  O   UNL     1       4.724   4.016  18.183  0.00  0.00    +0.000 OA
BRANCH  15  16
ATOM     16  C   UNL     1       5.480   4.344  17.083  0.00  0.00    +0.000 A 
ATOM     17  C   UNL     1       4.887   3.966  15.867  0.00  0.00    +0.000 A 
ATOM     18  C   UNL     1       5.547   4.150  14.645  0.00  0.00    +0.000 A 
ATOM     19  C   UNL     1       6.815   4.716  14.622  0.00  0.00    +0.000 A 
ATOM     20  C   UNL     1       7.421   5.089  15.818  0.00  0.00    +0.000 A 
ATOM     21  C   UNL     1       6.772   4.896  17.048  0.00  0.00    +0.000 A 
ATOM     22 CL   UNL     1       7.729   5.293  18.431  0.00  0.00    +0.000 Cl
ENDBRANCH  15  16
ENDBRANCH  14  15
ENDBRANCH  12  14
ENDBRANCH   2   9
BRANCH   6  23
ATOM     23  C   UNL     1      -0.972  11.729  21.216  0.00  0.00    +0.000 C 
BRANCH  23  24
ATOM     24  C   UNL     1      -1.599  12.527  22.339  0.00  0.00    +0.000 A 
ATOM     25  C   UNL     1      -2.967  12.368  22.653  0.00  0.00    +0.000 A 
ATOM     26  C   UNL     1      -3.576  13.157  23.635  0.00  0.00    +0.000 A 
ATOM     27  C   UNL     1      -2.796  14.086  24.287  0.00  0.00    +0.000 A 
ATOM     28  C   UNL     1      -1.459  14.233  24.005  0.00  0.00    +0.000 A 
ATOM     29  C   UNL     1      -0.831  13.471  23.043  0.00  0.00    +0.000 A 
ATOM     30  O   UNL     1      -0.871  15.201  24.757  0.00  0.00    +0.000 OA
ATOM     31  C   UNL     1      -2.002  15.674  25.519  0.00  0.00    +0.000 C 
ATOM     32  O   UNL     1      -3.221  14.952  25.246  0.00  0.00    +0.000 OA
ENDBRANCH  23  24
ENDBRANCH   6  23
TORSDOF 6
ENDMDL
MODEL 4
REMARK VINA RESULT:      -8.3      3.579     11.112
REMARK  Name = 
REMARK  6 active torsions:
REMARK  status: ('A' for Active; 'I' for Inactive)
REMARK    1  A    between atoms: C_2  and  C_3
REMARK    2  A    between atoms: C_6  and  C_7
REMARK    3  A    between atoms: C_7  and  O_8
REMARK    4  A    between atoms: O_8  and  C_9
REMARK    5  A    between atoms: N_20  and  C_21
REMARK    6  A    between atoms: C_21  and  C_22
REMARK                            x       y       z     vdW  Elec       q    Type
REMARK                         _______ _______ _______ _____ _____    ______ ____
ROOT
ATOM      1  O   UNL     1       0.941   9.907  18.571  0.00  0.00    +0.000 OA
ATOM      2  C   UNL     1       1.105   9.238  19.592  0.00  0.00    +0.000 C 
ATOM      3  N   UNL     1       1.917   8.101  19.573  0.00  0.00    +0.000 N 
ATOM      4  C   UNL     1       2.085   7.145  20.676  0.00  0.00    +0.000 C 
ATOM      5  C   UNL     1       1.993   5.678  20.197  0.00  0.00    +0.000 C 
ATOM      6  N   UNL     1       2.814   5.351  19.008  0.00  0.00    +0.000 NA
ATOM      7  C   UNL     1       2.477   6.323  17.941  0.00  0.00    +0.000 C 
ATOM      8  C   UNL     1       2.664   7.793  18.351  0.00  0.00    +0.000 C 
ENDROOT
BRANCH   2   9
ATOM      9  C   UNL     1       0.420   9.594  20.822  0.00  0.00    +0.000 A 
ATOM     10  C   UNL     1      -0.201   8.781  21.745  0.00  0.00    +0.000 A 
ATOM     11  C   UNL     1      -0.764   9.628  22.722  0.00  0.00    +0.000 A 
ATOM     12  C   UNL     1      -0.505  10.919  22.315  0.00  0.00    +0.000 A 
ATOM     13  O   UNL     1       0.210  10.908  21.155  0.00  0.00    +0.000 OA
BRANCH  12  14
ATOM     14  C   UNL     1      -0.961  12.240  22.826  0.00  0.00    +0.000 C 
BRANCH  14  15
ATOM     15  O   UNL     1      -1.493  12.981  21.729  0.00  0.00    +0.000 OA
BRANCH  15  16
ATOM     16  C   UNL     1      -2.815  12.772  21.417  0.00  0.00    +0.000 A 
ATOM     17  C   UNL     1      -3.030  12.511  20.053  0.00  0.00    +0.000 A 
ATOM     18  C   UNL     1      -4.323  12.348  19.536  0.00  0.00    +0.000 A 
ATOM     19  C   UNL     1      -5.422  12.447  20.380  0.00  0.00    +0.000 A 
ATOM     20  C   UNL     1      -5.228  12.713  21.732  0.00  0.00    +0.000 A 
ATOM     21  C   UNL     1      -3.936  12.890  22.255  0.00  0.00    +0.000 A 
ATOM     22 CL   UNL     1      -3.897  13.346  23.921  0.00  0.00    +0.000 Cl
ENDBRANCH  15  16
ENDBRANCH  14  15
ENDBRANCH  12  14
ENDBRANCH   2   9
BRANCH   6  23
ATOM     23  C   UNL     1       4.242   5.351  19.362  0.00  0.00    +0.000 C 
BRANCH  23  24
ATOM     24  C   UNL     1       5.190   5.326  18.183  0.00  0.00    +0.000 A 
ATOM     25  C   UNL     1       6.296   6.204  18.135  0.00  0.00    +0.000 A 
ATOM     26  C   UNL     1       7.133   6.246  17.014  0.00  0.00    +0.000 A 
ATOM     27  C   UNL     1       6.845   5.399  15.966  0.00  0.00    +0.000 A 
ATOM     28  C   UNL     1       5.786   4.526  16.013  0.00  0.00    +0.000 A 
ATOM     29  C   UNL     1       4.943   4.461  17.102  0.00  0.00    +0.000 A 
ATOM     30  O   UNL     1       5.674   3.780  14.880  0.00  0.00    +0.000 OA
ATOM     31  C   UNL     1       6.765   4.313  14.100  0.00  0.00    +0.000 C 
ATOM     32  O   UNL     1       7.529   5.322  14.793  0.00  0.00    +0.000 OA
ENDBRANCH  23  24
ENDBRANCH   6  23
TORSDOF 6
ENDMDL
MODEL 5
REMARK VINA RESULT:      -8.2      1.116      1.609
REMARK  Name = 
REMARK  6 active torsions:
REMARK  status: ('A' for Active; 'I' for Inactive)
REMARK    1  A    between atoms: C_2  and  C_3
REMARK    2  A    between atoms: C_6  and  C_7
REMARK    3  A    between atoms: C_7  and  O_8
REMARK    4  A    between atoms: O_8  and  C_9
REMARK    5  A    between atoms: N_20  and  C_21
REMARK    6  A    between atoms: C_21  and  C_22
REMARK                            x       y       z     vdW  Elec       q    Type
REMARK                         _______ _______ _______ _____ _____    ______ ____
ROOT
ATOM      1  O   UNL     1       2.116   8.693  17.407  0.00  0.00    +0.000 OA
ATOM      2  C   UNL     1       1.981   8.295  18.565  0.00  0.00    +0.000 C 
ATOM      3  N   UNL     1       1.264   9.050  19.496  0.00  0.00    +0.000 N 
ATOM      4  C   UNL     1       1.147   8.760  20.931  0.00  0.00    +0.000 C 
ATOM      5  C   UNL     1       1.366  10.019  21.802  0.00  0.00    +0.000 C 
ATOM      6  N   UNL     1       0.600  11.216  21.381  0.00  0.00    +0.000 NA
ATOM      7  C   UNL     1       0.883  11.456  19.947  0.00  0.00    +0.000 C 
ATOM      8  C   UNL     1       0.571  10.256  19.038  0.00  0.00    +0.000 C 
ENDROOT
BRANCH   2   9
ATOM      9  C   UNL     1       2.609   7.057  18.993  0.00  0.00    +0.000 A 
ATOM     10  C   UNL     1       2.074   6.006  19.705  0.00  0.00    +0.000 A 
ATOM     11  C   UNL     1       3.117   5.081  19.912  0.00  0.00    +0.000 A 
ATOM     12  C   UNL     1       4.251   5.641  19.363  0.00  0.00    +0.000 A 
ATOM     13  O   UNL     1       3.951   6.848  18.806  0.00  0.00    +0.000 OA
BRANCH  12  14
ATOM     14  C   UNL     1       5.682   5.236  19.391  0.00  0.00    +0.000 C 
BRANCH  14  15
ATOM     15  O   UNL     1       5.819   4.038  18.628  0.00  0.00    +0.000 OA
BRANCH  15  16
ATOM     16  C   UNL     1       5.903   4.173  17.263  0.00  0.00    +0.000 A 
ATOM     17  C   UNL     1       7.157   4.634  16.826  0.00  0.00    +0.000 A 
ATOM     18  C   UNL     1       7.403   4.905  15.473  0.00  0.00    +0.000 A 
ATOM     19  C   UNL     1       6.395   4.722  14.537  0.00  0.00    +0.000 A 
ATOM     20  C   UNL     1       5.145   4.274  14.953  0.00  0.00    +0.000 A 
ATOM     21  C   UNL     1       4.885   4.012  16.308  0.00  0.00    +0.000 A 
ATOM     22 CL   UNL     1       3.244   3.597  16.654  0.00  0.00    +0.000 Cl
ENDBRANCH  15  16
ENDBRANCH  14  15
ENDBRANCH  12  14
ENDBRANCH   2   9
BRANCH   6  23
ATOM     23  C   UNL     1      -0.831  11.028  21.667  0.00  0.00    +0.000 C 
BRANCH  23  24
ATOM     24  C   UNL     1      -1.451  12.100  22.537  0.00  0.00    +0.000 A 
ATOM     25  C   UNL     1      -2.822  12.042  22.877  0.00  0.00    +0.000 A 
ATOM     26  C   UNL     1      -3.424  13.067  23.614  0.00  0.00    +0.000 A 
ATOM     27  C   UNL     1      -2.635  14.129  24.000  0.00  0.00    +0.000 A 
ATOM     28  C   UNL     1      -1.297  14.183  23.695  0.00  0.00    +0.000 A 
ATOM     29  C   UNL     1      -0.675  13.189  22.970  0.00  0.00    +0.000 A 
ATOM     30  O   UNL     1      -0.700  15.311  24.167  0.00  0.00    +0.000 OA
ATOM     31  C   UNL     1      -1.828  15.978  24.773  0.00  0.00    +0.000 C 
ATOM     32  O   UNL     1      -3.053  15.221  24.695  0.00  0.00    +0.000 OA
ENDBRANCH  23  24
ENDBRANCH   6  23
TORSDOF 6
ENDMDL
MODEL 6
REMARK VINA RESULT:      -8.2      3.239      4.054
REMARK  Name = 
REMARK  6 active torsions:
REMARK  status: ('A' for Active; 'I' for Inactive)
REMARK    1  A    between atoms: C_2  and  C_3
REMARK    2  A    between atoms: C_6  and  C_7
REMARK    3  A    between atoms: C_7  and  O_8
REMARK    4  A    between atoms: O_8  and  C_9
REMARK    5  A    between atoms: N_20  and  C_21
REMARK    6  A    between atoms: C_21  and  C_22
REMARK                            x       y       z     vdW  Elec       q    Type
REMARK                         _______ _______ _______ _____ _____    ______ ____
ROOT
ATOM      1  O   UNL     1       1.436   5.946  21.027  0.00  0.00    +0.000 OA
ATOM      2  C   UNL     1       1.875   6.343  19.947  0.00  0.00    +0.000 C 
ATOM      3  N   UNL     1       1.867   7.704  19.633  0.00  0.00    +0.000 N 
ATOM      4  C   UNL     1       2.231   8.290  18.337  0.00  0.00    +0.000 C 
ATOM      5  C   UNL     1       1.210   9.355  17.870  0.00  0.00    +0.000 C 
ATOM      6  N   UNL     1       0.845  10.367  18.889  0.00  0.00    +0.000 NA
ATOM      7  C   UNL     1       0.404   9.646  20.106  0.00  0.00    +0.000 C 
ATOM      8  C   UNL     1       1.443   8.658  20.661  0.00  0.00    +0.000 C 
ENDROOT
BRANCH   2   9
ATOM      9  C   UNL     1       2.365   5.395  18.961  0.00  0.00    +0.000 A 
ATOM     10  C   UNL     1       1.679   4.733  17.967  0.00  0.00    +0.000 A 
ATOM     11  C   UNL     1       2.605   3.883  17.328  0.00  0.00    +0.000 A 
ATOM     12  C   UNL     1       3.799   4.029  18.002  0.00  0.00    +0.000 A 
ATOM     13  O   UNL     1       3.660   4.944  19.002  0.00  0.00    +0.000 OA
BRANCH  12  14
ATOM     14  C   UNL     1       5.095   3.304  17.911  0.00  0.00    +0.000 C 
BRANCH  14  15
ATOM     15  O   UNL     1       5.881   3.926  16.896  0.00  0.00    +0.000 OA
BRANCH  15  16
ATOM     16  C   UNL     1       6.498   5.110  17.223  0.00  0.00    +0.000 A 
ATOM     17  C   UNL     1       7.449   4.976  18.249  0.00  0.00    +0.000 A 
ATOM     18  C   UNL     1       8.124   6.089  18.768  0.00  0.00    +0.000 A 
ATOM     19  C   UNL     1       7.855   7.356  18.267  0.00  0.00    +0.000 A 
ATOM     20  C   UNL     1       6.911   7.508  17.257  0.00  0.00    +0.000 A 
ATOM     21  C   UNL     1       6.220   6.399  16.740  0.00  0.00    +0.000 A 
ATOM     22 CL   UNL     1       4.993   6.794  15.590  0.00  0.00    +0.000 Cl
ENDBRANCH  15  16
ENDBRANCH  14  15
ENDBRANCH  12  14
ENDBRANCH   2   9
BRANCH   6  23
ATOM     23  C   UNL     1       1.978  11.274  19.130  0.00  0.00    +0.000 C 
BRANCH  23  24
ATOM     24  C   UNL     1       1.668  12.742  18.930  0.00  0.00    +0.000 A 
ATOM     25  C   UNL     1       2.652  13.617  18.414  0.00  0.00    +0.000 A 
ATOM     26  C   UNL     1       2.404  14.989  18.298  0.00  0.00    +0.000 A 
ATOM     27  C   UNL     1       1.171  15.454  18.698  0.00  0.00    +0.000 A 
ATOM     28  C   UNL     1       0.201  14.610  19.179  0.00  0.00    +0.000 A 
ATOM     29  C   UNL     1       0.413  13.254  19.305  0.00  0.00    +0.000 A 
ATOM     30  O   UNL     1      -0.942  15.266  19.517  0.00  0.00    +0.000 OA
ATOM     31  C   UNL     1      -0.564  16.629  19.228  0.00  0.00    +0.000 C 
ATOM     32  O   UNL     1       0.766  16.753  18.682  0.00  0.00    +0.000 OA
ENDBRANCH  23  24
ENDBRANCH   6  23
TORSDOF 6
ENDMDL
MODEL 7
REMARK VINA RESULT:      -8.1      1.333      2.107
REMARK  Name = 
REMARK  6 active torsions:
REMARK  status: ('A' for Active; 'I' for Inactive)
REMARK    1  A    between atoms: C_2  and  C_3
REMARK    2  A    between atoms: C_6  and  C_7
REMARK    3  A    between atoms: C_7  and  O_8
REMARK    4  A    between atoms: O_8  and  C_9
REMARK    5  A    between atoms: N_20  and  C_21
REMARK    6  A    between atoms: C_21  and  C_22
REMARK                            x       y       z     vdW  Elec       q    Type
REMARK                         _______ _______ _______ _____ _____    ______ ____
ROOT
ATOM      1  O   UNL     1       1.984   8.628  17.658  0.00  0.00    +0.000 OA
ATOM      2  C   UNL     1       1.900   8.202  18.810  0.00  0.00    +0.000 C 
ATOM      3  N   UNL     1       1.225   8.933  19.791  0.00  0.00    +0.000 N 
ATOM      4  C   UNL     1       1.171   8.607  21.222  0.00  0.00    +0.000 C 
ATOM      5  C   UNL     1       1.430   9.844  22.113  0.00  0.00    +0.000 C 
ATOM      6  N   UNL     1       0.648  11.052  21.756  0.00  0.00    +0.000 NA
ATOM      7  C   UNL     1       0.868  11.327  20.317  0.00  0.00    +0.000 C 
ATOM      8  C   UNL     1       0.515  10.151  19.393  0.00  0.00    +0.000 C 
ENDROOT
BRANCH   2   9
ATOM      9  C   UNL     1       2.544   6.953  19.180  0.00  0.00    +0.000 A 
ATOM     10  C   UNL     1       2.025   5.866  19.848  0.00  0.00    +0.000 A 
ATOM     11  C   UNL     1       3.080   4.944  20.007  0.00  0.00    +0.000 A 
ATOM     12  C   UNL     1       4.203   5.540  19.476  0.00  0.00    +0.000 A 
ATOM     13  O   UNL     1       3.887   6.767  18.975  0.00  0.00    +0.000 OA
BRANCH  12  14
ATOM     14  C   UNL     1       5.639   5.149  19.477  0.00  0.00    +0.000 C 
BRANCH  14  15
ATOM     15  O   UNL     1       5.780   3.975  18.678  0.00  0.00    +0.000 OA
BRANCH  15  16
ATOM     16  C   UNL     1       5.855   4.152  17.317  0.00  0.00    +0.000 A 
ATOM     17  C   UNL     1       7.107   4.623  16.886  0.00  0.00    +0.000 A 
ATOM     18  C   UNL     1       7.345   4.935  15.540  0.00  0.00    +0.000 A 
ATOM     19  C   UNL     1       6.330   4.781  14.605  0.00  0.00    +0.000 A 
ATOM     20  C   UNL     1       5.082   4.323  15.016  0.00  0.00    +0.000 A 
ATOM     21  C   UNL     1       4.831   4.021  16.364  0.00  0.00    +0.000 A 
ATOM     22 CL   UNL     1       3.192   3.598  16.709  0.00  0.00    +0.000 Cl
ENDBRANCH  15  16
ENDBRANCH  14  15
ENDBRANCH  12  14
ENDBRANCH   2   9
BRANCH   6  23
ATOM     23  C   UNL     1      -0.770  10.857  22.099  0.00  0.00    +0.000 C 
BRANCH  23  24
ATOM     24  C   UNL     1      -1.488  12.107  22.560  0.00  0.00    +0.000 A 
ATOM     25  C   UNL     1      -0.756  13.254  22.940  0.00  0.00    +0.000 A 
ATOM     26  C   UNL     1      -1.405  14.387  23.443  0.00  0.00    +0.000 A 
ATOM     27  C   UNL     1      -2.779  14.347  23.548  0.00  0.00    +0.000 A 
ATOM     28  C   UNL     1      -3.501  13.245  23.159  0.00  0.00    +0.000 A 
ATOM     29  C   UNL     1      -2.891  12.114  22.661  0.00  0.00    +0.000 A 
ATOM     30  O   UNL     1      -4.839  13.407  23.344  0.00  0.00    +0.000 OA
ATOM     31  C   UNL     1      -4.871  14.727  23.929  0.00  0.00    +0.000 C 
ATOM     32  O   UNL     1      -3.570  15.340  24.036  0.00  0.00    +0.000 OA
ENDBRANCH  23  24
ENDBRANCH   6  23
TORSDOF 6
ENDMDL
MODEL 8
REMARK VINA RESULT:      -8.1      3.349      3.728
REMARK  Name = 
REMARK  6 active torsions:
REMARK  status: ('A' for Active; 'I' for Inactive)
REMARK    1  A    between atoms: C_2  and  C_3
REMARK    2  A    between atoms: C_6  and  C_7
REMARK    3  A    between atoms: C_7  and  O_8
REMARK    4  A    between atoms: O_8  and  C_9
REMARK    5  A    between atoms: N_20  and  C_21
REMARK    6  A    between atoms: C_21  and  C_22
REMARK                            x       y       z     vdW  Elec       q    Type
REMARK                         _______ _______ _______ _____ _____    ______ ____
ROOT
ATOM      1  O   UNL     1       1.353   6.449  21.278  0.00  0.00    +0.000 OA
ATOM      2  C   UNL     1       1.818   6.727  20.172  0.00  0.00    +0.000 C 
ATOM      3  N   UNL     1       1.781   8.040  19.695  0.00  0.00    +0.000 N 
ATOM      4  C   UNL     1       2.171   8.477  18.349  0.00  0.00    +0.000 C 
ATOM      5  C   UNL     1       1.136   9.443  17.725  0.00  0.00    +0.000 C 
ATOM      6  N   UNL     1       0.707  10.557  18.602  0.00  0.00    +0.000 NA
ATOM      7  C   UNL     1       0.246   9.975  19.884  0.00  0.00    +0.000 C 
ATOM      8  C   UNL     1       1.294   9.096  20.585  0.00  0.00    +0.000 C 
ENDROOT
BRANCH   2   9
ATOM      9  C   UNL     1       2.369   5.684  19.325  0.00  0.00    +0.000 A 
ATOM     10  C   UNL     1       1.730   4.859  18.425  0.00  0.00    +0.000 A 
ATOM     11  C   UNL     1       2.707   3.983  17.910  0.00  0.00    +0.000 A 
ATOM     12  C   UNL     1       3.884   4.283  18.563  0.00  0.00    +0.000 A 
ATOM     13  O   UNL     1       3.685   5.314  19.431  0.00  0.00    +0.000 OA
BRANCH  12  14
ATOM     14  C   UNL     1       5.218   3.624  18.575  0.00  0.00    +0.000 C 
BRANCH  14  15
ATOM     15  O   UNL     1       5.949   4.081  17.439  0.00  0.00    +0.000 OA
BRANCH  15  16
ATOM     16  C   UNL     1       6.577   5.299  17.550  0.00  0.00    +0.000 A 
ATOM     17  C   UNL     1       7.552   5.331  18.562  0.00  0.00    +0.000 A 
ATOM     18  C   UNL     1       8.241   6.511  18.873  0.00  0.00    +0.000 A 
ATOM     19  C   UNL     1       7.963   7.679  18.175  0.00  0.00    +0.000 A 
ATOM     20  C   UNL     1       6.996   7.666  17.175  0.00  0.00    +0.000 A 
ATOM     21  C   UNL     1       6.290   6.492  16.866  0.00  0.00    +0.000 A 
ATOM     22 CL   UNL     1       5.037   6.698  15.695  0.00  0.00    +0.000 Cl
ENDBRANCH  15  16
ENDBRANCH  14  15
ENDBRANCH  12  14
ENDBRANCH   2   9
BRANCH   6  23
ATOM     23  C   UNL     1       1.804  11.525  18.765  0.00  0.00    +0.000 C 
BRANCH  23  24
ATOM     24  C   UNL     1       1.361  12.945  19.043  0.00  0.00    +0.000 A 
ATOM     25  C   UNL     1       0.117  13.414  18.563  0.00  0.00    +0.000 A 
ATOM     26  C   UNL     1      -0.268  14.746  18.745  0.00  0.00    +0.000 A 
ATOM     27  C   UNL     1       0.603  15.581  19.411  0.00  0.00    +0.000 A 
ATOM     28  C   UNL     1       1.804  15.129  19.901  0.00  0.00    +0.000 A 
ATOM     29  C   UNL     1       2.212  13.823  19.738  0.00  0.00    +0.000 A 
ATOM     30  O   UNL     1       2.514  16.108  20.525  0.00  0.00    +0.000 OA
ATOM     31  C   UNL     1       1.635  17.238  20.337  0.00  0.00    +0.000 C 
ATOM     32  O   UNL     1       0.408  16.905  19.655  0.00  0.00    +0.000 OA
ENDBRANCH  23  24
ENDBRANCH   6  23
TORSDOF 6
ENDMDL
MODEL 9
REMARK VINA RESULT:      -8.1      2.937      4.036
REMARK  Name = 
REMARK  6 active torsions:
REMARK  status: ('A' for Active; 'I' for Inactive)
REMARK    1  A    between atoms: C_2  and  C_3
REMARK    2  A    between atoms: C_6  and  C_7
REMARK    3  A    between atoms: C_7  and  O_8
REMARK    4  A    between atoms: O_8  and  C_9
REMARK    5  A    between atoms: N_20  and  C_21
REMARK    6  A    between atoms: C_21  and  C_22
REMARK                            x       y       z     vdW  Elec       q    Type
REMARK                         _______ _______ _______ _____ _____    ______ ____
ROOT
ATOM      1  O   UNL     1       2.353  11.893  18.130  0.00  0.00    +0.000 OA
ATOM      2  C   UNL     1       1.523  11.071  18.521  0.00  0.00    +0.000 C 
ATOM      3  N   UNL     1       0.280  11.491  19.001  0.00  0.00    +0.000 N 
ATOM      4  C   UNL     1      -0.738  10.631  19.619  0.00  0.00    +0.000 C 
ATOM      5  C   UNL     1      -1.320  11.252  20.911  0.00  0.00    +0.000 C 
ATOM      6  N   UNL     1      -1.740  12.668  20.796  0.00  0.00    +0.000 NA
ATOM      7  C   UNL     1      -0.596  13.439  20.256  0.00  0.00    +0.000 C 
ATOM      8  C   UNL     1      -0.063  12.913  18.914  0.00  0.00    +0.000 C 
ENDROOT
BRANCH   2   9
ATOM      9  C   UNL     1       1.842   9.654  18.533  0.00  0.00    +0.000 A 
ATOM     10  C   UNL     1       2.092   8.805  17.477  0.00  0.00    +0.000 A 
ATOM     11  C   UNL     1       2.287   7.520  18.025  0.00  0.00    +0.000 A 
ATOM     12  C   UNL     1       2.091   7.641  19.384  0.00  0.00    +0.000 A 
ATOM     13  O   UNL     1       1.814   8.937  19.701  0.00  0.00    +0.000 OA
BRANCH  12  14
ATOM     14  C   UNL     1       2.006   6.635  20.477  0.00  0.00    +0.000 C 
BRANCH  14  15
ATOM     15  O   UNL     1       2.903   5.570  20.169  0.00  0.00    +0.000 OA
BRANCH  15  16
ATOM     16  C   UNL     1       2.368   4.458  19.563  0.00  0.00    +0.000 A 
ATOM     17  C   UNL     1       1.263   3.927  20.251  0.00  0.00    +0.000 A 
ATOM     18  C   UNL     1       0.635   2.749  19.824  0.00  0.00    +0.000 A 
ATOM     19  C   UNL     1       1.106   2.083  18.700  0.00  0.00    +0.000 A 
ATOM     20  C   UNL     1       2.203   2.591  18.012  0.00  0.00    +0.000 A 
ATOM     21  C   UNL     1       2.847   3.763  18.440  0.00  0.00    +0.000 A 
ATOM     22 CL   UNL     1       4.269   4.166  17.545  0.00  0.00    +0.000 Cl
ENDBRANCH  15  16
ENDBRANCH  14  15
ENDBRANCH  12  14
ENDBRANCH   2   9
BRANCH   6  23
ATOM     23  C   UNL     1      -2.952  12.771  19.967  0.00  0.00    +0.000 C 
BRANCH  23  24
ATOM     24  C   UNL     1      -4.254  12.658  20.729  0.00  0.00    +0.000 A 
ATOM     25  C   UNL     1      -5.429  12.222  20.077  0.00  0.00    +0.000 A 
ATOM     26  C   UNL     1      -6.655  12.188  20.750  0.00  0.00    +0.000 A 
ATOM     27  C   UNL     1      -6.675  12.589  22.068  0.00  0.00    +0.000 A 
ATOM     28  C   UNL     1      -5.534  12.992  22.717  0.00  0.00    +0.000 A 
ATOM     29  C   UNL     1      -4.311  13.036  22.082  0.00  0.00    +0.000 A 
ATOM     30  O   UNL     1      -5.767  13.346  24.010  0.00  0.00    +0.000 OA
ATOM     31  C   UNL     1      -7.196  13.153  24.088  0.00  0.00    +0.000 C 
ATOM     32  O   UNL     1      -7.774  12.646  22.867  0.00  0.00    +0.000 OA
ENDBRANCH  23  24
ENDBRANCH   6  23
TORSDOF 6
ENDMDL
