MODEL 1
REMARK VINA RESULT:      -7.2      0.000      0.000
REMARK  Name = 
REMARK  4 active torsions:
REMARK  status: ('A' for Active; 'I' for Inactive)
REMARK    1  A    between atoms: C_1  and  C_2
REMARK    2  A    between atoms: C_2  and  C_3
REMARK    3  A    between atoms: N_10  and  C_11
REMARK    4  A    between atoms: C_21  and  C_22
REMARK                            x       y       z     vdW  Elec       q    Type
REMARK                         _______ _______ _______ _____ _____    ______ ____
ROOT
ATOM      1  C   UNL     1       9.164   9.586  18.937  0.00  0.00    +0.000 C 
ATOM      2  C   UNL     1       9.536  11.071  19.104  0.00  0.00    +0.000 C 
ATOM      3  C   UNL     1       8.686  11.891  18.110  0.00  0.00    +0.000 C 
ATOM      4  C   UNL     1      11.030  11.254  18.844  0.00  0.00    +0.000 C 
ATOM      5  C   UNL     1      11.440  12.689  19.073  0.00  0.00    +0.000 C 
ATOM      6  O   UNL     1      12.333  13.198  18.394  0.00  0.00    +0.000 OA
ATOM      7  C   UNL     1      10.794  13.450  20.195  0.00  0.00    +0.000 C 
ATOM      8  C   UNL     1       9.831  12.870  20.937  0.00  0.00    +0.000 C 
ATOM      9  C   UNL     1       9.257  11.507  20.555  0.00  0.00    +0.000 C 
ATOM     10  N   UNL     1       9.260  13.549  22.026  0.00  0.00    +0.000 N 
ATOM     11  C   UNL     1       9.661  14.831  22.431  0.00  0.00    +0.000 C 
ATOM     12  O   UNL     1       9.182  15.425  23.406  0.00  0.00    +0.000 OA
ATOM     13  C   UNL     1      10.790  15.505  21.697  0.00  0.00    +0.000 C 
ATOM     14  C   UNL     1      11.287  14.849  20.413  0.00  0.00    +0.000 C 
ENDROOT
BRANCH  10  15
ATOM     15  C   UNL     1       8.244  12.942  22.841  0.00  0.00    +0.000 A 
ATOM     16  C   UNL     1       8.613  12.140  23.935  0.00  0.00    +0.000 A 
ATOM     17  C   UNL     1       7.634  11.531  24.723  0.00  0.00    +0.000 A 
ATOM     18  C   UNL     1       6.293  11.723  24.415  0.00  0.00    +0.000 A 
ATOM     19  F   UNL     1       5.353  11.130  25.164  0.00  0.00    +0.000 F 
ATOM     20  C   UNL     1       5.909  12.517  23.340  0.00  0.00    +0.000 A 
ATOM     21  C   UNL     1       6.885  13.125  22.551  0.00  0.00    +0.000 A 
ENDBRANCH  10  15
BRANCH  14  22
ATOM     22  C   UNL     1      10.958  15.766  19.247  0.00  0.00    +0.000 A 
ATOM     23  C   UNL     1      11.930  16.565  18.630  0.00  0.00    +0.000 A 
ATOM     24  C   UNL     1      11.595  17.318  17.515  0.00  0.00    +0.000 A 
ATOM     25  C   UNL     1      10.288  17.261  17.057  0.00  0.00    +0.000 A 
ATOM     26  N   UNL     1       9.318  16.528  17.637  0.00  0.00    +0.000 NA
ATOM     27  C   UNL     1       9.667  15.802  18.723  0.00  0.00    +0.000 A 
ENDBRANCH  14  22
TORSDOF 2
ENDMDL
MODEL 2
REMARK VINA RESULT:      -7.2      0.624      1.344
REMARK  Name = 
REMARK  4 active torsions:
REMARK  status: ('A' for Active; 'I' for Inactive)
REMARK    1  A    between atoms: C_1  and  C_2
REMARK    2  A    between atoms: C_2  and  C_3
REMARK    3  A    between atoms: N_10  and  C_11
REMARK    4  A    between atoms: C_21  and  C_22
REMARK                            x       y       z     vdW  Elec       q    Type
REMARK                         _______ _______ _______ _____ _____    ______ ____
ROOT
ATOM      1  C   UNL     1       9.297   9.767  18.973  0.00  0.00    +0.000 C 
ATOM      2  C   UNL     1       9.614  11.260  19.173  0.00  0.00    +0.000 C 
ATOM      3  C   UNL     1       8.737  12.071  18.195  0.00  0.00    +0.000 C 
ATOM      4  C   UNL     1      11.102  11.504  18.921  0.00  0.00    +0.000 C 
ATOM      5  C   UNL     1      11.458  12.947  19.182  0.00  0.00    +0.000 C 
ATOM      6  O   UNL     1      12.333  13.503  18.517  0.00  0.00    +0.000 OA
ATOM      7  C   UNL     1      10.783  13.660  20.319  0.00  0.00    +0.000 C 
ATOM      8  C   UNL     1       9.841  13.029  21.046  0.00  0.00    +0.000 C 
ATOM      9  C   UNL     1       9.317  11.655  20.633  0.00  0.00    +0.000 C 
ATOM     10  N   UNL     1       9.243  13.662  22.148  0.00  0.00    +0.000 N 
ATOM     11  C   UNL     1       9.596  14.949  22.582  0.00  0.00    +0.000 C 
ATOM     12  O   UNL     1       9.095  15.504  23.568  0.00  0.00    +0.000 OA
ATOM     13  C   UNL     1      10.702  15.679  21.865  0.00  0.00    +0.000 C 
ATOM     14  C   UNL     1      11.224  15.070  20.569  0.00  0.00    +0.000 C 
ENDROOT
BRANCH  10  15
ATOM     15  C   UNL     1       8.248  13.001  22.947  0.00  0.00    +0.000 A 
ATOM     16  C   UNL     1       6.886  13.149  22.630  0.00  0.00    +0.000 A 
ATOM     17  C   UNL     1       5.911  12.525  23.411  0.00  0.00    +0.000 A 
ATOM     18  C   UNL     1       6.299  11.759  24.504  0.00  0.00    +0.000 A 
ATOM     19  F   UNL     1       5.362  11.168  25.259  0.00  0.00    +0.000 F 
ATOM     20  C   UNL     1       7.641  11.596  24.828  0.00  0.00    +0.000 A 
ATOM     21  C   UNL     1       8.616  12.220  24.050  0.00  0.00    +0.000 A 
ENDBRANCH  10  15
BRANCH  14  22
ATOM     22  C   UNL     1      10.865  16.001  19.422  0.00  0.00    +0.000 A 
ATOM     23  C   UNL     1       9.608  15.970  18.804  0.00  0.00    +0.000 A 
ATOM     24  C   UNL     1       9.303  16.899  17.820  0.00  0.00    +0.000 A 
ATOM     25  C   UNL     1      10.274  17.825  17.472  0.00  0.00    +0.000 A 
ATOM     26  N   UNL     1      11.504  17.870  18.022  0.00  0.00    +0.000 NA
ATOM     27  C   UNL     1      11.780  16.955  18.978  0.00  0.00    +0.000 A 
ENDBRANCH  14  22
TORSDOF 2
ENDMDL
MODEL 3
REMARK VINA RESULT:      -7.1      0.620      1.115
REMARK  Name = 
REMARK  4 active torsions:
REMARK  status: ('A' for Active; 'I' for Inactive)
REMARK    1  A    between atoms: C_1  and  C_2
REMARK    2  A    between atoms: C_2  and  C_3
REMARK    3  A    between atoms: N_10  and  C_11
REMARK    4  A    between atoms: C_21  and  C_22
REMARK                            x       y       z     vdW  Elec       q    Type
REMARK                         _______ _______ _______ _____ _____    ______ ____
ROOT
ATOM      1  C   UNL     1       9.076  10.296  18.254  0.00  0.00    +0.000 C 
ATOM      2  C   UNL     1       9.496  11.737  18.594  0.00  0.00    +0.000 C 
ATOM      3  C   UNL     1       8.641  12.698  17.740  0.00  0.00    +0.000 C 
ATOM      4  C   UNL     1      10.987  11.915  18.309  0.00  0.00    +0.000 C 
ATOM      5  C   UNL     1      11.445  13.298  18.704  0.00  0.00    +0.000 C 
ATOM      6  O   UNL     1      12.331  13.867  18.064  0.00  0.00    +0.000 OA
ATOM      7  C   UNL     1      10.856  13.927  19.933  0.00  0.00    +0.000 C 
ATOM      8  C   UNL     1       9.899  13.282  20.628  0.00  0.00    +0.000 C 
ATOM      9  C   UNL     1       9.275  11.993  20.097  0.00  0.00    +0.000 C 
ATOM     10  N   UNL     1       9.381  13.831  21.813  0.00  0.00    +0.000 N 
ATOM     11  C   UNL     1       9.831  15.040  22.363  0.00  0.00    +0.000 C 
ATOM     12  O   UNL     1       9.400  15.518  23.420  0.00  0.00    +0.000 OA
ATOM     13  C   UNL     1      10.957  15.774  21.682  0.00  0.00    +0.000 C 
ATOM     14  C   UNL     1      11.395  15.274  20.309  0.00  0.00    +0.000 C 
ENDROOT
BRANCH  10  15
ATOM     15  C   UNL     1       8.373  13.151  22.578  0.00  0.00    +0.000 A 
ATOM     16  C   UNL     1       7.017  13.472  22.389  0.00  0.00    +0.000 A 
ATOM     17  C   UNL     1       6.030  12.829  23.141  0.00  0.00    +0.000 A 
ATOM     18  C   UNL     1       6.401  11.872  24.078  0.00  0.00    +0.000 A 
ATOM     19  F   UNL     1       5.456  11.263  24.807  0.00  0.00    +0.000 F 
ATOM     20  C   UNL     1       7.736  11.538  24.274  0.00  0.00    +0.000 A 
ATOM     21  C   UNL     1       8.723  12.180  23.526  0.00  0.00    +0.000 A 
ENDBRANCH  10  15
BRANCH  14  22
ATOM     22  C   UNL     1      11.059  16.340  19.279  0.00  0.00    +0.000 A 
ATOM     23  C   UNL     1      12.042  17.149  18.696  0.00  0.00    +0.000 A 
ATOM     24  C   UNL     1      11.691  18.046  17.699  0.00  0.00    +0.000 A 
ATOM     25  C   UNL     1      10.359  18.118  17.323  0.00  0.00    +0.000 A 
ATOM     26  N   UNL     1       9.379  17.378  17.878  0.00  0.00    +0.000 NA
ATOM     27  C   UNL     1       9.743  16.511  18.850  0.00  0.00    +0.000 A 
ENDBRANCH  14  22
TORSDOF 2
ENDMDL
MODEL 4
REMARK VINA RESULT:      -6.9      8.780     11.519
REMARK  Name = 
REMARK  4 active torsions:
REMARK  status: ('A' for Active; 'I' for Inactive)
REMARK    1  A    between atoms: C_1  and  C_2
REMARK    2  A    between atoms: C_2  and  C_3
REMARK    3  A    between atoms: N_10  and  C_11
REMARK    4  A    between atoms: C_21  and  C_22
REMARK                            x       y       z     vdW  Elec       q    Type
REMARK                         _______ _______ _______ _____ _____    ______ ____
ROOT
ATOM      1  C   UNL     1       2.230  13.940  18.391  0.00  0.00    +0.000 C 
ATOM      2  C   UNL     1       1.147  13.425  19.356  0.00  0.00    +0.000 C 
ATOM      3  C   UNL     1      -0.224  13.586  18.665  0.00  0.00    +0.000 C 
ATOM      4  C   UNL     1       1.210  14.217  20.662  0.00  0.00    +0.000 C 
ATOM      5  C   UNL     1       0.208  13.684  21.657  0.00  0.00    +0.000 C 
ATOM      6  O   UNL     1      -0.346  14.447  22.451  0.00  0.00    +0.000 OA
ATOM      7  C   UNL     1      -0.035  12.204  21.711  0.00  0.00    +0.000 C 
ATOM      8  C   UNL     1       0.593  11.385  20.845  0.00  0.00    +0.000 C 
ATOM      9  C   UNL     1       1.423  11.947  19.692  0.00  0.00    +0.000 C 
ATOM     10  N   UNL     1       0.421   9.993  20.921  0.00  0.00    +0.000 N 
ATOM     11  C   UNL     1      -0.369   9.367  21.897  0.00  0.00    +0.000 C 
ATOM     12  O   UNL     1      -0.505   8.140  21.989  0.00  0.00    +0.000 OA
ATOM     13  C   UNL     1      -1.034  10.217  22.948  0.00  0.00    +0.000 C 
ATOM     14  C   UNL     1      -0.993  11.730  22.761  0.00  0.00    +0.000 C 
ENDROOT
BRANCH  10  15
ATOM     15  C   UNL     1       1.095   9.102  20.019  0.00  0.00    +0.000 A 
ATOM     16  C   UNL     1       1.734   7.954  20.519  0.00  0.00    +0.000 A 
ATOM     17  C   UNL     1       2.408   7.090  19.652  0.00  0.00    +0.000 A 
ATOM     18  C   UNL     1       2.442   7.376  18.293  0.00  0.00    +0.000 A 
ATOM     19  F   UNL     1       3.097   6.553  17.462  0.00  0.00    +0.000 F 
ATOM     20  C   UNL     1       1.810   8.503  17.780  0.00  0.00    +0.000 A 
ATOM     21  C   UNL     1       1.139   9.369  18.643  0.00  0.00    +0.000 A 
ENDBRANCH  10  15
BRANCH  14  22
ATOM     22  C   UNL     1      -2.410  12.222  22.517  0.00  0.00    +0.000 A 
ATOM     23  C   UNL     1      -2.878  12.538  21.235  0.00  0.00    +0.000 A 
ATOM     24  C   UNL     1      -4.205  12.901  21.058  0.00  0.00    +0.000 A 
ATOM     25  C   UNL     1      -5.024  12.950  22.175  0.00  0.00    +0.000 A 
ATOM     26  N   UNL     1      -4.606  12.681  23.428  0.00  0.00    +0.000 NA
ATOM     27  C   UNL     1      -3.309  12.331  23.577  0.00  0.00    +0.000 A 
ENDBRANCH  14  22
TORSDOF 2
ENDMDL
MODEL 5
REMARK VINA RESULT:      -6.6      8.812     11.607
REMARK  Name = 
REMARK  4 active torsions:
REMARK  status: ('A' for Active; 'I' for Inactive)
REMARK    1  A    between atoms: C_1  and  C_2
REMARK    2  A    between atoms: C_2  and  C_3
REMARK    3  A    between atoms: N_10  and  C_11
REMARK    4  A    between atoms: C_21  and  C_22
REMARK                            x       y       z     vdW  Elec       q    Type
REMARK                         _______ _______ _______ _____ _____    ______ ____
ROOT
ATOM      1  C   UNL     1       2.156  14.222  18.713  0.00  0.00    +0.000 C 
ATOM      2  C   UNL     1       1.059  13.669  19.641  0.00  0.00    +0.000 C 
ATOM      3  C   UNL     1      -0.301  13.853  18.936  0.00  0.00    +0.000 C 
ATOM      4  C   UNL     1       1.100  14.411  20.977  0.00  0.00    +0.000 C 
ATOM      5  C   UNL     1       0.084  13.839  21.936  0.00  0.00    +0.000 C 
ATOM      6  O   UNL     1      -0.485  14.570  22.749  0.00  0.00    +0.000 OA
ATOM      7  C   UNL     1      -0.156  12.357  21.930  0.00  0.00    +0.000 C 
ATOM      8  C   UNL     1       0.488  11.573  21.044  0.00  0.00    +0.000 C 
ATOM      9  C   UNL     1       1.334  12.180  19.926  0.00  0.00    +0.000 C 
ATOM     10  N   UNL     1       0.318  10.179  21.065  0.00  0.00    +0.000 N 
ATOM     11  C   UNL     1      -0.485   9.515  22.004  0.00  0.00    +0.000 C 
ATOM     12  O   UNL     1      -0.619   8.285  22.047  0.00  0.00    +0.000 OA
ATOM     13  C   UNL     1      -1.169  10.323  23.075  0.00  0.00    +0.000 C 
ATOM     14  C   UNL     1      -1.129  11.841  22.947  0.00  0.00    +0.000 C 
ENDROOT
BRANCH  10  15
ATOM     15  C   UNL     1       1.009   9.323  20.140  0.00  0.00    +0.000 A 
ATOM     16  C   UNL     1       0.990   9.621  18.766  0.00  0.00    +0.000 A 
ATOM     17  C   UNL     1       1.644   8.786  17.856  0.00  0.00    +0.000 A 
ATOM     18  C   UNL     1       2.310   7.659  18.322  0.00  0.00    +0.000 A 
ATOM     19  F   UNL     1       2.929   6.851  17.449  0.00  0.00    +0.000 F 
ATOM     20  C   UNL     1       2.344   7.352  19.678  0.00  0.00    +0.000 A 
ATOM     21  C   UNL     1       1.691   8.184  20.587  0.00  0.00    +0.000 A 
ENDBRANCH  10  15
BRANCH  14  22
ATOM     22  C   UNL     1      -2.544  12.340  22.698  0.00  0.00    +0.000 A 
ATOM     23  C   UNL     1      -3.396  12.714  23.745  0.00  0.00    +0.000 A 
ATOM     24  C   UNL     1      -4.645  13.243  23.458  0.00  0.00    +0.000 A 
ATOM     25  C   UNL     1      -5.012  13.370  22.127  0.00  0.00    +0.000 A 
ATOM     26  N   UNL     1      -4.233  12.997  21.093  0.00  0.00    +0.000 NA
ATOM     27  C   UNL     1      -3.020  12.482  21.396  0.00  0.00    +0.000 A 
ENDBRANCH  14  22
TORSDOF 2
ENDMDL
MODEL 6
REMARK VINA RESULT:      -6.4      7.987     10.881
REMARK  Name = 
REMARK  4 active torsions:
REMARK  status: ('A' for Active; 'I' for Inactive)
REMARK    1  A    between atoms: C_1  and  C_2
REMARK    2  A    between atoms: C_2  and  C_3
REMARK    3  A    between atoms: N_10  and  C_11
REMARK    4  A    between atoms: C_21  and  C_22
REMARK                            x       y       z     vdW  Elec       q    Type
REMARK                         _______ _______ _______ _____ _____    ______ ____
ROOT
ATOM      1  C   UNL     1       1.967   9.369  17.886  0.00  0.00    +0.000 C 
ATOM      2  C   UNL     1       1.028  10.294  18.681  0.00  0.00    +0.000 C 
ATOM      3  C   UNL     1       1.017   9.816  20.149  0.00  0.00    +0.000 C 
ATOM      4  C   UNL     1      -0.372  10.248  18.069  0.00  0.00    +0.000 C 
ATOM      5  C   UNL     1      -1.297  11.203  18.782  0.00  0.00    +0.000 C 
ATOM      6  O   UNL     1      -2.492  10.932  18.912  0.00  0.00    +0.000 OA
ATOM      7  C   UNL     1      -0.749  12.518  19.254  0.00  0.00    +0.000 C 
ATOM      8  C   UNL     1       0.557  12.803  19.088  0.00  0.00    +0.000 C 
ATOM      9  C   UNL     1       1.535  11.745  18.580  0.00  0.00    +0.000 C 
ATOM     10  N   UNL     1       1.072  14.053  19.471  0.00  0.00    +0.000 N 
ATOM     11  C   UNL     1       0.283  15.080  20.009  0.00  0.00    +0.000 C 
ATOM     12  O   UNL     1       0.722  16.193  20.323  0.00  0.00    +0.000 OA
ATOM     13  C   UNL     1      -1.201  14.859  20.146  0.00  0.00    +0.000 C 
ATOM     14  C   UNL     1      -1.730  13.450  19.899  0.00  0.00    +0.000 C 
ENDROOT
BRANCH  10  15
ATOM     15  C   UNL     1       2.459  14.383  19.286  0.00  0.00    +0.000 A 
ATOM     16  C   UNL     1       3.346  14.307  20.374  0.00  0.00    +0.000 A 
ATOM     17  C   UNL     1       4.692  14.643  20.209  0.00  0.00    +0.000 A 
ATOM     18  C   UNL     1       5.144  15.055  18.961  0.00  0.00    +0.000 A 
ATOM     19  F   UNL     1       6.433  15.388  18.805  0.00  0.00    +0.000 F 
ATOM     20  C   UNL     1       4.283  15.130  17.872  0.00  0.00    +0.000 A 
ATOM     21  C   UNL     1       2.938  14.796  18.036  0.00  0.00    +0.000 A 
ENDBRANCH  10  15
BRANCH  14  22
ATOM     22  C   UNL     1      -2.272  12.904  21.209  0.00  0.00    +0.000 A 
ATOM     23  C   UNL     1      -1.434  12.370  22.197  0.00  0.00    +0.000 A 
ATOM     24  C   UNL     1      -1.973  11.964  23.409  0.00  0.00    +0.000 A 
ATOM     25  C   UNL     1      -3.341  12.092  23.592  0.00  0.00    +0.000 A 
ATOM     26  N   UNL     1      -4.184  12.574  22.658  0.00  0.00    +0.000 NA
ATOM     27  C   UNL     1      -3.638  12.962  21.484  0.00  0.00    +0.000 A 
ENDBRANCH  14  22
TORSDOF 2
ENDMDL
MODEL 7
REMARK VINA RESULT:      -6.0      7.926     10.893
REMARK  Name = 
REMARK  4 active torsions:
REMARK  status: ('A' for Active; 'I' for Inactive)
REMARK    1  A    between atoms: C_1  and  C_2
REMARK    2  A    between atoms: C_2  and  C_3
REMARK    3  A    between atoms: N_10  and  C_11
REMARK    4  A    between atoms: C_21  and  C_22
REMARK                            x       y       z     vdW  Elec       q    Type
REMARK                         _______ _______ _______ _____ _____    ______ ____
ROOT
ATOM      1  C   UNL     1       1.900   9.514  18.001  0.00  0.00    +0.000 C 
ATOM      2  C   UNL     1       0.985  10.490  18.762  0.00  0.00    +0.000 C 
ATOM      3  C   UNL     1       0.953  10.059  20.244  0.00  0.00    +0.000 C 
ATOM      4  C   UNL     1      -0.413  10.467  18.144  0.00  0.00    +0.000 C 
ATOM      5  C   UNL     1      -1.313  11.470  18.823  0.00  0.00    +0.000 C 
ATOM      6  O   UNL     1      -2.516  11.238  18.955  0.00  0.00    +0.000 OA
ATOM      7  C   UNL     1      -0.729  12.783  19.257  0.00  0.00    +0.000 C 
ATOM      8  C   UNL     1       0.586  13.024  19.089  0.00  0.00    +0.000 C 
ATOM      9  C   UNL     1       1.534  11.923  18.619  0.00  0.00    +0.000 C 
ATOM     10  N   UNL     1       1.136  14.269  19.437  0.00  0.00    +0.000 N 
ATOM     11  C   UNL     1       0.374  15.335  19.939  0.00  0.00    +0.000 C 
ATOM     12  O   UNL     1       0.845  16.444  20.222  0.00  0.00    +0.000 OA
ATOM     13  C   UNL     1      -1.116  15.162  20.074  0.00  0.00    +0.000 C 
ATOM     14  C   UNL     1      -1.685  13.762  19.868  0.00  0.00    +0.000 C 
ENDROOT
BRANCH  10  15
ATOM     15  C   UNL     1       2.532  14.553  19.249  0.00  0.00    +0.000 A 
ATOM     16  C   UNL     1       2.999  14.955  17.986  0.00  0.00    +0.000 A 
ATOM     17  C   UNL     1       4.358  15.216  17.788  0.00  0.00    +0.000 A 
ATOM     18  C   UNL     1       5.241  15.074  18.851  0.00  0.00    +0.000 A 
ATOM     19  F   UNL     1       6.546  15.314  18.659  0.00  0.00    +0.000 F 
ATOM     20  C   UNL     1       4.796  14.683  20.109  0.00  0.00    +0.000 A 
ATOM     21  C   UNL     1       3.441  14.420  20.308  0.00  0.00    +0.000 A 
ENDBRANCH  10  15
BRANCH  14  22
ATOM     22  C   UNL     1      -2.248  13.272  21.191  0.00  0.00    +0.000 A 
ATOM     23  C   UNL     1      -3.622  13.289  21.468  0.00  0.00    +0.000 A 
ATOM     24  C   UNL     1      -4.089  12.750  22.657  0.00  0.00    +0.000 A 
ATOM     25  C   UNL     1      -3.164  12.221  23.544  0.00  0.00    +0.000 A 
ATOM     26  N   UNL     1      -1.834  12.211  23.328  0.00  0.00    +0.000 NA
ATOM     27  C   UNL     1      -1.400  12.743  22.163  0.00  0.00    +0.000 A 
ENDBRANCH  14  22
TORSDOF 2
ENDMDL
MODEL 8
REMARK VINA RESULT:      -6.0      8.082      9.943
REMARK  Name = 
REMARK  4 active torsions:
REMARK  status: ('A' for Active; 'I' for Inactive)
REMARK    1  A    between atoms: C_1  and  C_2
REMARK    2  A    between atoms: C_2  and  C_3
REMARK    3  A    between atoms: N_10  and  C_11
REMARK    4  A    between atoms: C_21  and  C_22
REMARK                            x       y       z     vdW  Elec       q    Type
REMARK                         _______ _______ _______ _____ _____    ______ ____
ROOT
ATOM      1  C   UNL     1      -2.197   9.980  18.099  0.00  0.00    +0.000 C 
ATOM      2  C   UNL     1      -1.181  11.075  18.470  0.00  0.00    +0.000 C 
ATOM      3  C   UNL     1      -1.348  12.241  17.471  0.00  0.00    +0.000 C 
ATOM      4  C   UNL     1       0.233  10.498  18.421  0.00  0.00    +0.000 C 
ATOM      5  C   UNL     1       1.246  11.529  18.852  0.00  0.00    +0.000 C 
ATOM      6  O   UNL     1       2.371  11.546  18.349  0.00  0.00    +0.000 OA
ATOM      7  C   UNL     1       0.882  12.476  19.959  0.00  0.00    +0.000 C 
ATOM      8  C   UNL     1      -0.348  12.430  20.508  0.00  0.00    +0.000 C 
ATOM      9  C   UNL     1      -1.442  11.547  19.913  0.00  0.00    +0.000 C 
ATOM     10  N   UNL     1      -0.684  13.270  21.583  0.00  0.00    +0.000 N 
ATOM     11  C   UNL     1       0.220  14.168  22.171  0.00  0.00    +0.000 C 
ATOM     12  O   UNL     1      -0.059  14.891  23.137  0.00  0.00    +0.000 OA
ATOM     13  C   UNL     1       1.637  14.211  21.661  0.00  0.00    +0.000 C 
ATOM     14  C   UNL     1       1.951  13.435  20.387  0.00  0.00    +0.000 C 
ENDROOT
BRANCH  10  15
ATOM     15  C   UNL     1      -1.983  13.225  22.194  0.00  0.00    +0.000 A 
ATOM     16  C   UNL     1      -3.002  14.077  21.733  0.00  0.00    +0.000 A 
ATOM     17  C   UNL     1      -4.264  14.054  22.332  0.00  0.00    +0.000 A 
ATOM     18  C   UNL     1      -4.502  13.183  23.388  0.00  0.00    +0.000 A 
ATOM     19  F   UNL     1      -5.709  13.168  23.970  0.00  0.00    +0.000 F 
ATOM     20  C   UNL     1      -3.509  12.328  23.853  0.00  0.00    +0.000 A 
ATOM     21  C   UNL     1      -2.247  12.351  23.258  0.00  0.00    +0.000 A 
ENDBRANCH  10  15
BRANCH  14  22
ATOM     22  C   UNL     1       2.306  14.430  19.294  0.00  0.00    +0.000 A 
ATOM     23  C   UNL     1       1.392  15.384  18.829  0.00  0.00    +0.000 A 
ATOM     24  C   UNL     1       1.796  16.323  17.892  0.00  0.00    +0.000 A 
ATOM     25  C   UNL     1       3.104  16.270  17.434  0.00  0.00    +0.000 A 
ATOM     26  N   UNL     1       4.005  15.352  17.836  0.00  0.00    +0.000 NA
ATOM     27  C   UNL     1       3.590  14.446  18.749  0.00  0.00    +0.000 A 
ENDBRANCH  14  22
TORSDOF 2
ENDMDL
MODEL 9
REMARK VINA RESULT:      -5.9      8.935     10.837
REMARK  Name = 
REMARK  4 active torsions:
REMARK  status: ('A' for Active; 'I' for Inactive)
REMARK    1  A    between atoms: C_1  and  C_2
REMARK    2  A    between atoms: C_2  and  C_3
REMARK    3  A    between atoms: N_10  and  C_11
REMARK    4  A    between atoms: C_21  and  C_22
REMARK                            x       y       z     vdW  Elec       q    Type
REMARK                         _______ _______ _______ _____ _____    ______ ____
ROOT
ATOM      1  C   UNL     1      -0.813  10.258  19.651  0.00  0.00    +0.000 C 
ATOM      2  C   UNL     1      -0.565  11.775  19.743  0.00  0.00    +0.000 C 
ATOM      3  C   UNL     1      -1.105  12.427  18.452  0.00  0.00    +0.000 C 
ATOM      4  C   UNL     1       0.930  12.038  19.918  0.00  0.00    +0.000 C 
ATOM      5  C   UNL     1       1.197  13.514  20.086  0.00  0.00    +0.000 C 
ATOM      6  O   UNL     1       2.234  14.014  19.647  0.00  0.00    +0.000 OA
ATOM      7  C   UNL     1       0.214  14.337  20.868  0.00  0.00    +0.000 C 
ATOM      8  C   UNL     1      -0.906  13.768  21.355  0.00  0.00    +0.000 C 
ATOM      9  C   UNL     1      -1.286  12.336  20.985  0.00  0.00    +0.000 C 
ATOM     10  N   UNL     1      -1.805  14.511  22.137  0.00  0.00    +0.000 N 
ATOM     11  C   UNL     1      -1.594  15.853  22.488  0.00  0.00    +0.000 C 
ATOM     12  O   UNL     1      -2.367  16.508  23.200  0.00  0.00    +0.000 OA
ATOM     13  C   UNL     1      -0.322  16.528  22.047  0.00  0.00    +0.000 C 
ATOM     14  C   UNL     1       0.564  15.783  21.055  0.00  0.00    +0.000 C 
ENDROOT
BRANCH  10  15
ATOM     15  C   UNL     1      -2.996  13.919  22.681  0.00  0.00    +0.000 A 
ATOM     16  C   UNL     1      -4.206  14.005  21.970  0.00  0.00    +0.000 A 
ATOM     17  C   UNL     1      -5.373  13.448  22.498  0.00  0.00    +0.000 A 
ATOM     18  C   UNL     1      -5.328  12.811  23.732  0.00  0.00    +0.000 A 
ATOM     19  F   UNL     1      -6.450  12.286  24.243  0.00  0.00    +0.000 F 
ATOM     20  C   UNL     1      -4.139  12.711  24.446  0.00  0.00    +0.000 A 
ATOM     21  C   UNL     1      -2.973  13.268  23.921  0.00  0.00    +0.000 A 
ENDBRANCH  10  15
BRANCH  14  22
ATOM     22  C   UNL     1       0.570  16.551  19.744  0.00  0.00    +0.000 A 
ATOM     23  C   UNL     1      -0.517  16.525  18.861  0.00  0.00    +0.000 A 
ATOM     24  C   UNL     1      -0.495  17.312  17.720  0.00  0.00    +0.000 A 
ATOM     25  C   UNL     1       0.626  18.095  17.487  0.00  0.00    +0.000 A 
ATOM     26  N   UNL     1       1.704  18.127  18.296  0.00  0.00    +0.000 NA
ATOM     27  C   UNL     1       1.660  17.350  19.402  0.00  0.00    +0.000 A 
ENDBRANCH  14  22
TORSDOF 2
ENDMDL
