MODEL 1
REMARK VINA RESULT:      -7.2      0.000      0.000
REMARK  Name = 
REMARK  6 active torsions:
REMARK  status: ('A' for Active; 'I' for Inactive)
REMARK    1  A    between atoms: C_1  and  C_2
REMARK    2  A    between atoms: N_10  and  C_11
REMARK    3  A    between atoms: C_11  and  C_12
REMARK    4  A    between atoms: C_17  and  C_18
REMARK    5  A    between atoms: N_25  and  C_26
REMARK    6  A    between atoms: C_26  and  C_27
REMARK                            x       y       z     vdW  Elec       q    Type
REMARK                         _______ _______ _______ _____ _____    ______ ____
ROOT
ATOM      1  C   UNL     1      -6.532  13.145  22.491  0.00  0.00    +0.000 C 
ATOM      2  O   UNL     1      -6.305  12.094  23.089  0.00  0.00    +0.000 OA
ATOM      3  N   UNL     1      -5.861  14.338  22.748  0.00  0.00    +0.000 N 
ATOM      4  C   UNL     1      -6.468  15.565  22.245  0.00  0.00    +0.000 C 
ATOM      5  C   UNL     1      -5.499  16.679  22.502  0.00  0.00    +0.000 C 
ATOM      6  C   UNL     1      -4.656  16.152  23.652  0.00  0.00    +0.000 C 
ATOM      7  C   UNL     1      -4.818  17.035  24.901  0.00  0.00    +0.000 C 
ATOM      8  C   UNL     1      -3.230  15.881  23.284  0.00  0.00    +0.000 A 
ATOM      9  C   UNL     1      -2.407  16.318  22.262  0.00  0.00    +0.000 A 
ATOM     10  C   UNL     1      -1.052  15.993  22.317  0.00  0.00    +0.000 A 
ATOM     11  C   UNL     1      -0.549  15.326  23.435  0.00  0.00    +0.000 A 
ATOM     12  C   UNL     1      -1.435  14.715  24.320  0.00  0.00    +0.000 A 
ATOM     13  C   UNL     1      -2.791  14.845  24.084  0.00  0.00    +0.000 A 
ATOM     14  N   UNL     1      -3.856  13.990  24.480  0.00  0.00    +0.000 N 
ATOM     15  C   UNL     1      -5.104  14.683  23.984  0.00  0.00    +0.000 C 
ENDROOT
BRANCH   1  16
ATOM     16  C   UNL     1      -7.690  13.158  21.481  0.00  0.00    +0.000 C 
BRANCH  16  26
ATOM     17  C   UNL     1      -7.468  10.386  20.371  0.00  0.00    +0.000 C 
ATOM     18  C   UNL     1      -7.370  11.617  19.544  0.00  0.00    +0.000 A 
ATOM     19  N   UNL     1      -7.209  11.646  18.244  0.00  0.00    +0.000 NA
ATOM     20  C   UNL     1      -7.144  12.964  17.893  0.00  0.00    +0.000 A 
ATOM     21  C   UNL     1      -6.966  13.515  16.619  0.00  0.00    +0.000 A 
ATOM     22  C   UNL     1      -6.959  14.904  16.477  0.00  0.00    +0.000 A 
ATOM     23  C   UNL     1      -7.101  15.721  17.595  0.00  0.00    +0.000 A 
ATOM     24  C   UNL     1      -7.262  15.179  18.886  0.00  0.00    +0.000 A 
ATOM     25  C   UNL     1      -7.280  13.786  19.015  0.00  0.00    +0.000 A 
ATOM     26  N   UNL     1      -7.433  12.914  20.076  0.00  0.00    +0.000 N 
ENDBRANCH  16  26
ENDBRANCH   1  16
BRANCH  14  27
ATOM     27  C   UNL     1      -3.630  12.592  24.076  0.00  0.00    +0.000 C 
BRANCH  27  28
ATOM     28  C   UNL     1      -2.767  12.305  22.851  0.00  0.00    +0.000 A 
ATOM     29  C   UNL     1      -3.075  12.763  21.566  0.00  0.00    +0.000 A 
ATOM     30  C   UNL     1      -2.164  12.600  20.515  0.00  0.00    +0.000 A 
ATOM     31  C   UNL     1      -0.919  12.012  20.739  0.00  0.00    +0.000 A 
ATOM     32  C   UNL     1      -0.590  11.562  22.015  0.00  0.00    +0.000 A 
ATOM     33  C   UNL     1      -1.509  11.704  23.056  0.00  0.00    +0.000 A 
ENDBRANCH  27  28
ENDBRANCH  14  27
TORSDOF 4
ENDMDL
MODEL 2
REMARK VINA RESULT:      -7.1      5.483      8.282
REMARK  Name = 
REMARK  6 active torsions:
REMARK  status: ('A' for Active; 'I' for Inactive)
REMARK    1  A    between atoms: C_1  and  C_2
REMARK    2  A    between atoms: N_10  and  C_11
REMARK    3  A    between atoms: C_11  and  C_12
REMARK    4  A    between atoms: C_17  and  C_18
REMARK    5  A    between atoms: N_25  and  C_26
REMARK    6  A    between atoms: C_26  and  C_27
REMARK                            x       y       z     vdW  Elec       q    Type
REMARK                         _______ _______ _______ _____ _____    ______ ____
ROOT
ATOM      1  C   UNL     1       0.826  12.704  19.998  0.00  0.00    +0.000 C 
ATOM      2  O   UNL     1       2.021  12.518  19.772  0.00  0.00    +0.000 OA
ATOM      3  N   UNL     1       0.255  13.966  20.137  0.00  0.00    +0.000 N 
ATOM      4  C   UNL     1      -1.064  14.037  20.757  0.00  0.00    +0.000 C 
ATOM      5  C   UNL     1      -1.529  15.458  20.653  0.00  0.00    +0.000 C 
ATOM      6  C   UNL     1      -0.235  16.242  20.516  0.00  0.00    +0.000 C 
ATOM      7  C   UNL     1      -0.044  17.199  21.704  0.00  0.00    +0.000 C 
ATOM      8  C   UNL     1      -0.060  16.895  19.180  0.00  0.00    +0.000 A 
ATOM      9  C   UNL     1      -0.934  17.253  18.170  0.00  0.00    +0.000 A 
ATOM     10  C   UNL     1      -0.444  18.016  17.109  0.00  0.00    +0.000 A 
ATOM     11  C   UNL     1       0.874  18.473  17.141  0.00  0.00    +0.000 A 
ATOM     12  C   UNL     1       1.769  17.910  18.048  0.00  0.00    +0.000 A 
ATOM     13  C   UNL     1       1.297  16.953  18.928  0.00  0.00    +0.000 A 
ATOM     14  N   UNL     1       2.005  15.908  19.581  0.00  0.00    +0.000 N 
ATOM     15  C   UNL     1       0.970  15.235  20.453  0.00  0.00    +0.000 C 
ENDROOT
BRANCH   1  16
ATOM     16  C   UNL     1      -0.057  11.470  20.238  0.00  0.00    +0.000 C 
BRANCH  16  26
ATOM     17  C   UNL     1      -0.230  10.040  22.863  0.00  0.00    +0.000 C 
ATOM     18  C   UNL     1       0.433   9.477  21.658  0.00  0.00    +0.000 A 
ATOM     19  N   UNL     1       0.989   8.293  21.583  0.00  0.00    +0.000 NA
ATOM     20  C   UNL     1       1.499   8.187  20.319  0.00  0.00    +0.000 A 
ATOM     21  C   UNL     1       2.198   7.114  19.754  0.00  0.00    +0.000 A 
ATOM     22  C   UNL     1       2.607   7.201  18.422  0.00  0.00    +0.000 A 
ATOM     23  C   UNL     1       2.344   8.351  17.683  0.00  0.00    +0.000 A 
ATOM     24  C   UNL     1       1.658   9.446  18.247  0.00  0.00    +0.000 A 
ATOM     25  C   UNL     1       1.241   9.343  19.579  0.00  0.00    +0.000 A 
ATOM     26  N   UNL     1       0.548  10.169  20.443  0.00  0.00    +0.000 N 
ENDBRANCH  16  26
ENDBRANCH   1  16
BRANCH  14  27
ATOM     27  C   UNL     1       2.768  15.074  18.638  0.00  0.00    +0.000 C 
BRANCH  27  28
ATOM     28  C   UNL     1       4.271  14.914  18.840  0.00  0.00    +0.000 A 
ATOM     29  C   UNL     1       5.185  14.804  17.787  0.00  0.00    +0.000 A 
ATOM     30  C   UNL     1       6.563  14.817  18.035  0.00  0.00    +0.000 A 
ATOM     31  C   UNL     1       7.050  14.977  19.334  0.00  0.00    +0.000 A 
ATOM     32  C   UNL     1       6.155  15.101  20.393  0.00  0.00    +0.000 A 
ATOM     33  C   UNL     1       4.781  15.064  20.146  0.00  0.00    +0.000 A 
ENDBRANCH  27  28
ENDBRANCH  14  27
TORSDOF 4
ENDMDL
MODEL 3
REMARK VINA RESULT:      -7.1      2.395      3.898
REMARK  Name = 
REMARK  6 active torsions:
REMARK  status: ('A' for Active; 'I' for Inactive)
REMARK    1  A    between atoms: C_1  and  C_2
REMARK    2  A    between atoms: N_10  and  C_11
REMARK    3  A    between atoms: C_11  and  C_12
REMARK    4  A    between atoms: C_17  and  C_18
REMARK    5  A    between atoms: N_25  and  C_26
REMARK    6  A    between atoms: C_26  and  C_27
REMARK                            x       y       z     vdW  Elec       q    Type
REMARK                         _______ _______ _______ _____ _____    ______ ____
ROOT
ATOM      1  C   UNL     1      -3.518  13.619  22.519  0.00  0.00    +0.000 C 
ATOM      2  O   UNL     1      -3.199  12.653  23.210  0.00  0.00    +0.000 OA
ATOM      3  N   UNL     1      -2.599  14.500  21.955  0.00  0.00    +0.000 N 
ATOM      4  C   UNL     1      -3.109  15.783  21.482  0.00  0.00    +0.000 C 
ATOM      5  C   UNL     1      -1.981  16.481  20.784  0.00  0.00    +0.000 C 
ATOM      6  C   UNL     1      -0.743  15.843  21.394  0.00  0.00    +0.000 C 
ATOM      7  C   UNL     1       0.097  16.886  22.150  0.00  0.00    +0.000 C 
ATOM      8  C   UNL     1       0.048  15.013  20.431  0.00  0.00    +0.000 A 
ATOM      9  C   UNL     1       0.128  14.966  19.051  0.00  0.00    +0.000 A 
ATOM     10  C   UNL     1       1.117  14.172  18.471  0.00  0.00    +0.000 A 
ATOM     11  C   UNL     1       2.049  13.528  19.287  0.00  0.00    +0.000 A 
ATOM     12  C   UNL     1       1.799  13.419  20.653  0.00  0.00    +0.000 A 
ATOM     13  C   UNL     1       0.656  14.010  21.160  0.00  0.00    +0.000 A 
ATOM     14  N   UNL     1      -0.085  13.676  22.326  0.00  0.00    +0.000 N 
ATOM     15  C   UNL     1      -1.188  14.707  22.385  0.00  0.00    +0.000 C 
ENDROOT
BRANCH   1  16
ATOM     16  C   UNL     1      -5.016  13.921  22.359  0.00  0.00    +0.000 C 
BRANCH  16  26
ATOM     17  C   UNL     1      -7.307  12.993  24.047  0.00  0.00    +0.000 C 
ATOM     18  C   UNL     1      -7.025  12.476  22.683  0.00  0.00    +0.000 A 
ATOM     19  N   UNL     1      -7.746  11.588  22.044  0.00  0.00    +0.000 NA
ATOM     20  C   UNL     1      -7.126  11.379  20.845  0.00  0.00    +0.000 A 
ATOM     21  C   UNL     1      -7.503  10.511  19.814  0.00  0.00    +0.000 A 
ATOM     22  C   UNL     1      -6.737  10.474  18.647  0.00  0.00    +0.000 A 
ATOM     23  C   UNL     1      -5.601  11.271  18.531  0.00  0.00    +0.000 A 
ATOM     24  C   UNL     1      -5.200  12.135  19.570  0.00  0.00    +0.000 A 
ATOM     25  C   UNL     1      -5.983  12.173  20.730  0.00  0.00    +0.000 A 
ATOM     26  N   UNL     1      -5.925  12.884  21.913  0.00  0.00    +0.000 N 
ENDBRANCH  16  26
ENDBRANCH   1  16
BRANCH  14  27
ATOM     27  C   UNL     1      -0.460  12.253  22.362  0.00  0.00    +0.000 C 
BRANCH  27  28
ATOM     28  C   UNL     1      -0.638  11.501  21.046  0.00  0.00    +0.000 A 
ATOM     29  C   UNL     1      -1.571  11.863  20.069  0.00  0.00    +0.000 A 
ATOM     30  C   UNL     1      -1.577  11.231  18.820  0.00  0.00    +0.000 A 
ATOM     31  C   UNL     1      -0.629  10.253  18.514  0.00  0.00    +0.000 A 
ATOM     32  C   UNL     1       0.316   9.889  19.470  0.00  0.00    +0.000 A 
ATOM     33  C   UNL     1       0.306  10.504  20.723  0.00  0.00    +0.000 A 
ENDBRANCH  27  28
ENDBRANCH  14  27
TORSDOF 4
ENDMDL
MODEL 4
REMARK VINA RESULT:      -7.0      2.196      3.532
REMARK  Name = 
REMARK  6 active torsions:
REMARK  status: ('A' for Active; 'I' for Inactive)
REMARK    1  A    between atoms: C_1  and  C_2
REMARK    2  A    between atoms: N_10  and  C_11
REMARK    3  A    between atoms: C_11  and  C_12
REMARK    4  A    between atoms: C_17  and  C_18
REMARK    5  A    between atoms: N_25  and  C_26
REMARK    6  A    between atoms: C_26  and  C_27
REMARK                            x       y       z     vdW  Elec       q    Type
REMARK                         _______ _______ _______ _____ _____    ______ ____
ROOT
ATOM      1  C   UNL     1      -3.777  13.071  22.665  0.00  0.00    +0.000 C 
ATOM      2  O   UNL     1      -3.381  12.032  23.192  0.00  0.00    +0.000 OA
ATOM      3  N   UNL     1      -2.933  14.110  22.281  0.00  0.00    +0.000 N 
ATOM      4  C   UNL     1      -3.550  15.406  22.017  0.00  0.00    +0.000 C 
ATOM      5  C   UNL     1      -2.481  16.307  21.477  0.00  0.00    +0.000 C 
ATOM      6  C   UNL     1      -1.198  15.684  22.004  0.00  0.00    +0.000 C 
ATOM      7  C   UNL     1      -0.464  16.652  22.946  0.00  0.00    +0.000 C 
ATOM      8  C   UNL     1      -0.325  15.101  20.936  0.00  0.00    +0.000 A 
ATOM      9  C   UNL     1      -0.225  15.295  19.570  0.00  0.00    +0.000 A 
ATOM     10  C   UNL     1       0.837  14.699  18.892  0.00  0.00    +0.000 A 
ATOM     11  C   UNL     1       1.813  14.008  19.611  0.00  0.00    +0.000 A 
ATOM     12  C   UNL     1       1.558  13.648  20.933  0.00  0.00    +0.000 A 
ATOM     13  C   UNL     1       0.361  14.044  21.501  0.00  0.00    +0.000 A 
ATOM     14  N   UNL     1      -0.360  13.454  22.575  0.00  0.00    +0.000 N 
ATOM     15  C   UNL     1      -1.551  14.362  22.777  0.00  0.00    +0.000 C 
ENDROOT
BRANCH   1  16
ATOM     16  C   UNL     1      -5.293  13.266  22.518  0.00  0.00    +0.000 C 
BRANCH  16  26
ATOM     17  C   UNL     1      -7.916  12.002  23.215  0.00  0.00    +0.000 C 
ATOM     18  C   UNL     1      -7.291  11.917  21.870  0.00  0.00    +0.000 A 
ATOM     19  N   UNL     1      -7.811  11.316  20.829  0.00  0.00    +0.000 NA
ATOM     20  C   UNL     1      -6.906  11.450  19.814  0.00  0.00    +0.000 A 
ATOM     21  C   UNL     1      -6.994  10.969  18.503  0.00  0.00    +0.000 A 
ATOM     22  C   UNL     1      -5.960  11.247  17.609  0.00  0.00    +0.000 A 
ATOM     23  C   UNL     1      -4.847  11.970  18.030  0.00  0.00    +0.000 A 
ATOM     24  C   UNL     1      -4.737  12.444  19.353  0.00  0.00    +0.000 A 
ATOM     25  C   UNL     1      -5.786  12.170  20.238  0.00  0.00    +0.000 A 
ATOM     26  N   UNL     1      -6.041  12.475  21.561  0.00  0.00    +0.000 N 
ENDBRANCH  16  26
ENDBRANCH   1  16
BRANCH  14  27
ATOM     27  C   UNL     1      -0.608  12.019  22.361  0.00  0.00    +0.000 C 
BRANCH  27  28
ATOM     28  C   UNL     1      -0.403  11.432  20.967  0.00  0.00    +0.000 A 
ATOM     29  C   UNL     1       0.594  10.502  20.660  0.00  0.00    +0.000 A 
ATOM     30  C   UNL     1       0.630   9.884  19.403  0.00  0.00    +0.000 A 
ATOM     31  C   UNL     1      -0.350  10.160  18.449  0.00  0.00    +0.000 A 
ATOM     32  C   UNL     1      -1.358  11.074  18.742  0.00  0.00    +0.000 A 
ATOM     33  C   UNL     1      -1.379  11.706  19.987  0.00  0.00    +0.000 A 
ENDBRANCH  27  28
ENDBRANCH  14  27
TORSDOF 4
ENDMDL
MODEL 5
REMARK VINA RESULT:      -7.0      2.813      5.449
REMARK  Name = 
REMARK  6 active torsions:
REMARK  status: ('A' for Active; 'I' for Inactive)
REMARK    1  A    between atoms: C_1  and  C_2
REMARK    2  A    between atoms: N_10  and  C_11
REMARK    3  A    between atoms: C_11  and  C_12
REMARK    4  A    between atoms: C_17  and  C_18
REMARK    5  A    between atoms: N_25  and  C_26
REMARK    6  A    between atoms: C_26  and  C_27
REMARK                            x       y       z     vdW  Elec       q    Type
REMARK                         _______ _______ _______ _____ _____    ______ ____
ROOT
ATOM      1  C   UNL     1      -2.248  12.941  20.875  0.00  0.00    +0.000 C 
ATOM      2  O   UNL     1      -2.095  13.832  20.041  0.00  0.00    +0.000 OA
ATOM      3  N   UNL     1      -2.895  13.128  22.093  0.00  0.00    +0.000 N 
ATOM      4  C   UNL     1      -2.686  12.115  23.122  0.00  0.00    +0.000 C 
ATOM      5  C   UNL     1      -3.594  12.447  24.266  0.00  0.00    +0.000 C 
ATOM      6  C   UNL     1      -3.843  13.937  24.096  0.00  0.00    +0.000 C 
ATOM      7  C   UNL     1      -3.302  14.725  25.300  0.00  0.00    +0.000 C 
ATOM      8  C   UNL     1      -5.256  14.278  23.736  0.00  0.00    +0.000 A 
ATOM      9  C   UNL     1      -6.462  13.613  23.863  0.00  0.00    +0.000 A 
ATOM     10  C   UNL     1      -7.636  14.308  23.573  0.00  0.00    +0.000 A 
ATOM     11  C   UNL     1      -7.572  15.666  23.258  0.00  0.00    +0.000 A 
ATOM     12  C   UNL     1      -6.343  16.232  22.924  0.00  0.00    +0.000 A 
ATOM     13  C   UNL     1      -5.217  15.430  22.976  0.00  0.00    +0.000 A 
ATOM     14  N   UNL     1      -3.991  15.559  22.267  0.00  0.00    +0.000 N 
ATOM     15  C   UNL     1      -3.132  14.427  22.783  0.00  0.00    +0.000 C 
ENDROOT
BRANCH   1  16
ATOM     16  C   UNL     1      -1.598  11.578  20.592  0.00  0.00    +0.000 C 
BRANCH  16  26
ATOM     17  C   UNL     1       0.781  10.110  19.522  0.00  0.00    +0.000 C 
ATOM     18  C   UNL     1      -0.470  10.326  18.751  0.00  0.00    +0.000 A 
ATOM     19  N   UNL     1      -0.700   9.884  17.539  0.00  0.00    +0.000 NA
ATOM     20  C   UNL     1      -1.948  10.324  17.199  0.00  0.00    +0.000 A 
ATOM     21  C   UNL     1      -2.641  10.123  16.000  0.00  0.00    +0.000 A 
ATOM     22  C   UNL     1      -3.932  10.639  15.870  0.00  0.00    +0.000 A 
ATOM     23  C   UNL     1      -4.502  11.365  16.912  0.00  0.00    +0.000 A 
ATOM     24  C   UNL     1      -3.807  11.591  18.117  0.00  0.00    +0.000 A 
ATOM     25  C   UNL     1      -2.519  11.059  18.241  0.00  0.00    +0.000 A 
ATOM     26  N   UNL     1      -1.567  11.052  19.242  0.00  0.00    +0.000 N 
ENDBRANCH  16  26
ENDBRANCH   1  16
BRANCH  14  27
ATOM     27  C   UNL     1      -4.195  15.670  20.813  0.00  0.00    +0.000 C 
BRANCH  27  28
ATOM     28  C   UNL     1      -5.427  15.022  20.187  0.00  0.00    +0.000 A 
ATOM     29  C   UNL     1      -5.731  13.662  20.309  0.00  0.00    +0.000 A 
ATOM     30  C   UNL     1      -6.954  13.161  19.846  0.00  0.00    +0.000 A 
ATOM     31  C   UNL     1      -7.905  14.015  19.287  0.00  0.00    +0.000 A 
ATOM     32  C   UNL     1      -7.625  15.374  19.168  0.00  0.00    +0.000 A 
ATOM     33  C   UNL     1      -6.396  15.868  19.609  0.00  0.00    +0.000 A 
ENDBRANCH  27  28
ENDBRANCH  14  27
TORSDOF 4
ENDMDL
MODEL 6
REMARK VINA RESULT:      -6.9      6.004      9.566
REMARK  Name = 
REMARK  6 active torsions:
REMARK  status: ('A' for Active; 'I' for Inactive)
REMARK    1  A    between atoms: C_1  and  C_2
REMARK    2  A    between atoms: N_10  and  C_11
REMARK    3  A    between atoms: C_11  and  C_12
REMARK    4  A    between atoms: C_17  and  C_18
REMARK    5  A    between atoms: N_25  and  C_26
REMARK    6  A    between atoms: C_26  and  C_27
REMARK                            x       y       z     vdW  Elec       q    Type
REMARK                         _______ _______ _______ _____ _____    ______ ____
ROOT
ATOM      1  C   UNL     1       2.115  13.020  18.345  0.00  0.00    +0.000 C 
ATOM      2  O   UNL     1       2.804  12.102  17.901  0.00  0.00    +0.000 OA
ATOM      3  N   UNL     1       0.877  12.829  18.953  0.00  0.00    +0.000 N 
ATOM      4  C   UNL     1       0.017  13.999  19.094  0.00  0.00    +0.000 C 
ATOM      5  C   UNL     1      -1.172  13.582  19.906  0.00  0.00    +0.000 C 
ATOM      6  C   UNL     1      -1.233  12.079  19.693  0.00  0.00    +0.000 C 
ATOM      7  C   UNL     1      -2.539  11.676  18.988  0.00  0.00    +0.000 C 
ATOM      8  C   UNL     1      -0.941  11.280  20.925  0.00  0.00    +0.000 A 
ATOM      9  C   UNL     1      -0.974  11.563  22.278  0.00  0.00    +0.000 A 
ATOM     10  C   UNL     1      -0.803  10.512  23.180  0.00  0.00    +0.000 A 
ATOM     11  C   UNL     1      -0.698   9.205  22.702  0.00  0.00    +0.000 A 
ATOM     12  C   UNL     1      -0.445   8.992  21.348  0.00  0.00    +0.000 A 
ATOM     13  C   UNL     1      -0.365  10.093  20.515  0.00  0.00    +0.000 A 
ATOM     14  N   UNL     1       0.326  10.235  19.281  0.00  0.00    +0.000 N 
ATOM     15  C   UNL     1      -0.005  11.635  18.818  0.00  0.00    +0.000 C 
ENDROOT
BRANCH   1  16
ATOM     16  C   UNL     1       2.608  14.457  18.120  0.00  0.00    +0.000 C 
BRANCH  16  26
ATOM     17  C   UNL     1       2.185  15.928  20.692  0.00  0.00    +0.000 C 
ATOM     18  C   UNL     1       3.524  15.630  20.123  0.00  0.00    +0.000 A 
ATOM     19  N   UNL     1       4.670  15.939  20.678  0.00  0.00    +0.000 NA
ATOM     20  C   UNL     1       5.643  15.511  19.819  0.00  0.00    +0.000 A 
ATOM     21  C   UNL     1       7.031  15.621  19.955  0.00  0.00    +0.000 A 
ATOM     22  C   UNL     1       7.853  15.084  18.964  0.00  0.00    +0.000 A 
ATOM     23  C   UNL     1       7.292  14.475  17.845  0.00  0.00    +0.000 A 
ATOM     24  C   UNL     1       5.895  14.375  17.686  0.00  0.00    +0.000 A 
ATOM     25  C   UNL     1       5.081  14.905  18.692  0.00  0.00    +0.000 A 
ATOM     26  N   UNL     1       3.716  14.977  18.895  0.00  0.00    +0.000 N 
ENDBRANCH  16  26
ENDBRANCH   1  16
BRANCH  14  27
ATOM     27  C   UNL     1       1.744   9.854  19.387  0.00  0.00    +0.000 C 
BRANCH  27  28
ATOM     28  C   UNL     1       2.171   8.457  18.946  0.00  0.00    +0.000 A 
ATOM     29  C   UNL     1       2.812   8.193  17.731  0.00  0.00    +0.000 A 
ATOM     30  C   UNL     1       3.318   6.916  17.456  0.00  0.00    +0.000 A 
ATOM     31  C   UNL     1       3.224   5.896  18.403  0.00  0.00    +0.000 A 
ATOM     32  C   UNL     1       2.601   6.144  19.623  0.00  0.00    +0.000 A 
ATOM     33  C   UNL     1       2.076   7.411  19.886  0.00  0.00    +0.000 A 
ENDBRANCH  27  28
ENDBRANCH  14  27
TORSDOF 4
ENDMDL
MODEL 7
REMARK VINA RESULT:      -6.9      9.688     12.726
REMARK  Name = 
REMARK  6 active torsions:
REMARK  status: ('A' for Active; 'I' for Inactive)
REMARK    1  A    between atoms: C_1  and  C_2
REMARK    2  A    between atoms: N_10  and  C_11
REMARK    3  A    between atoms: C_11  and  C_12
REMARK    4  A    between atoms: C_17  and  C_18
REMARK    5  A    between atoms: N_25  and  C_26
REMARK    6  A    between atoms: C_26  and  C_27
REMARK                            x       y       z     vdW  Elec       q    Type
REMARK                         _______ _______ _______ _____ _____    ______ ____
ROOT
ATOM      1  C   UNL     1       6.600  15.090  19.618  0.00  0.00    +0.000 C 
ATOM      2  O   UNL     1       6.294  14.585  20.697  0.00  0.00    +0.000 OA
ATOM      3  N   UNL     1       7.912  15.201  19.163  0.00  0.00    +0.000 N 
ATOM      4  C   UNL     1       8.160  16.131  18.067  0.00  0.00    +0.000 C 
ATOM      5  C   UNL     1       9.591  15.961  17.654  0.00  0.00    +0.000 C 
ATOM      6  C   UNL     1      10.248  15.383  18.897  0.00  0.00    +0.000 C 
ATOM      7  C   UNL     1      11.322  16.337  19.446  0.00  0.00    +0.000 C 
ATOM      8  C   UNL     1      10.721  13.972  18.731  0.00  0.00    +0.000 A 
ATOM      9  C   UNL     1      11.025  13.189  17.633  0.00  0.00    +0.000 A 
ATOM     10  C   UNL     1      11.615  11.943  17.850  0.00  0.00    +0.000 A 
ATOM     11  C   UNL     1      11.965  11.564  19.146  0.00  0.00    +0.000 A 
ATOM     12  C   UNL     1      11.445  12.271  20.228  0.00  0.00    +0.000 A 
ATOM     13  C   UNL     1      10.641  13.366  19.969  0.00  0.00    +0.000 A 
ATOM     14  N   UNL     1       9.628  13.946  20.781  0.00  0.00    +0.000 N 
ATOM     15  C   UNL     1       9.148  15.143  19.993  0.00  0.00    +0.000 C 
ENDROOT
BRANCH   1  16
ATOM     16  C   UNL     1       5.478  15.721  18.779  0.00  0.00    +0.000 C 
BRANCH  16  26
ATOM     17  C   UNL     1       4.324  17.873  20.510  0.00  0.00    +0.000 C 
ATOM     18  C   UNL     1       3.549  16.703  20.022  0.00  0.00    +0.000 A 
ATOM     19  N   UNL     1       2.279  16.484  20.255  0.00  0.00    +0.000 NA
ATOM     20  C   UNL     1       1.976  15.296  19.652  0.00  0.00    +0.000 A 
ATOM     21  C   UNL     1       0.748  14.625  19.625  0.00  0.00    +0.000 A 
ATOM     22  C   UNL     1       0.647  13.426  18.918  0.00  0.00    +0.000 A 
ATOM     23  C   UNL     1       1.763  12.898  18.274  0.00  0.00    +0.000 A 
ATOM     24  C   UNL     1       3.010  13.554  18.310  0.00  0.00    +0.000 A 
ATOM     25  C   UNL     1       3.096  14.762  19.011  0.00  0.00    +0.000 A 
ATOM     26  N   UNL     1       4.106  15.675  19.245  0.00  0.00    +0.000 N 
ENDBRANCH  16  26
ENDBRANCH   1  16
BRANCH  14  27
ATOM     27  C   UNL     1       8.630  12.957  21.221  0.00  0.00    +0.000 C 
BRANCH  27  28
ATOM     28  C   UNL     1       8.292  12.856  22.706  0.00  0.00    +0.000 A 
ATOM     29  C   UNL     1       7.863  11.676  23.321  0.00  0.00    +0.000 A 
ATOM     30  C   UNL     1       7.721  11.609  24.713  0.00  0.00    +0.000 A 
ATOM     31  C   UNL     1       8.040  12.707  25.513  0.00  0.00    +0.000 A 
ATOM     32  C   UNL     1       8.481  13.886  24.918  0.00  0.00    +0.000 A 
ATOM     33  C   UNL     1       8.600  13.958  23.529  0.00  0.00    +0.000 A 
ENDBRANCH  27  28
ENDBRANCH  14  27
TORSDOF 4
ENDMDL
MODEL 8
REMARK VINA RESULT:      -6.9      3.825      7.283
REMARK  Name = 
REMARK  6 active torsions:
REMARK  status: ('A' for Active; 'I' for Inactive)
REMARK    1  A    between atoms: C_1  and  C_2
REMARK    2  A    between atoms: N_10  and  C_11
REMARK    3  A    between atoms: C_11  and  C_12
REMARK    4  A    between atoms: C_17  and  C_18
REMARK    5  A    between atoms: N_25  and  C_26
REMARK    6  A    between atoms: C_26  and  C_27
REMARK                            x       y       z     vdW  Elec       q    Type
REMARK                         _______ _______ _______ _____ _____    ______ ____
ROOT
ATOM      1  C   UNL     1      -1.499  11.574  20.330  0.00  0.00    +0.000 C 
ATOM      2  O   UNL     1      -1.717  10.952  19.291  0.00  0.00    +0.000 OA
ATOM      3  N   UNL     1      -2.384  12.502  20.872  0.00  0.00    +0.000 N 
ATOM      4  C   UNL     1      -1.855  13.418  21.878  0.00  0.00    +0.000 C 
ATOM      5  C   UNL     1      -3.012  14.201  22.419  0.00  0.00    +0.000 C 
ATOM      6  C   UNL     1      -4.041  14.124  21.303  0.00  0.00    +0.000 C 
ATOM      7  C   UNL     1      -4.349  15.522  20.741  0.00  0.00    +0.000 C 
ATOM      8  C   UNL     1      -5.262  13.333  21.658  0.00  0.00    +0.000 A 
ATOM      9  C   UNL     1      -5.841  12.954  22.856  0.00  0.00    +0.000 A 
ATOM     10  C   UNL     1      -7.098  12.352  22.823  0.00  0.00    +0.000 A 
ATOM     11  C   UNL     1      -7.774  12.234  21.608  0.00  0.00    +0.000 A 
ATOM     12  C   UNL     1      -7.073  12.418  20.418  0.00  0.00    +0.000 A 
ATOM     13  C   UNL     1      -5.738  12.769  20.491  0.00  0.00    +0.000 A 
ATOM     14  N   UNL     1      -4.701  12.553  19.543  0.00  0.00    +0.000 N 
ATOM     15  C   UNL     1      -3.483  13.206  20.155  0.00  0.00    +0.000 C 
ENDROOT
BRANCH   1  16
ATOM     16  C   UNL     1      -0.131  11.384  21.003  0.00  0.00    +0.000 C 
BRANCH  16  26
ATOM     17  C   UNL     1       0.027   9.529  23.347  0.00  0.00    +0.000 C 
ATOM     18  C   UNL     1       0.589   9.217  22.008  0.00  0.00    +0.000 A 
ATOM     19  N   UNL     1       1.187   8.098  21.678  0.00  0.00    +0.000 NA
ATOM     20  C   UNL     1       1.570   8.235  20.374  0.00  0.00    +0.000 A 
ATOM     21  C   UNL     1       2.255   7.317  19.570  0.00  0.00    +0.000 A 
ATOM     22  C   UNL     1       2.523   7.649  18.241  0.00  0.00    +0.000 A 
ATOM     23  C   UNL     1       2.135   8.888  17.739  0.00  0.00    +0.000 A 
ATOM     24  C   UNL     1       1.462   9.829  18.544  0.00  0.00    +0.000 A 
ATOM     25  C   UNL     1       1.187   9.480  19.871  0.00  0.00    +0.000 A 
ATOM     26  N   UNL     1       0.549  10.107  20.924  0.00  0.00    +0.000 N 
ENDBRANCH  16  26
ENDBRANCH   1  16
BRANCH  14  27
ATOM     27  C   UNL     1      -4.602  11.142  19.134  0.00  0.00    +0.000 C 
BRANCH  27  28
ATOM     28  C   UNL     1      -4.212  10.813  17.696  0.00  0.00    +0.000 A 
ATOM     29  C   UNL     1      -4.501  11.643  16.609  0.00  0.00    +0.000 A 
ATOM     30  C   UNL     1      -3.980  11.362  15.339  0.00  0.00    +0.000 A 
ATOM     31  C   UNL     1      -3.134  10.269  15.145  0.00  0.00    +0.000 A 
ATOM     32  C   UNL     1      -2.825   9.439  16.219  0.00  0.00    +0.000 A 
ATOM     33  C   UNL     1      -3.364   9.708  17.479  0.00  0.00    +0.000 A 
ENDBRANCH  27  28
ENDBRANCH  14  27
TORSDOF 4
ENDMDL
MODEL 9
REMARK VINA RESULT:      -6.9      3.155      5.009
REMARK  Name = 
REMARK  6 active torsions:
REMARK  status: ('A' for Active; 'I' for Inactive)
REMARK    1  A    between atoms: C_1  and  C_2
REMARK    2  A    between atoms: N_10  and  C_11
REMARK    3  A    between atoms: C_11  and  C_12
REMARK    4  A    between atoms: C_17  and  C_18
REMARK    5  A    between atoms: N_25  and  C_26
REMARK    6  A    between atoms: C_26  and  C_27
REMARK                            x       y       z     vdW  Elec       q    Type
REMARK                         _______ _______ _______ _____ _____    ______ ____
ROOT
ATOM      1  C   UNL     1      -3.378  12.390  19.641  0.00  0.00    +0.000 C 
ATOM      2  O   UNL     1      -3.120  11.209  19.412  0.00  0.00    +0.000 OA
ATOM      3  N   UNL     1      -2.452  13.297  20.149  0.00  0.00    +0.000 N 
ATOM      4  C   UNL     1      -2.975  14.538  20.711  0.00  0.00    +0.000 C 
ATOM      5  C   UNL     1      -1.799  15.406  21.043  0.00  0.00    +0.000 C 
ATOM      6  C   UNL     1      -0.663  14.410  21.208  0.00  0.00    +0.000 C 
ATOM      7  C   UNL     1      -0.112  14.438  22.644  0.00  0.00    +0.000 C 
ATOM      8  C   UNL     1       0.395  14.517  20.154  0.00  0.00    +0.000 A 
ATOM      9  C   UNL     1       0.772  15.517  19.276  0.00  0.00    +0.000 A 
ATOM     10  C   UNL     1       1.937  15.339  18.529  0.00  0.00    +0.000 A 
ATOM     11  C   UNL     1       2.732  14.214  18.751  0.00  0.00    +0.000 A 
ATOM     12  C   UNL     1       2.208  13.139  19.467  0.00  0.00    +0.000 A 
ATOM     13  C   UNL     1       0.930  13.255  19.982  0.00  0.00    +0.000 A 
ATOM     14  N   UNL     1      -0.006  12.233  20.299  0.00  0.00    +0.000 N 
ATOM     15  C   UNL     1      -1.193  12.969  20.875  0.00  0.00    +0.000 C 
ENDROOT
BRANCH   1  16
ATOM     16  C   UNL     1      -4.830  12.855  19.447  0.00  0.00    +0.000 C 
BRANCH  16  26
ATOM     17  C   UNL     1      -6.540  10.486  18.795  0.00  0.00    +0.000 C 
ATOM     18  C   UNL     1      -6.644  11.255  20.061  0.00  0.00    +0.000 A 
ATOM     19  N   UNL     1      -7.460  10.982  21.050  0.00  0.00    +0.000 NA
ATOM     20  C   UNL     1      -7.253  11.943  21.998  0.00  0.00    +0.000 A 
ATOM     21  C   UNL     1      -7.891  12.094  23.234  0.00  0.00    +0.000 A 
ATOM     22  C   UNL     1      -7.502  13.139  24.073  0.00  0.00    +0.000 A 
ATOM     23  C   UNL     1      -6.512  14.030  23.668  0.00  0.00    +0.000 A 
ATOM     24  C   UNL     1      -5.874  13.900  22.417  0.00  0.00    +0.000 A 
ATOM     25  C   UNL     1      -6.264  12.841  21.589  0.00  0.00    +0.000 A 
ATOM     26  N   UNL     1      -5.869  12.390  20.345  0.00  0.00    +0.000 N 
ENDBRANCH  16  26
ENDBRANCH   1  16
BRANCH  14  27
ATOM     27  C   UNL     1      -0.237  11.317  19.169  0.00  0.00    +0.000 C 
BRANCH  27  28
ATOM     28  C   UNL     1       0.529   9.999  19.116  0.00  0.00    +0.000 A 
ATOM     29  C   UNL     1       1.202   9.541  17.979  0.00  0.00    +0.000 A 
ATOM     30  C   UNL     1       2.015   8.403  18.042  0.00  0.00    +0.000 A 
ATOM     31  C   UNL     1       2.198   7.726  19.248  0.00  0.00    +0.000 A 
ATOM     32  C   UNL     1       1.546   8.174  20.394  0.00  0.00    +0.000 A 
ATOM     33  C   UNL     1       0.717   9.296  20.324  0.00  0.00    +0.000 A 
ENDBRANCH  27  28
ENDBRANCH  14  27
TORSDOF 4
ENDMDL
