MODEL 1
REMARK VINA RESULT:      -7.1      0.000      0.000
REMARK  Name = 
REMARK  12 active torsions:
REMARK  status: ('A' for Active; 'I' for Inactive)
REMARK    1  A    between atoms: C_1  and  N_2
REMARK    2  A    between atoms: N_2  and  C_3
REMARK    3  A    between atoms: C_3  and  C_4
REMARK    4  A    between atoms: C_3  and  C_16
REMARK    5  A    between atoms: C_4  and  C_5
REMARK    6  A    between atoms: C_5  and  O_6
REMARK    7  A    between atoms: O_6  and  C_7
REMARK    8  A    between atoms: C_10  and  N_11
REMARK    9  A    between atoms: C_19  and  O_20
REMARK   10  A    between atoms: O_20  and  C_21
REMARK   11  A    between atoms: N_23  and  C_24
REMARK   12  A    between atoms: N_23  and  C_25
REMARK                            x       y       z     vdW  Elec       q    Type
REMARK                         _______ _______ _______ _____ _____    ______ ____
ROOT
ATOM      1  C   UNL     1       2.389   4.523  19.697  0.00  0.00    +0.000 C 
ENDROOT
BRANCH   1   2
ATOM      2  C   UNL     1       2.144   6.003  19.461  0.00  0.00    +0.000 A 
ATOM      3  C   UNL     1       2.408   6.619  18.225  0.00  0.00    +0.000 A 
ATOM      4  C   UNL     1       2.213   7.999  18.070  0.00  0.00    +0.000 A 
ATOM      5  C   UNL     1       1.750   8.785  19.138  0.00  0.00    +0.000 A 
ATOM      6  C   UNL     1       1.503   8.163  20.377  0.00  0.00    +0.000 A 
ATOM      7  C   UNL     1       1.695   6.794  20.529  0.00  0.00    +0.000 A 
BRANCH   5   8
ATOM      8  O   UNL     1       1.572  10.121  18.929  0.00  0.00    +0.000 OA
BRANCH   8   9
ATOM      9  C   UNL     1       0.399  10.800  18.757  0.00  0.00    +0.000 C 
ATOM     10  O   UNL     1      -0.541  10.263  18.187  0.00  0.00    +0.000 OA
ATOM     11  N   UNL     1       0.291  12.106  19.163  0.00  0.00    +0.000 N 
ATOM     12  C   UNL     1      -0.922  12.878  18.927  0.00  0.00    +0.000 C 
ATOM     13  C   UNL     1       1.387  12.785  19.834  0.00  0.00    +0.000 C 
ENDBRANCH   8   9
ENDBRANCH   5   8
ENDBRANCH   1   2
BRANCH   1  15
ATOM     14  C   UNL     1       1.735   2.924  21.571  0.00  0.00    +0.000 C 
ATOM     15  N   UNL     1       1.484   4.156  20.821  0.00  0.00    +0.000 NA
ATOM     16  H   UNL     1       1.561   4.931  21.523  0.00  0.00    +0.000 HD
ENDBRANCH   1  15
BRANCH   1  17
ATOM     17  C   UNL     1       2.170   3.764  18.340  0.00  0.00    +0.000 C 
BRANCH  17  18
ATOM     18  C   UNL     1       3.169   2.631  18.086  0.00  0.00    +0.000 C 
BRANCH  18  19
ATOM     19  O   UNL     1       4.156   2.957  17.171  0.00  0.00    +0.000 OA
BRANCH  19  20
ATOM     20  C   UNL     1       4.970   4.044  17.334  0.00  0.00    +0.000 A 
ATOM     21  C   UNL     1       5.727   4.238  18.513  0.00  0.00    +0.000 A 
ATOM     22  C   UNL     1       6.560   5.342  18.660  0.00  0.00    +0.000 A 
ATOM     23  C   UNL     1       6.670   6.295  17.639  0.00  0.00    +0.000 A 
ATOM     24  C   UNL     1       5.919   6.113  16.458  0.00  0.00    +0.000 A 
ATOM     25  C   UNL     1       5.078   4.997  16.310  0.00  0.00    +0.000 A 
BRANCH  23  26
ATOM     26  N   UNL     1       7.528   7.432  17.803  0.00  0.00    +0.000 N 
ATOM     27  O   UNL     1       7.415   8.389  17.098  0.00  0.00    +0.000 OA
ATOM     28  O   UNL     1       8.454   7.432  18.737  0.00  0.00    +0.000 OA
ENDBRANCH  23  26
ENDBRANCH  19  20
ENDBRANCH  18  19
ENDBRANCH  17  18
ENDBRANCH   1  17
TORSDOF 9
ENDMDL
MODEL 2
REMARK VINA RESULT:      -7.1      0.920      1.524
REMARK  Name = 
REMARK  12 active torsions:
REMARK  status: ('A' for Active; 'I' for Inactive)
REMARK    1  A    between atoms: C_1  and  N_2
REMARK    2  A    between atoms: N_2  and  C_3
REMARK    3  A    between atoms: C_3  and  C_4
REMARK    4  A    between atoms: C_3  and  C_16
REMARK    5  A    between atoms: C_4  and  C_5
REMARK    6  A    between atoms: C_5  and  O_6
REMARK    7  A    between atoms: O_6  and  C_7
REMARK    8  A    between atoms: C_10  and  N_11
REMARK    9  A    between atoms: C_19  and  O_20
REMARK   10  A    between atoms: O_20  and  C_21
REMARK   11  A    between atoms: N_23  and  C_24
REMARK   12  A    between atoms: N_23  and  C_25
REMARK                            x       y       z     vdW  Elec       q    Type
REMARK                         _______ _______ _______ _____ _____    ______ ____
ROOT
ATOM      1  C   UNL     1       2.325   4.534  19.642  0.00  0.00    +0.000 C 
ENDROOT
BRANCH   1   2
ATOM      2  C   UNL     1       2.095   6.035  19.605  0.00  0.00    +0.000 A 
ATOM      3  C   UNL     1       1.539   6.735  20.691  0.00  0.00    +0.000 A 
ATOM      4  C   UNL     1       1.298   8.113  20.591  0.00  0.00    +0.000 A 
ATOM      5  C   UNL     1       1.609   8.815  19.415  0.00  0.00    +0.000 A 
ATOM      6  C   UNL     1       2.151   8.103  18.327  0.00  0.00    +0.000 A 
ATOM      7  C   UNL     1       2.392   6.737  18.428  0.00  0.00    +0.000 A 
BRANCH   5   8
ATOM      8  O   UNL     1       1.361  10.155  19.375  0.00  0.00    +0.000 OA
BRANCH   8   9
ATOM      9  C   UNL     1       0.725  10.924  20.307  0.00  0.00    +0.000 C 
ATOM     10  O   UNL     1       1.337  11.334  21.284  0.00  0.00    +0.000 OA
ATOM     11  N   UNL     1      -0.617  11.187  20.187  0.00  0.00    +0.000 N 
ATOM     12  C   UNL     1      -1.337  11.944  21.202  0.00  0.00    +0.000 C 
ATOM     13  C   UNL     1      -1.385  10.710  19.048  0.00  0.00    +0.000 C 
ENDBRANCH   8   9
ENDBRANCH   5   8
ENDBRANCH   1   2
BRANCH   1  15
ATOM     14  C   UNL     1       1.848   3.033  21.645  0.00  0.00    +0.000 C 
ATOM     15  N   UNL     1       1.381   4.023  20.674  0.00  0.00    +0.000 NA
ATOM     16  H   UNL     1       1.090   4.856  21.241  0.00  0.00    +0.000 HD
ENDBRANCH   1  15
BRANCH   1  17
ATOM     17  C   UNL     1       2.149   3.973  18.186  0.00  0.00    +0.000 C 
BRANCH  17  18
ATOM     18  C   UNL     1       3.052   2.780  17.860  0.00  0.00    +0.000 C 
BRANCH  18  19
ATOM     19  O   UNL     1       4.086   3.089  16.992  0.00  0.00    +0.000 OA
BRANCH  19  20
ATOM     20  C   UNL     1       4.924   4.148  17.205  0.00  0.00    +0.000 A 
ATOM     21  C   UNL     1       5.692   4.265  18.387  0.00  0.00    +0.000 A 
ATOM     22  C   UNL     1       6.549   5.341  18.586  0.00  0.00    +0.000 A 
ATOM     23  C   UNL     1       6.673   6.344  17.615  0.00  0.00    +0.000 A 
ATOM     24  C   UNL     1       5.911   6.240  16.433  0.00  0.00    +0.000 A 
ATOM     25  C   UNL     1       5.046   5.152  16.232  0.00  0.00    +0.000 A 
BRANCH  23  26
ATOM     26  N   UNL     1       7.557   7.453  17.833  0.00  0.00    +0.000 N 
ATOM     27  O   UNL     1       7.457   8.449  17.183  0.00  0.00    +0.000 OA
ATOM     28  O   UNL     1       8.491   7.383  18.756  0.00  0.00    +0.000 OA
ENDBRANCH  23  26
ENDBRANCH  19  20
ENDBRANCH  18  19
ENDBRANCH  17  18
ENDBRANCH   1  17
TORSDOF 9
ENDMDL
MODEL 3
REMARK VINA RESULT:      -6.9      0.410      1.497
REMARK  Name = 
REMARK  12 active torsions:
REMARK  status: ('A' for Active; 'I' for Inactive)
REMARK    1  A    between atoms: C_1  and  N_2
REMARK    2  A    between atoms: N_2  and  C_3
REMARK    3  A    between atoms: C_3  and  C_4
REMARK    4  A    between atoms: C_3  and  C_16
REMARK    5  A    between atoms: C_4  and  C_5
REMARK    6  A    between atoms: C_5  and  O_6
REMARK    7  A    between atoms: O_6  and  C_7
REMARK    8  A    between atoms: C_10  and  N_11
REMARK    9  A    between atoms: C_19  and  O_20
REMARK   10  A    between atoms: O_20  and  C_21
REMARK   11  A    between atoms: N_23  and  C_24
REMARK   12  A    between atoms: N_23  and  C_25
REMARK                            x       y       z     vdW  Elec       q    Type
REMARK                         _______ _______ _______ _____ _____    ______ ____
ROOT
ATOM      1  C   UNL     1       2.278   4.657  19.590  0.00  0.00    +0.000 C 
ENDROOT
BRANCH   1   2
ATOM      2  C   UNL     1       2.095   6.165  19.552  0.00  0.00    +0.000 A 
ATOM      3  C   UNL     1       1.624   6.891  20.659  0.00  0.00    +0.000 A 
ATOM      4  C   UNL     1       1.423   8.276  20.559  0.00  0.00    +0.000 A 
ATOM      5  C   UNL     1       1.690   8.957  19.361  0.00  0.00    +0.000 A 
ATOM      6  C   UNL     1       2.147   8.219  18.251  0.00  0.00    +0.000 A 
ATOM      7  C   UNL     1       2.348   6.846  18.352  0.00  0.00    +0.000 A 
BRANCH   5   8
ATOM      8  O   UNL     1       1.484  10.304  19.321  0.00  0.00    +0.000 OA
BRANCH   8   9
ATOM      9  C   UNL     1       0.340  10.975  18.992  0.00  0.00    +0.000 C 
ATOM     10  O   UNL     1      -0.730  10.382  18.962  0.00  0.00    +0.000 OA
ATOM     11  N   UNL     1       0.395  12.297  18.630  0.00  0.00    +0.000 N 
ATOM     12  C   UNL     1      -0.797  13.018  18.204  0.00  0.00    +0.000 C 
ATOM     13  C   UNL     1       1.647  13.036  18.640  0.00  0.00    +0.000 C 
ENDBRANCH   8   9
ENDBRANCH   5   8
ENDBRANCH   1   2
BRANCH   1  15
ATOM     14  C   UNL     1       1.654   3.063  21.478  0.00  0.00    +0.000 C 
ATOM     15  N   UNL     1       1.293   4.174  20.597  0.00  0.00    +0.000 NA
ATOM     16  H   UNL     1       1.103   4.986  21.233  0.00  0.00    +0.000 HD
ENDBRANCH   1  15
BRANCH   1  17
ATOM     17  C   UNL     1       2.122   4.104  18.129  0.00  0.00    +0.000 C 
BRANCH  17  18
ATOM     18  C   UNL     1       2.863   2.788  17.873  0.00  0.00    +0.000 C 
BRANCH  18  19
ATOM     19  O   UNL     1       4.004   2.936  17.103  0.00  0.00    +0.000 OA
BRANCH  19  20
ATOM     20  C   UNL     1       4.872   3.979  17.278  0.00  0.00    +0.000 A 
ATOM     21  C   UNL     1       5.118   4.924  16.255  0.00  0.00    +0.000 A 
ATOM     22  C   UNL     1       5.993   5.986  16.452  0.00  0.00    +0.000 A 
ATOM     23  C   UNL     1       6.659   6.147  17.674  0.00  0.00    +0.000 A 
ATOM     24  C   UNL     1       6.423   5.209  18.702  0.00  0.00    +0.000 A 
ATOM     25  C   UNL     1       5.537   4.137  18.503  0.00  0.00    +0.000 A 
BRANCH  23  26
ATOM     26  N   UNL     1       7.564   7.242  17.864  0.00  0.00    +0.000 N 
ATOM     27  O   UNL     1       8.357   7.231  18.756  0.00  0.00    +0.000 OA
ATOM     28  O   UNL     1       7.529   8.277  17.053  0.00  0.00    +0.000 OA
ENDBRANCH  23  26
ENDBRANCH  19  20
ENDBRANCH  18  19
ENDBRANCH  17  18
ENDBRANCH   1  17
TORSDOF 9
ENDMDL
MODEL 4
REMARK VINA RESULT:      -6.8      1.091      1.706
REMARK  Name = 
REMARK  12 active torsions:
REMARK  status: ('A' for Active; 'I' for Inactive)
REMARK    1  A    between atoms: C_1  and  N_2
REMARK    2  A    between atoms: N_2  and  C_3
REMARK    3  A    between atoms: C_3  and  C_4
REMARK    4  A    between atoms: C_3  and  C_16
REMARK    5  A    between atoms: C_4  and  C_5
REMARK    6  A    between atoms: C_5  and  O_6
REMARK    7  A    between atoms: O_6  and  C_7
REMARK    8  A    between atoms: C_10  and  N_11
REMARK    9  A    between atoms: C_19  and  O_20
REMARK   10  A    between atoms: O_20  and  C_21
REMARK   11  A    between atoms: N_23  and  C_24
REMARK   12  A    between atoms: N_23  and  C_25
REMARK                            x       y       z     vdW  Elec       q    Type
REMARK                         _______ _______ _______ _____ _____    ______ ____
ROOT
ATOM      1  C   UNL     1       2.691   5.441  19.552  0.00  0.00    +0.000 C 
ENDROOT
BRANCH   1   2
ATOM      2  C   UNL     1       2.194   6.859  19.329  0.00  0.00    +0.000 A 
ATOM      3  C   UNL     1       2.289   7.499  18.081  0.00  0.00    +0.000 A 
ATOM      4  C   UNL     1       1.862   8.827  17.936  0.00  0.00    +0.000 A 
ATOM      5  C   UNL     1       1.331   9.535  19.026  0.00  0.00    +0.000 A 
ATOM      6  C   UNL     1       1.253   8.892  20.276  0.00  0.00    +0.000 A 
ATOM      7  C   UNL     1       1.675   7.574  20.419  0.00  0.00    +0.000 A 
BRANCH   5   8
ATOM      8  O   UNL     1       0.925  10.821  18.827  0.00  0.00    +0.000 OA
BRANCH   8   9
ATOM      9  C   UNL     1       0.097  11.577  19.609  0.00  0.00    +0.000 C 
ATOM     10  O   UNL     1       0.546  12.171  20.580  0.00  0.00    +0.000 OA
ATOM     11  N   UNL     1      -1.249  11.621  19.347  0.00  0.00    +0.000 N 
ATOM     12  C   UNL     1      -2.166  12.359  20.205  0.00  0.00    +0.000 C 
ATOM     13  C   UNL     1      -1.825  10.921  18.210  0.00  0.00    +0.000 C 
ENDBRANCH   8   9
ENDBRANCH   5   8
ENDBRANCH   1   2
BRANCH   1  15
ATOM     14  C   UNL     1       1.818   3.860  21.350  0.00  0.00    +0.000 C 
ATOM     15  N   UNL     1       2.401   5.151  20.984  0.00  0.00    +0.000 NA
ATOM     16  H   UNL     1       3.323   5.194  21.483  0.00  0.00    +0.000 HD
ENDBRANCH   1  15
BRANCH   1  17
ATOM     17  C   UNL     1       2.007   4.506  18.492  0.00  0.00    +0.000 C 
BRANCH  17  18
ATOM     18  C   UNL     1       2.861   3.306  18.070  0.00  0.00    +0.000 C 
BRANCH  18  19
ATOM     19  O   UNL     1       3.803   3.611  17.102  0.00  0.00    +0.000 OA
BRANCH  19  20
ATOM     20  C   UNL     1       4.769   4.558  17.298  0.00  0.00    +0.000 A 
ATOM     21  C   UNL     1       4.834   5.731  16.511  0.00  0.00    +0.000 A 
ATOM     22  C   UNL     1       5.815   6.692  16.730  0.00  0.00    +0.000 A 
ATOM     23  C   UNL     1       6.771   6.520  17.739  0.00  0.00    +0.000 A 
ATOM     24  C   UNL     1       6.718   5.353  18.530  0.00  0.00    +0.000 A 
ATOM     25  C   UNL     1       5.726   4.383  18.310  0.00  0.00    +0.000 A 
BRANCH  23  26
ATOM     26  N   UNL     1       7.782   7.515  17.952  0.00  0.00    +0.000 N 
ATOM     27  O   UNL     1       8.565   7.407  18.847  0.00  0.00    +0.000 OA
ATOM     28  O   UNL     1       7.857   8.562  17.160  0.00  0.00    +0.000 OA
ENDBRANCH  23  26
ENDBRANCH  19  20
ENDBRANCH  18  19
ENDBRANCH  17  18
ENDBRANCH   1  17
TORSDOF 9
ENDMDL
MODEL 5
REMARK VINA RESULT:      -6.8      1.375      1.880
REMARK  Name = 
REMARK  12 active torsions:
REMARK  status: ('A' for Active; 'I' for Inactive)
REMARK    1  A    between atoms: C_1  and  N_2
REMARK    2  A    between atoms: N_2  and  C_3
REMARK    3  A    between atoms: C_3  and  C_4
REMARK    4  A    between atoms: C_3  and  C_16
REMARK    5  A    between atoms: C_4  and  C_5
REMARK    6  A    between atoms: C_5  and  O_6
REMARK    7  A    between atoms: O_6  and  C_7
REMARK    8  A    between atoms: C_10  and  N_11
REMARK    9  A    between atoms: C_19  and  O_20
REMARK   10  A    between atoms: O_20  and  C_21
REMARK   11  A    between atoms: N_23  and  C_24
REMARK   12  A    between atoms: N_23  and  C_25
REMARK                            x       y       z     vdW  Elec       q    Type
REMARK                         _______ _______ _______ _____ _____    ______ ____
ROOT
ATOM      1  C   UNL     1       2.342   4.882  19.846  0.00  0.00    +0.000 C 
ENDROOT
BRANCH   1   2
ATOM      2  C   UNL     1       2.021   6.356  19.670  0.00  0.00    +0.000 A 
ATOM      3  C   UNL     1       2.316   7.051  18.484  0.00  0.00    +0.000 A 
ATOM      4  C   UNL     1       2.046   8.425  18.388  0.00  0.00    +0.000 A 
ATOM      5  C   UNL     1       1.478   9.124  19.465  0.00  0.00    +0.000 A 
ATOM      6  C   UNL     1       1.201   8.423  20.655  0.00  0.00    +0.000 A 
ATOM      7  C   UNL     1       1.466   7.060  20.749  0.00  0.00    +0.000 A 
BRANCH   5   8
ATOM      8  O   UNL     1       1.231  10.456  19.314  0.00  0.00    +0.000 OA
BRANCH   8   9
ATOM      9  C   UNL     1       0.708  11.327  20.227  0.00  0.00    +0.000 C 
ATOM     10  O   UNL     1       1.352  11.633  21.221  0.00  0.00    +0.000 OA
ATOM     11  N   UNL     1      -0.566  11.812  20.067  0.00  0.00    +0.000 N 
ATOM     12  C   UNL     1      -1.177  12.685  21.061  0.00  0.00    +0.000 C 
ATOM     13  C   UNL     1      -1.371  11.465  18.907  0.00  0.00    +0.000 C 
ENDBRANCH   8   9
ENDBRANCH   5   8
ENDBRANCH   1   2
BRANCH   1  15
ATOM     14  C   UNL     1       2.139   3.287  21.823  0.00  0.00    +0.000 C 
ATOM     15  N   UNL     1       2.303   4.650  21.316  0.00  0.00    +0.000 NA
ATOM     16  H   UNL     1       3.227   4.978  21.688  0.00  0.00    +0.000 HD
ENDBRANCH   1  15
BRANCH   1  17
ATOM     17  C   UNL     1       1.333   4.051  18.975  0.00  0.00    +0.000 C 
BRANCH  17  18
ATOM     18  C   UNL     1       1.964   2.859  18.248  0.00  0.00    +0.000 C 
BRANCH  18  19
ATOM     19  O   UNL     1       3.312   2.695  18.522  0.00  0.00    +0.000 OA
BRANCH  19  20
ATOM     20  C   UNL     1       4.275   3.467  17.931  0.00  0.00    +0.000 A 
ATOM     21  C   UNL     1       4.228   3.794  16.556  0.00  0.00    +0.000 A 
ATOM     22  C   UNL     1       5.207   4.590  15.972  0.00  0.00    +0.000 A 
ATOM     23  C   UNL     1       6.272   5.089  16.734  0.00  0.00    +0.000 A 
ATOM     24  C   UNL     1       6.330   4.768  18.107  0.00  0.00    +0.000 A 
ATOM     25  C   UNL     1       5.340   3.965  18.697  0.00  0.00    +0.000 A 
BRANCH  23  26
ATOM     26  N   UNL     1       7.279   5.904  16.120  0.00  0.00    +0.000 N 
ATOM     27  O   UNL     1       7.716   5.627  15.045  0.00  0.00    +0.000 OA
ATOM     28  O   UNL     1       7.735   6.970  16.740  0.00  0.00    +0.000 OA
ENDBRANCH  23  26
ENDBRANCH  19  20
ENDBRANCH  18  19
ENDBRANCH  17  18
ENDBRANCH   1  17
TORSDOF 9
ENDMDL
MODEL 6
REMARK VINA RESULT:      -6.7      1.109      1.515
REMARK  Name = 
REMARK  12 active torsions:
REMARK  status: ('A' for Active; 'I' for Inactive)
REMARK    1  A    between atoms: C_1  and  N_2
REMARK    2  A    between atoms: N_2  and  C_3
REMARK    3  A    between atoms: C_3  and  C_4
REMARK    4  A    between atoms: C_3  and  C_16
REMARK    5  A    between atoms: C_4  and  C_5
REMARK    6  A    between atoms: C_5  and  O_6
REMARK    7  A    between atoms: O_6  and  C_7
REMARK    8  A    between atoms: C_10  and  N_11
REMARK    9  A    between atoms: C_19  and  O_20
REMARK   10  A    between atoms: O_20  and  C_21
REMARK   11  A    between atoms: N_23  and  C_24
REMARK   12  A    between atoms: N_23  and  C_25
REMARK                            x       y       z     vdW  Elec       q    Type
REMARK                         _______ _______ _______ _____ _____    ______ ____
ROOT
ATOM      1  C   UNL     1       2.287   4.384  19.993  0.00  0.00    +0.000 C 
ENDROOT
BRANCH   1   2
ATOM      2  C   UNL     1       2.014   5.873  19.870  0.00  0.00    +0.000 A 
ATOM      3  C   UNL     1       2.406   6.616  18.743  0.00  0.00    +0.000 A 
ATOM      4  C   UNL     1       2.177   8.000  18.697  0.00  0.00    +0.000 A 
ATOM      5  C   UNL     1       1.554   8.662  19.767  0.00  0.00    +0.000 A 
ATOM      6  C   UNL     1       1.179   7.912  20.899  0.00  0.00    +0.000 A 
ATOM      7  C   UNL     1       1.404   6.540  20.942  0.00  0.00    +0.000 A 
BRANCH   5   8
ATOM      8  O   UNL     1       1.350  10.006  19.666  0.00  0.00    +0.000 OA
BRANCH   8   9
ATOM      9  C   UNL     1       0.225  10.662  19.252  0.00  0.00    +0.000 C 
ATOM     10  O   UNL     1      -0.857  10.092  19.271  0.00  0.00    +0.000 OA
ATOM     11  N   UNL     1       0.313  11.937  18.754  0.00  0.00    +0.000 N 
ATOM     12  C   UNL     1      -0.858  12.634  18.239  0.00  0.00    +0.000 C 
ATOM     13  C   UNL     1       1.581  12.647  18.703  0.00  0.00    +0.000 C 
ENDBRANCH   8   9
ENDBRANCH   5   8
ENDBRANCH   1   2
BRANCH   1  15
ATOM     14  C   UNL     1       1.699   2.736  21.846  0.00  0.00    +0.000 C 
ATOM     15  N   UNL     1       2.118   4.079  21.441  0.00  0.00    +0.000 NA
ATOM     16  H   UNL     1       3.058   4.224  21.882  0.00  0.00    +0.000 HD
ENDBRANCH   1  15
BRANCH   1  17
ATOM     17  C   UNL     1       1.338   3.625  18.998  0.00  0.00    +0.000 C 
BRANCH  17  18
ATOM     18  C   UNL     1       2.037   2.551  18.160  0.00  0.00    +0.000 C 
BRANCH  18  19
ATOM     19  O   UNL     1       3.393   2.440  18.422  0.00  0.00    +0.000 OA
BRANCH  19  20
ATOM     20  C   UNL     1       4.309   3.309  17.897  0.00  0.00    +0.000 A 
ATOM     21  C   UNL     1       4.330   3.629  16.520  0.00  0.00    +0.000 A 
ATOM     22  C   UNL     1       5.261   4.524  16.003  0.00  0.00    +0.000 A 
ATOM     23  C   UNL     1       6.207   5.133  16.837  0.00  0.00    +0.000 A 
ATOM     24  C   UNL     1       6.197   4.820  18.213  0.00  0.00    +0.000 A 
ATOM     25  C   UNL     1       5.257   3.917  18.735  0.00  0.00    +0.000 A 
BRANCH  23  26
ATOM     26  N   UNL     1       7.166   6.050  16.292  0.00  0.00    +0.000 N 
ATOM     27  O   UNL     1       7.700   5.825  15.249  0.00  0.00    +0.000 OA
ATOM     28  O   UNL     1       7.468   7.153  16.940  0.00  0.00    +0.000 OA
ENDBRANCH  23  26
ENDBRANCH  19  20
ENDBRANCH  18  19
ENDBRANCH  17  18
ENDBRANCH   1  17
TORSDOF 9
ENDMDL
MODEL 7
REMARK VINA RESULT:      -6.7      0.498      1.200
REMARK  Name = 
REMARK  12 active torsions:
REMARK  status: ('A' for Active; 'I' for Inactive)
REMARK    1  A    between atoms: C_1  and  N_2
REMARK    2  A    between atoms: N_2  and  C_3
REMARK    3  A    between atoms: C_3  and  C_4
REMARK    4  A    between atoms: C_3  and  C_16
REMARK    5  A    between atoms: C_4  and  C_5
REMARK    6  A    between atoms: C_5  and  O_6
REMARK    7  A    between atoms: O_6  and  C_7
REMARK    8  A    between atoms: C_10  and  N_11
REMARK    9  A    between atoms: C_19  and  O_20
REMARK   10  A    between atoms: O_20  and  C_21
REMARK   11  A    between atoms: N_23  and  C_24
REMARK   12  A    between atoms: N_23  and  C_25
REMARK                            x       y       z     vdW  Elec       q    Type
REMARK                         _______ _______ _______ _____ _____    ______ ____
ROOT
ATOM      1  C   UNL     1       2.283   4.414  19.686  0.00  0.00    +0.000 C 
ENDROOT
BRANCH   1   2
ATOM      2  C   UNL     1       2.076   5.903  19.471  0.00  0.00    +0.000 A 
ATOM      3  C   UNL     1       2.396   6.537  18.257  0.00  0.00    +0.000 A 
ATOM      4  C   UNL     1       2.234   7.924  18.124  0.00  0.00    +0.000 A 
ATOM      5  C   UNL     1       1.750   8.698  19.190  0.00  0.00    +0.000 A 
ATOM      6  C   UNL     1       1.447   8.057  20.407  0.00  0.00    +0.000 A 
ATOM      7  C   UNL     1       1.605   6.682  20.538  0.00  0.00    +0.000 A 
BRANCH   5   8
ATOM      8  O   UNL     1       1.606  10.041  19.002  0.00  0.00    +0.000 OA
BRANCH   8   9
ATOM      9  C   UNL     1       0.480  10.800  19.155  0.00  0.00    +0.000 C 
ATOM     10  O   UNL     1      -0.623  10.272  19.121  0.00  0.00    +0.000 OA
ATOM     11  N   UNL     1       0.578  12.163  19.280  0.00  0.00    +0.000 N 
ATOM     12  C   UNL     1      -0.608  13.005  19.372  0.00  0.00    +0.000 C 
ATOM     13  C   UNL     1       1.868  12.832  19.313  0.00  0.00    +0.000 C 
ENDBRANCH   8   9
ENDBRANCH   5   8
ENDBRANCH   1   2
BRANCH   1  15
ATOM     14  C   UNL     1       1.605   2.749  21.492  0.00  0.00    +0.000 C 
ATOM     15  N   UNL     1       1.708   4.134  21.031  0.00  0.00    +0.000 NA
ATOM     16  H   UNL     1       2.335   4.613  21.722  0.00  0.00    +0.000 HD
ENDBRANCH   1  15
BRANCH   1  17
ATOM     17  C   UNL     1       1.643   3.647  18.473  0.00  0.00    +0.000 C 
BRANCH  17  18
ATOM     18  C   UNL     1       2.661   2.956  17.561  0.00  0.00    +0.000 C 
BRANCH  18  19
ATOM     19  O   UNL     1       3.928   2.869  18.111  0.00  0.00    +0.000 OA
BRANCH  19  20
ATOM     20  C   UNL     1       4.818   3.907  18.059  0.00  0.00    +0.000 A 
ATOM     21  C   UNL     1       5.058   4.624  16.863  0.00  0.00    +0.000 A 
ATOM     22  C   UNL     1       5.956   5.685  16.828  0.00  0.00    +0.000 A 
ATOM     23  C   UNL     1       6.650   6.072  17.982  0.00  0.00    +0.000 A 
ATOM     24  C   UNL     1       6.420   5.365  19.180  0.00  0.00    +0.000 A 
ATOM     25  C   UNL     1       5.512   4.293  19.216  0.00  0.00    +0.000 A 
BRANCH  23  26
ATOM     26  N   UNL     1       7.578   7.164  17.932  0.00  0.00    +0.000 N 
ATOM     27  O   UNL     1       8.443   7.267  18.748  0.00  0.00    +0.000 OA
ATOM     28  O   UNL     1       7.484   8.070  16.983  0.00  0.00    +0.000 OA
ENDBRANCH  23  26
ENDBRANCH  19  20
ENDBRANCH  18  19
ENDBRANCH  17  18
ENDBRANCH   1  17
TORSDOF 9
ENDMDL
MODEL 8
REMARK VINA RESULT:      -6.7      1.066      1.776
REMARK  Name = 
REMARK  12 active torsions:
REMARK  status: ('A' for Active; 'I' for Inactive)
REMARK    1  A    between atoms: C_1  and  N_2
REMARK    2  A    between atoms: N_2  and  C_3
REMARK    3  A    between atoms: C_3  and  C_4
REMARK    4  A    between atoms: C_3  and  C_16
REMARK    5  A    between atoms: C_4  and  C_5
REMARK    6  A    between atoms: C_5  and  O_6
REMARK    7  A    between atoms: O_6  and  C_7
REMARK    8  A    between atoms: C_10  and  N_11
REMARK    9  A    between atoms: C_19  and  O_20
REMARK   10  A    between atoms: O_20  and  C_21
REMARK   11  A    between atoms: N_23  and  C_24
REMARK   12  A    between atoms: N_23  and  C_25
REMARK                            x       y       z     vdW  Elec       q    Type
REMARK                         _______ _______ _______ _____ _____    ______ ____
ROOT
ATOM      1  C   UNL     1       2.043   4.318  19.509  0.00  0.00    +0.000 C 
ENDROOT
BRANCH   1   2
ATOM      2  C   UNL     1       1.881   5.817  19.695  0.00  0.00    +0.000 A 
ATOM      3  C   UNL     1       1.290   6.371  20.844  0.00  0.00    +0.000 A 
ATOM      4  C   UNL     1       1.117   7.759  20.947  0.00  0.00    +0.000 A 
ATOM      5  C   UNL     1       1.532   8.615  19.915  0.00  0.00    +0.000 A 
ATOM      6  C   UNL     1       2.109   8.051  18.760  0.00  0.00    +0.000 A 
ATOM      7  C   UNL     1       2.283   6.674  18.659  0.00  0.00    +0.000 A 
BRANCH   5   8
ATOM      8  O   UNL     1       1.346   9.957  20.071  0.00  0.00    +0.000 OA
BRANCH   8   9
ATOM      9  C   UNL     1       0.254  10.704  19.732  0.00  0.00    +0.000 C 
ATOM     10  O   UNL     1       0.034  10.968  18.557  0.00  0.00    +0.000 OA
ATOM     11  N   UNL     1      -0.564  11.214  20.708  0.00  0.00    +0.000 N 
ATOM     12  C   UNL     1      -1.694  12.074  20.380  0.00  0.00    +0.000 C 
ATOM     13  C   UNL     1      -0.332  10.935  22.116  0.00  0.00    +0.000 C 
ENDBRANCH   8   9
ENDBRANCH   5   8
ENDBRANCH   1   2
BRANCH   1  15
ATOM     14  C   UNL     1       1.491   2.707  21.404  0.00  0.00    +0.000 C 
ATOM     15  N   UNL     1       1.047   3.705  20.431  0.00  0.00    +0.000 NA
ATOM     16  H   UNL     1       0.651   4.493  20.999  0.00  0.00    +0.000 HD
ENDBRANCH   1  15
BRANCH   1  17
ATOM     17  C   UNL     1       1.883   3.991  17.981  0.00  0.00    +0.000 C 
BRANCH  17  18
ATOM     18  C   UNL     1       2.602   2.714  17.534  0.00  0.00    +0.000 C 
BRANCH  18  19
ATOM     19  O   UNL     1       3.901   2.618  18.002  0.00  0.00    +0.000 OA
BRANCH  19  20
ATOM     20  C   UNL     1       4.769   3.675  17.965  0.00  0.00    +0.000 A 
ATOM     21  C   UNL     1       5.146   4.287  16.747  0.00  0.00    +0.000 A 
ATOM     22  C   UNL     1       6.020   5.368  16.725  0.00  0.00    +0.000 A 
ATOM     23  C   UNL     1       6.553   5.881  17.915  0.00  0.00    +0.000 A 
ATOM     24  C   UNL     1       6.185   5.278  19.136  0.00  0.00    +0.000 A 
ATOM     25  C   UNL     1       5.302   4.186  19.158  0.00  0.00    +0.000 A 
BRANCH  23  26
ATOM     26  N   UNL     1       7.458   6.993  17.880  0.00  0.00    +0.000 N 
ATOM     27  O   UNL     1       8.290   7.130  18.725  0.00  0.00    +0.000 OA
ATOM     28  O   UNL     1       7.379   7.879  16.912  0.00  0.00    +0.000 OA
ENDBRANCH  23  26
ENDBRANCH  19  20
ENDBRANCH  18  19
ENDBRANCH  17  18
ENDBRANCH   1  17
TORSDOF 9
ENDMDL
MODEL 9
REMARK VINA RESULT:      -6.5      2.420      2.958
REMARK  Name = 
REMARK  12 active torsions:
REMARK  status: ('A' for Active; 'I' for Inactive)
REMARK    1  A    between atoms: C_1  and  N_2
REMARK    2  A    between atoms: N_2  and  C_3
REMARK    3  A    between atoms: C_3  and  C_4
REMARK    4  A    between atoms: C_3  and  C_16
REMARK    5  A    between atoms: C_4  and  C_5
REMARK    6  A    between atoms: C_5  and  O_6
REMARK    7  A    between atoms: O_6  and  C_7
REMARK    8  A    between atoms: C_10  and  N_11
REMARK    9  A    between atoms: C_19  and  O_20
REMARK   10  A    between atoms: O_20  and  C_21
REMARK   11  A    between atoms: N_23  and  C_24
REMARK   12  A    between atoms: N_23  and  C_25
REMARK                            x       y       z     vdW  Elec       q    Type
REMARK                         _______ _______ _______ _____ _____    ______ ____
ROOT
ATOM      1  C   UNL     1       2.959   5.982  19.120  0.00  0.00    +0.000 C 
ENDROOT
BRANCH   1   2
ATOM      2  C   UNL     1       2.264   7.332  19.110  0.00  0.00    +0.000 A 
ATOM      3  C   UNL     1       2.207   8.138  17.959  0.00  0.00    +0.000 A 
ATOM      4  C   UNL     1       1.597   9.400  18.012  0.00  0.00    +0.000 A 
ATOM      5  C   UNL     1       1.033   9.877  19.206  0.00  0.00    +0.000 A 
ATOM      6  C   UNL     1       1.108   9.070  20.358  0.00  0.00    +0.000 A 
ATOM      7  C   UNL     1       1.710   7.817  20.304  0.00  0.00    +0.000 A 
BRANCH   5   8
ATOM      8  O   UNL     1       0.447  11.108  19.200  0.00  0.00    +0.000 OA
BRANCH   8   9
ATOM      9  C   UNL     1      -0.137  11.771  20.241  0.00  0.00    +0.000 C 
ATOM     10  O   UNL     1      -1.290  11.514  20.562  0.00  0.00    +0.000 OA
ATOM     11  N   UNL     1       0.541  12.772  20.890  0.00  0.00    +0.000 N 
ATOM     12  C   UNL     1      -0.082  13.546  21.956  0.00  0.00    +0.000 C 
ATOM     13  C   UNL     1       1.908  13.118  20.533  0.00  0.00    +0.000 C 
ENDBRANCH   8   9
ENDBRANCH   5   8
ENDBRANCH   1   2
BRANCH   1  15
ATOM     14  C   UNL     1       1.481   3.970  18.615  0.00  0.00    +0.000 C 
ATOM     15  N   UNL     1       2.204   5.151  18.142  0.00  0.00    +0.000 NA
ATOM     16  H   UNL     1       1.473   5.779  17.728  0.00  0.00    +0.000 HD
ENDBRANCH   1  15
BRANCH   1  17
ATOM     17  C   UNL     1       4.484   6.211  18.819  0.00  0.00    +0.000 C 
BRANCH  17  18
ATOM     18  C   UNL     1       5.408   5.148  19.421  0.00  0.00    +0.000 C 
BRANCH  18  19
ATOM     19  O   UNL     1       5.647   4.078  18.574  0.00  0.00    +0.000 OA
BRANCH  19  20
ATOM     20  C   UNL     1       6.025   4.251  17.271  0.00  0.00    +0.000 A 
ATOM     21  C   UNL     1       7.266   4.835  16.926  0.00  0.00    +0.000 A 
ATOM     22  C   UNL     1       7.643   4.994  15.597  0.00  0.00    +0.000 A 
ATOM     23  C   UNL     1       6.798   4.578  14.560  0.00  0.00    +0.000 A 
ATOM     24  C   UNL     1       5.556   3.996  14.891  0.00  0.00    +0.000 A 
ATOM     25  C   UNL     1       5.176   3.835  16.234  0.00  0.00    +0.000 A 
BRANCH  23  26
ATOM     26  N   UNL     1       7.194   4.752  13.193  0.00  0.00    +0.000 N 
ATOM     27  O   UNL     1       6.739   4.060  12.334  0.00  0.00    +0.000 OA
ATOM     28  O   UNL     1       8.068   5.680  12.871  0.00  0.00    +0.000 OA
ENDBRANCH  23  26
ENDBRANCH  19  20
ENDBRANCH  18  19
ENDBRANCH  17  18
ENDBRANCH   1  17
TORSDOF 9
ENDMDL
