MODEL 1
REMARK VINA RESULT:      -7.6      0.000      0.000
REMARK  Name = 
REMARK  5 active torsions:
REMARK  status: ('A' for Active; 'I' for Inactive)
REMARK    1  A    between atoms: C_1  and  C_2
REMARK    2  A    between atoms: N_7  and  C_8
REMARK    3  A    between atoms: C_8  and  C_9
REMARK    4  A    between atoms: C_9  and  C_11
REMARK    5  A    between atoms: C_20  and  C_21
REMARK                            x       y       z     vdW  Elec       q    Type
REMARK                         _______ _______ _______ _____ _____    ______ ____
ROOT
ATOM      1  C   UNL     1       0.759   9.454  20.363  0.00  0.00    +0.000 C 
ATOM      2  C   UNL     1       1.434   8.158  19.994  0.00  0.00    +0.000 A 
ATOM      3  C   UNL     1       1.355   7.070  20.888  0.00  0.00    +0.000 A 
ATOM      4  C   UNL     1       1.982   5.861  20.558  0.00  0.00    +0.000 A 
ATOM      5  N   UNL     1       2.052   4.675  21.240  0.00  0.00    +0.000 NA
ATOM      6  N   UNL     1       2.745   3.815  20.503  0.00  0.00    +0.000 NA
ATOM      7  N   UNL     1       3.106   4.454  19.371  0.00  0.00    +0.000 N 
ATOM      8  C   UNL     1       2.665   5.749  19.359  0.00  0.00    +0.000 A 
ATOM      9  C   UNL     1       2.769   6.804  18.442  0.00  0.00    +0.000 A 
ATOM     10  C   UNL     1       2.136   8.019  18.776  0.00  0.00    +0.000 A 
ATOM     11  C   UNL     1       2.223   9.164  17.797  0.00  0.00    +0.000 C 
ENDROOT
BRANCH   7  12
ATOM     12  C   UNL     1       3.720   3.705  18.299  0.00  0.00    +0.000 C 
BRANCH  12  13
ATOM     13  C   UNL     1       5.189   3.985  18.158  0.00  0.00    +0.000 C 
ATOM     14  O   UNL     1       5.930   3.967  19.144  0.00  0.00    +0.000 OA
BRANCH  13  15
ATOM     15  C   UNL     1       5.777   4.332  16.829  0.00  0.00    +0.000 A 
ATOM     16  C   UNL     1       7.081   4.816  16.677  0.00  0.00    +0.000 A 
ATOM     17  C   UNL     1       7.607   5.023  15.395  0.00  0.00    +0.000 A 
ATOM     18  C   UNL     1       6.829   4.766  14.268  0.00  0.00    +0.000 A 
ATOM     19 CL   UNL     1       7.498   4.981  12.698  0.00  0.00    +0.000 Cl
ATOM     20  C   UNL     1       5.518   4.321  14.406  0.00  0.00    +0.000 A 
ATOM     21  C   UNL     1       4.993   4.104  15.684  0.00  0.00    +0.000 A 
ENDBRANCH  13  15
ENDBRANCH  12  13
ENDBRANCH   7  12
TORSDOF 3
ENDMDL
MODEL 2
REMARK VINA RESULT:      -7.6      2.297      2.801
REMARK  Name = 
REMARK  5 active torsions:
REMARK  status: ('A' for Active; 'I' for Inactive)
REMARK    1  A    between atoms: C_1  and  C_2
REMARK    2  A    between atoms: N_7  and  C_8
REMARK    3  A    between atoms: C_8  and  C_9
REMARK    4  A    between atoms: C_9  and  C_11
REMARK    5  A    between atoms: C_20  and  C_21
REMARK                            x       y       z     vdW  Elec       q    Type
REMARK                         _______ _______ _______ _____ _____    ______ ____
ROOT
ATOM      1  C   UNL     1       1.397   8.285  20.710  0.00  0.00    +0.000 C 
ATOM      2  C   UNL     1       2.088   7.239  19.873  0.00  0.00    +0.000 A 
ATOM      3  C   UNL     1       2.378   5.986  20.452  0.00  0.00    +0.000 A 
ATOM      4  C   UNL     1       3.025   5.006  19.686  0.00  0.00    +0.000 A 
ATOM      5  N   UNL     1       3.410   3.732  20.006  0.00  0.00    +0.000 NA
ATOM      6  N   UNL     1       3.971   3.188  18.932  0.00  0.00    +0.000 NA
ATOM      7  N   UNL     1       3.937   4.111  17.949  0.00  0.00    +0.000 N 
ATOM      8  C   UNL     1       3.366   5.280  18.372  0.00  0.00    +0.000 A 
ATOM      9  C   UNL     1       3.097   6.510  17.758  0.00  0.00    +0.000 A 
ATOM     10  C   UNL     1       2.444   7.493  18.530  0.00  0.00    +0.000 A 
ATOM     11  C   UNL     1       2.133   8.821  17.884  0.00  0.00    +0.000 C 
ENDROOT
BRANCH   7  12
ATOM     12  C   UNL     1       4.318   3.732  16.608  0.00  0.00    +0.000 C 
BRANCH  12  13
ATOM     13  C   UNL     1       5.735   4.105  16.277  0.00  0.00    +0.000 C 
ATOM     14  O   UNL     1       6.358   3.492  15.407  0.00  0.00    +0.000 OA
BRANCH  13  15
ATOM     15  C   UNL     1       6.433   5.195  17.020  0.00  0.00    +0.000 A 
ATOM     16  C   UNL     1       7.145   4.975  18.204  0.00  0.00    +0.000 A 
ATOM     17  C   UNL     1       7.864   6.021  18.796  0.00  0.00    +0.000 A 
ATOM     18  C   UNL     1       7.857   7.291  18.220  0.00  0.00    +0.000 A 
ATOM     19 CL   UNL     1       8.778   8.558  18.930  0.00  0.00    +0.000 Cl
ATOM     20  C   UNL     1       7.122   7.532  17.064  0.00  0.00    +0.000 A 
ATOM     21  C   UNL     1       6.411   6.488  16.466  0.00  0.00    +0.000 A 
ENDBRANCH  13  15
ENDBRANCH  12  13
ENDBRANCH   7  12
TORSDOF 3
ENDMDL
MODEL 3
REMARK VINA RESULT:      -7.5      0.110      1.060
REMARK  Name = 
REMARK  5 active torsions:
REMARK  status: ('A' for Active; 'I' for Inactive)
REMARK    1  A    between atoms: C_1  and  C_2
REMARK    2  A    between atoms: N_7  and  C_8
REMARK    3  A    between atoms: C_8  and  C_9
REMARK    4  A    between atoms: C_9  and  C_11
REMARK    5  A    between atoms: C_20  and  C_21
REMARK                            x       y       z     vdW  Elec       q    Type
REMARK                         _______ _______ _______ _____ _____    ______ ____
ROOT
ATOM      1  C   UNL     1       0.779   9.452  20.447  0.00  0.00    +0.000 C 
ATOM      2  C   UNL     1       1.445   8.160  20.045  0.00  0.00    +0.000 A 
ATOM      3  C   UNL     1       1.379   7.059  20.924  0.00  0.00    +0.000 A 
ATOM      4  C   UNL     1       1.999   5.854  20.565  0.00  0.00    +0.000 A 
ATOM      5  N   UNL     1       2.078   4.658  21.227  0.00  0.00    +0.000 NA
ATOM      6  N   UNL     1       2.757   3.808  20.465  0.00  0.00    +0.000 NA
ATOM      7  N   UNL     1       3.099   4.464  19.337  0.00  0.00    +0.000 N 
ATOM      8  C   UNL     1       2.661   5.760  19.352  0.00  0.00    +0.000 A 
ATOM      9  C   UNL     1       2.750   6.828  18.450  0.00  0.00    +0.000 A 
ATOM     10  C   UNL     1       2.125   8.039  18.813  0.00  0.00    +0.000 A 
ATOM     11  C   UNL     1       2.197   9.199  17.850  0.00  0.00    +0.000 C 
ENDROOT
BRANCH   7  12
ATOM     12  C   UNL     1       3.692   3.730  18.243  0.00  0.00    +0.000 C 
BRANCH  12  13
ATOM     13  C   UNL     1       5.160   4.010  18.080  0.00  0.00    +0.000 C 
ATOM     14  O   UNL     1       5.892   4.114  19.066  0.00  0.00    +0.000 OA
BRANCH  13  15
ATOM     15  C   UNL     1       5.754   4.209  16.725  0.00  0.00    +0.000 A 
ATOM     16  C   UNL     1       5.031   4.024  15.542  0.00  0.00    +0.000 A 
ATOM     17  C   UNL     1       5.617   4.327  14.306  0.00  0.00    +0.000 A 
ATOM     18  C   UNL     1       6.928   4.797  14.248  0.00  0.00    +0.000 A 
ATOM     19 CL   UNL     1       7.624   5.209  12.730  0.00  0.00    +0.000 Cl
ATOM     20  C   UNL     1       7.671   4.949  15.414  0.00  0.00    +0.000 A 
ATOM     21  C   UNL     1       7.086   4.656  16.650  0.00  0.00    +0.000 A 
ENDBRANCH  13  15
ENDBRANCH  12  13
ENDBRANCH   7  12
TORSDOF 3
ENDMDL
MODEL 4
REMARK VINA RESULT:      -7.5      3.061      6.464
REMARK  Name = 
REMARK  5 active torsions:
REMARK  status: ('A' for Active; 'I' for Inactive)
REMARK    1  A    between atoms: C_1  and  C_2
REMARK    2  A    between atoms: N_7  and  C_8
REMARK    3  A    between atoms: C_8  and  C_9
REMARK    4  A    between atoms: C_9  and  C_11
REMARK    5  A    between atoms: C_20  and  C_21
REMARK                            x       y       z     vdW  Elec       q    Type
REMARK                         _______ _______ _______ _____ _____    ______ ____
ROOT
ATOM      1  C   UNL     1       7.847   5.497  13.715  0.00  0.00    +0.000 C 
ATOM      2  C   UNL     1       7.009   4.919  14.827  0.00  0.00    +0.000 A 
ATOM      3  C   UNL     1       7.344   5.227  16.162  0.00  0.00    +0.000 A 
ATOM      4  C   UNL     1       6.576   4.692  17.205  0.00  0.00    +0.000 A 
ATOM      5  N   UNL     1       6.688   4.835  18.562  0.00  0.00    +0.000 NA
ATOM      6  N   UNL     1       5.708   4.146  19.133  0.00  0.00    +0.000 NA
ATOM      7  N   UNL     1       4.988   3.576  18.145  0.00  0.00    +0.000 N 
ATOM      8  C   UNL     1       5.498   3.874  16.911  0.00  0.00    +0.000 A 
ATOM      9  C   UNL     1       5.130   3.543  15.601  0.00  0.00    +0.000 A 
ATOM     10  C   UNL     1       5.903   4.084  14.553  0.00  0.00    +0.000 A 
ATOM     11  C   UNL     1       5.517   3.752  13.132  0.00  0.00    +0.000 C 
ENDROOT
BRANCH   7  12
ATOM     12  C   UNL     1       3.746   2.910  18.466  0.00  0.00    +0.000 C 
BRANCH  12  13
ATOM     13  C   UNL     1       2.537   3.730  18.115  0.00  0.00    +0.000 C 
ATOM     14  O   UNL     1       1.823   3.419  17.160  0.00  0.00    +0.000 OA
BRANCH  13  15
ATOM     15  C   UNL     1       2.196   4.960  18.890  0.00  0.00    +0.000 A 
ATOM     16  C   UNL     1       1.635   4.922  20.171  0.00  0.00    +0.000 A 
ATOM     17  C   UNL     1       1.436   6.110  20.886  0.00  0.00    +0.000 A 
ATOM     18  C   UNL     1       1.778   7.336  20.318  0.00  0.00    +0.000 A 
ATOM     19 CL   UNL     1       1.571   8.786  21.220  0.00  0.00    +0.000 Cl
ATOM     20  C   UNL     1       2.301   7.391  19.030  0.00  0.00    +0.000 A 
ATOM     21  C   UNL     1       2.510   6.206  18.318  0.00  0.00    +0.000 A 
ENDBRANCH  13  15
ENDBRANCH  12  13
ENDBRANCH   7  12
TORSDOF 3
ENDMDL
MODEL 5
REMARK VINA RESULT:      -7.4      2.979      6.349
REMARK  Name = 
REMARK  5 active torsions:
REMARK  status: ('A' for Active; 'I' for Inactive)
REMARK    1  A    between atoms: C_1  and  C_2
REMARK    2  A    between atoms: N_7  and  C_8
REMARK    3  A    between atoms: C_8  and  C_9
REMARK    4  A    between atoms: C_9  and  C_11
REMARK    5  A    between atoms: C_20  and  C_21
REMARK                            x       y       z     vdW  Elec       q    Type
REMARK                         _______ _______ _______ _____ _____    ______ ____
ROOT
ATOM      1  C   UNL     1       7.686   5.520  13.957  0.00  0.00    +0.000 C 
ATOM      2  C   UNL     1       6.856   4.976  15.091  0.00  0.00    +0.000 A 
ATOM      3  C   UNL     1       7.230   5.282  16.416  0.00  0.00    +0.000 A 
ATOM      4  C   UNL     1       6.469   4.778  17.480  0.00  0.00    +0.000 A 
ATOM      5  N   UNL     1       6.616   4.926  18.833  0.00  0.00    +0.000 NA
ATOM      6  N   UNL     1       5.627   4.272  19.431  0.00  0.00    +0.000 NA
ATOM      7  N   UNL     1       4.867   3.720  18.463  0.00  0.00    +0.000 N 
ATOM      8  C   UNL     1       5.359   3.993  17.216  0.00  0.00    +0.000 A 
ATOM      9  C   UNL     1       4.952   3.666  15.916  0.00  0.00    +0.000 A 
ATOM     10  C   UNL     1       5.718   4.175  14.847  0.00  0.00    +0.000 A 
ATOM     11  C   UNL     1       5.290   3.847  13.438  0.00  0.00    +0.000 C 
ENDROOT
BRANCH   7  12
ATOM     12  C   UNL     1       3.613   3.096  18.816  0.00  0.00    +0.000 C 
BRANCH  12  13
ATOM     13  C   UNL     1       2.421   3.935  18.452  0.00  0.00    +0.000 C 
ATOM     14  O   UNL     1       1.582   3.521  17.649  0.00  0.00    +0.000 OA
BRANCH  13  15
ATOM     15  C   UNL     1       2.247   5.304  19.023  0.00  0.00    +0.000 A 
ATOM     16  C   UNL     1       2.493   6.471  18.291  0.00  0.00    +0.000 A 
ATOM     17  C   UNL     1       2.211   7.723  18.851  0.00  0.00    +0.000 A 
ATOM     18  C   UNL     1       1.703   7.814  20.146  0.00  0.00    +0.000 A 
ATOM     19 CL   UNL     1       1.318   9.354  20.809  0.00  0.00    +0.000 Cl
ATOM     20  C   UNL     1       1.489   6.664  20.898  0.00  0.00    +0.000 A 
ATOM     21  C   UNL     1       1.761   5.412  20.339  0.00  0.00    +0.000 A 
ENDBRANCH  13  15
ENDBRANCH  12  13
ENDBRANCH   7  12
TORSDOF 3
ENDMDL
MODEL 6
REMARK VINA RESULT:      -7.3      2.516      3.576
REMARK  Name = 
REMARK  5 active torsions:
REMARK  status: ('A' for Active; 'I' for Inactive)
REMARK    1  A    between atoms: C_1  and  C_2
REMARK    2  A    between atoms: N_7  and  C_8
REMARK    3  A    between atoms: C_8  and  C_9
REMARK    4  A    between atoms: C_9  and  C_11
REMARK    5  A    between atoms: C_20  and  C_21
REMARK                            x       y       z     vdW  Elec       q    Type
REMARK                         _______ _______ _______ _____ _____    ______ ____
ROOT
ATOM      1  C   UNL     1       0.870   3.650  20.215  0.00  0.00    +0.000 C 
ATOM      2  C   UNL     1       2.154   4.209  19.658  0.00  0.00    +0.000 A 
ATOM      3  C   UNL     1       2.112   5.419  18.935  0.00  0.00    +0.000 A 
ATOM      4  C   UNL     1       3.298   5.947  18.407  0.00  0.00    +0.000 A 
ATOM      5  N   UNL     1       3.524   7.087  17.681  0.00  0.00    +0.000 NA
ATOM      6  N   UNL     1       4.825   7.165  17.429  0.00  0.00    +0.000 NA
ATOM      7  N   UNL     1       5.409   6.086  17.991  0.00  0.00    +0.000 N 
ATOM      8  C   UNL     1       4.494   5.278  18.607  0.00  0.00    +0.000 A 
ATOM      9  C   UNL     1       4.581   4.075  19.319  0.00  0.00    +0.000 A 
ATOM     10  C   UNL     1       3.386   3.546  19.850  0.00  0.00    +0.000 A 
ATOM     11  C   UNL     1       3.459   2.258  20.633  0.00  0.00    +0.000 C 
ENDROOT
BRANCH   7  12
ATOM     12  C   UNL     1       6.851   6.002  18.030  0.00  0.00    +0.000 C 
BRANCH  12  13
ATOM     13  C   UNL     1       7.392   4.867  17.207  0.00  0.00    +0.000 C 
ATOM     14  O   UNL     1       8.328   4.180  17.621  0.00  0.00    +0.000 OA
BRANCH  13  15
ATOM     15  C   UNL     1       6.835   4.572  15.853  0.00  0.00    +0.000 A 
ATOM     16  C   UNL     1       7.417   5.044  14.671  0.00  0.00    +0.000 A 
ATOM     17  C   UNL     1       6.906   4.646  13.430  0.00  0.00    +0.000 A 
ATOM     18  C   UNL     1       5.805   3.794  13.365  0.00  0.00    +0.000 A 
ATOM     19 CL   UNL     1       5.212   3.275  11.836  0.00  0.00    +0.000 Cl
ATOM     20  C   UNL     1       5.193   3.348  14.532  0.00  0.00    +0.000 A 
ATOM     21  C   UNL     1       5.706   3.736  15.773  0.00  0.00    +0.000 A 
ENDBRANCH  13  15
ENDBRANCH  12  13
ENDBRANCH   7  12
TORSDOF 3
ENDMDL
MODEL 7
REMARK VINA RESULT:      -7.2      2.704      6.249
REMARK  Name = 
REMARK  5 active torsions:
REMARK  status: ('A' for Active; 'I' for Inactive)
REMARK    1  A    between atoms: C_1  and  C_2
REMARK    2  A    between atoms: N_7  and  C_8
REMARK    3  A    between atoms: C_8  and  C_9
REMARK    4  A    between atoms: C_9  and  C_11
REMARK    5  A    between atoms: C_20  and  C_21
REMARK                            x       y       z     vdW  Elec       q    Type
REMARK                         _______ _______ _______ _____ _____    ______ ____
ROOT
ATOM      1  C   UNL     1       7.867   4.942  14.180  0.00  0.00    +0.000 C 
ATOM      2  C   UNL     1       6.911   4.688  15.317  0.00  0.00    +0.000 A 
ATOM      3  C   UNL     1       7.355   4.892  16.639  0.00  0.00    +0.000 A 
ATOM      4  C   UNL     1       6.477   4.654  17.705  0.00  0.00    +0.000 A 
ATOM      5  N   UNL     1       6.658   4.775  19.057  0.00  0.00    +0.000 NA
ATOM      6  N   UNL     1       5.519   4.453  19.658  0.00  0.00    +0.000 NA
ATOM      7  N   UNL     1       4.632   4.133  18.693  0.00  0.00    +0.000 N 
ATOM      8  C   UNL     1       5.185   4.228  17.445  0.00  0.00    +0.000 A 
ATOM      9  C   UNL     1       4.702   4.013  16.148  0.00  0.00    +0.000 A 
ATOM     10  C   UNL     1       5.588   4.255  15.077  0.00  0.00    +0.000 A 
ATOM     11  C   UNL     1       5.084   4.043  13.670  0.00  0.00    +0.000 C 
ENDROOT
BRANCH   7  12
ATOM     12  C   UNL     1       3.248   3.914  19.047  0.00  0.00    +0.000 C 
BRANCH  12  13
ATOM     13  C   UNL     1       2.735   4.914  20.044  0.00  0.00    +0.000 C 
ATOM     14  O   UNL     1       2.513   4.581  21.210  0.00  0.00    +0.000 OA
BRANCH  13  15
ATOM     15  C   UNL     1       2.445   6.321  19.637  0.00  0.00    +0.000 A 
ATOM     16  C   UNL     1       2.764   6.828  18.372  0.00  0.00    +0.000 A 
ATOM     17  C   UNL     1       2.372   8.125  18.017  0.00  0.00    +0.000 A 
ATOM     18  C   UNL     1       1.678   8.922  18.926  0.00  0.00    +0.000 A 
ATOM     19 CL   UNL     1       1.161  10.497  18.465  0.00  0.00    +0.000 Cl
ATOM     20  C   UNL     1       1.388   8.443  20.199  0.00  0.00    +0.000 A 
ATOM     21  C   UNL     1       1.771   7.147  20.554  0.00  0.00    +0.000 A 
ENDBRANCH  13  15
ENDBRANCH  12  13
ENDBRANCH   7  12
TORSDOF 3
ENDMDL
MODEL 8
REMARK VINA RESULT:      -7.2      2.498      3.574
REMARK  Name = 
REMARK  5 active torsions:
REMARK  status: ('A' for Active; 'I' for Inactive)
REMARK    1  A    between atoms: C_1  and  C_2
REMARK    2  A    between atoms: N_7  and  C_8
REMARK    3  A    between atoms: C_8  and  C_9
REMARK    4  A    between atoms: C_9  and  C_11
REMARK    5  A    between atoms: C_20  and  C_21
REMARK                            x       y       z     vdW  Elec       q    Type
REMARK                         _______ _______ _______ _____ _____    ______ ____
ROOT
ATOM      1  C   UNL     1       0.801   4.210  20.278  0.00  0.00    +0.000 C 
ATOM      2  C   UNL     1       2.134   4.632  19.715  0.00  0.00    +0.000 A 
ATOM      3  C   UNL     1       2.187   5.753  18.861  0.00  0.00    +0.000 A 
ATOM      4  C   UNL     1       3.419   6.153  18.326  0.00  0.00    +0.000 A 
ATOM      5  N   UNL     1       3.737   7.190  17.489  0.00  0.00    +0.000 NA
ATOM      6  N   UNL     1       5.048   7.167  17.282  0.00  0.00    +0.000 NA
ATOM      7  N   UNL     1       5.548   6.129  17.982  0.00  0.00    +0.000 N 
ATOM      8  C   UNL     1       4.566   5.446  18.646  0.00  0.00    +0.000 A 
ATOM      9  C   UNL     1       4.559   4.328  19.490  0.00  0.00    +0.000 A 
ATOM     10  C   UNL     1       3.318   3.929  20.028  0.00  0.00    +0.000 A 
ATOM     11  C   UNL     1       3.288   2.734  20.950  0.00  0.00    +0.000 C 
ENDROOT
BRANCH   7  12
ATOM     12  C   UNL     1       6.980   5.970  18.088  0.00  0.00    +0.000 C 
BRANCH  12  13
ATOM     13  C   UNL     1       7.492   4.772  17.338  0.00  0.00    +0.000 C 
ATOM     14  O   UNL     1       8.427   4.105  17.784  0.00  0.00    +0.000 OA
BRANCH  13  15
ATOM     15  C   UNL     1       6.906   4.390  16.018  0.00  0.00    +0.000 A 
ATOM     16  C   UNL     1       5.765   3.590  15.895  0.00  0.00    +0.000 A 
ATOM     17  C   UNL     1       5.207   3.353  14.633  0.00  0.00    +0.000 A 
ATOM     18  C   UNL     1       5.795   3.898  13.492  0.00  0.00    +0.000 A 
ATOM     19 CL   UNL     1       5.077   3.640  11.951  0.00  0.00    +0.000 Cl
ATOM     20  C   UNL     1       6.951   4.664  13.597  0.00  0.00    +0.000 A 
ATOM     21  C   UNL     1       7.506   4.910  14.857  0.00  0.00    +0.000 A 
ENDBRANCH  13  15
ENDBRANCH  12  13
ENDBRANCH   7  12
TORSDOF 3
ENDMDL
MODEL 9
REMARK VINA RESULT:      -7.2      2.549      3.735
REMARK  Name = 
REMARK  5 active torsions:
REMARK  status: ('A' for Active; 'I' for Inactive)
REMARK    1  A    between atoms: C_1  and  C_2
REMARK    2  A    between atoms: N_7  and  C_8
REMARK    3  A    between atoms: C_8  and  C_9
REMARK    4  A    between atoms: C_9  and  C_11
REMARK    5  A    between atoms: C_20  and  C_21
REMARK                            x       y       z     vdW  Elec       q    Type
REMARK                         _______ _______ _______ _____ _____    ______ ____
ROOT
ATOM      1  C   UNL     1      -1.162  11.842  21.512  0.00  0.00    +0.000 C 
ATOM      2  C   UNL     1      -0.311  10.725  20.966  0.00  0.00    +0.000 A 
ATOM      3  C   UNL     1       0.097  10.777  19.617  0.00  0.00    +0.000 A 
ATOM      4  C   UNL     1       0.885   9.742  19.095  0.00  0.00    +0.000 A 
ATOM      5  N   UNL     1       1.405   9.559  17.842  0.00  0.00    +0.000 NA
ATOM      6  N   UNL     1       2.103   8.429  17.845  0.00  0.00    +0.000 NA
ATOM      7  N   UNL     1       2.023   7.910  19.087  0.00  0.00    +0.000 N 
ATOM      8  C   UNL     1       1.256   8.687  19.912  0.00  0.00    +0.000 A 
ATOM      9  C   UNL     1       0.873   8.595  21.256  0.00  0.00    +0.000 A 
ATOM     10  C   UNL     1       0.082   9.639  21.779  0.00  0.00    +0.000 A 
ATOM     11  C   UNL     1      -0.330   9.568  23.229  0.00  0.00    +0.000 C 
ENDROOT
BRANCH   7  12
ATOM     12  C   UNL     1       2.839   6.769  19.432  0.00  0.00    +0.000 C 
BRANCH  12  13
ATOM     13  C   UNL     1       2.723   5.647  18.439  0.00  0.00    +0.000 C 
ATOM     14  O   UNL     1       1.719   4.931  18.415  0.00  0.00    +0.000 OA
BRANCH  13  15
ATOM     15  C   UNL     1       3.836   5.348  17.490  0.00  0.00    +0.000 A 
ATOM     16  C   UNL     1       4.182   4.047  17.107  0.00  0.00    +0.000 A 
ATOM     17  C   UNL     1       5.167   3.841  16.134  0.00  0.00    +0.000 A 
ATOM     18  C   UNL     1       5.820   4.927  15.555  0.00  0.00    +0.000 A 
ATOM     19 CL   UNL     1       6.997   4.666  14.328  0.00  0.00    +0.000 Cl
ATOM     20  C   UNL     1       5.513   6.224  15.954  0.00  0.00    +0.000 A 
ATOM     21  C   UNL     1       4.523   6.434  16.919  0.00  0.00    +0.000 A 
ENDBRANCH  13  15
ENDBRANCH  12  13
ENDBRANCH   7  12
TORSDOF 3
ENDMDL
