MODEL 1
REMARK VINA RESULT:      -7.4      0.000      0.000
REMARK  Name = 
REMARK  14 active torsions:
REMARK  status: ('A' for Active; 'I' for Inactive)
REMARK    1  A    between atoms: C_1  and  C_2
REMARK    2  A    between atoms: C_2  and  O_3
REMARK    3  A    between atoms: O_3  and  C_4
REMARK    4  A    between atoms: C_4  and  C_6
REMARK    5  A    between atoms: C_8  and  C_9
REMARK    6  A    between atoms: C_12  and  O_13
REMARK    7  A    between atoms: O_13  and  C_14
REMARK    8  A    between atoms: C_15  and  S_16
REMARK    9  A    between atoms: S_16  and  N_19
REMARK   10  A    between atoms: N_19  and  C_20
REMARK   11  A    between atoms: C_23  and  O_24
REMARK   12  A    between atoms: O_24  and  C_25
REMARK   13  A    between atoms: C_27  and  O_28
REMARK   14  A    between atoms: O_28  and  C_29
REMARK                            x       y       z     vdW  Elec       q    Type
REMARK                         _______ _______ _______ _____ _____    ______ ____
ROOT
ATOM      1  C   UNL     1       2.014   6.662  19.391  0.00  0.00    +0.000 A 
ATOM      2  C   UNL     1       1.906   6.266  20.727  0.00  0.00    +0.000 A 
ATOM      3  C   UNL     1       2.115   4.939  21.099  0.00  0.00    +0.000 A 
ATOM      4  C   UNL     1       2.487   3.978  20.152  0.00  0.00    +0.000 A 
ATOM      5  C   UNL     1       2.558   4.358  18.807  0.00  0.00    +0.000 A 
ATOM      6  C   UNL     1       2.315   5.691  18.432  0.00  0.00    +0.000 A 
ENDROOT
BRANCH   1   9
ATOM      7  C   UNL     1       1.460  10.191  18.609  0.00  0.00    +0.000 A 
ATOM      8  C   UNL     1       1.336   9.179  19.595  0.00  0.00    +0.000 A 
ATOM      9  C   UNL     1       1.876   8.057  19.013  0.00  0.00    +0.000 A 
ATOM     10  O   UNL     1       2.329   8.387  17.771  0.00  0.00    +0.000 OA
ATOM     11  N   UNL     1       2.078   9.715  17.516  0.00  0.00    +0.000 NA
BRANCH   7  12
ATOM     12  C   UNL     1       0.931  11.546  18.677  0.00  0.00    +0.000 C 
ATOM     13  O   UNL     1       1.615  12.540  18.452  0.00  0.00    +0.000 OA
BRANCH  12  14
ATOM     14  O   UNL     1      -0.357  11.578  19.125  0.00  0.00    +0.000 OA
BRANCH  14  16
ATOM     15  C   UNL     1      -2.696  11.695  18.666  0.00  0.00    +0.000 C 
ATOM     16  C   UNL     1      -1.350  11.193  18.172  0.00  0.00    +0.000 C 
ENDBRANCH  14  16
ENDBRANCH  12  14
ENDBRANCH   7  12
ENDBRANCH   1   9
BRANCH   5  17
ATOM     17  S   UNL     1       3.194   3.277  17.554  0.00  0.00    +0.000 S 
ATOM     18  O   UNL     1       2.537   1.993  17.738  0.00  0.00    +0.000 OA
ATOM     19  O   UNL     1       3.117   3.921  16.263  0.00  0.00    +0.000 OA
BRANCH  17  20
ATOM     20  N   UNL     1       4.800   2.978  17.988  0.00  0.00    +0.000 N 
ATOM     21  H   UNL     1       5.154   2.127  17.554  0.00  0.00    +0.000 HD
BRANCH  20  22
ATOM     22  C   UNL     1       5.692   4.087  17.994  0.00  0.00    +0.000 A 
ATOM     23  C   UNL     1       5.956   4.672  19.237  0.00  0.00    +0.000 A 
ATOM     24  C   UNL     1       6.828   5.756  19.343  0.00  0.00    +0.000 A 
ATOM     25  C   UNL     1       7.447   6.276  18.208  0.00  0.00    +0.000 A 
ATOM     26  C   UNL     1       7.194   5.690  16.966  0.00  0.00    +0.000 A 
ATOM     27  C   UNL     1       6.323   4.593  16.843  0.00  0.00    +0.000 A 
BRANCH  25  28
ATOM     28  O   UNL     1       8.285   7.328  18.451  0.00  0.00    +0.000 OA
ATOM     29  C   UNL     1       7.974   8.558  17.811  0.00  0.00    +0.000 C 
ENDBRANCH  25  28
BRANCH  27  30
ATOM     30  O   UNL     1       6.313   4.043  15.589  0.00  0.00    +0.000 OA
ATOM     31  C   UNL     1       6.931   4.772  14.537  0.00  0.00    +0.000 C 
ENDBRANCH  27  30
ENDBRANCH  20  22
ENDBRANCH  17  20
ENDBRANCH   5  17
BRANCH   4  32
ATOM     32  O   UNL     1       2.742   2.680  20.500  0.00  0.00    +0.000 OA
ATOM     33  C   UNL     1       2.100   2.215  21.687  0.00  0.00    +0.000 C 
ENDBRANCH   4  32
TORSDOF 10
ENDMDL
MODEL 2
REMARK VINA RESULT:      -7.2      1.000      1.583
REMARK  Name = 
REMARK  14 active torsions:
REMARK  status: ('A' for Active; 'I' for Inactive)
REMARK    1  A    between atoms: C_1  and  C_2
REMARK    2  A    between atoms: C_2  and  O_3
REMARK    3  A    between atoms: O_3  and  C_4
REMARK    4  A    between atoms: C_4  and  C_6
REMARK    5  A    between atoms: C_8  and  C_9
REMARK    6  A    between atoms: C_12  and  O_13
REMARK    7  A    between atoms: O_13  and  C_14
REMARK    8  A    between atoms: C_15  and  S_16
REMARK    9  A    between atoms: S_16  and  N_19
REMARK   10  A    between atoms: N_19  and  C_20
REMARK   11  A    between atoms: C_23  and  O_24
REMARK   12  A    between atoms: O_24  and  C_25
REMARK   13  A    between atoms: C_27  and  O_28
REMARK   14  A    between atoms: O_28  and  C_29
REMARK                            x       y       z     vdW  Elec       q    Type
REMARK                         _______ _______ _______ _____ _____    ______ ____
ROOT
ATOM      1  C   UNL     1       2.032   6.610  19.405  0.00  0.00    +0.000 A 
ATOM      2  C   UNL     1       1.984   6.259  20.757  0.00  0.00    +0.000 A 
ATOM      3  C   UNL     1       2.159   4.936  21.159  0.00  0.00    +0.000 A 
ATOM      4  C   UNL     1       2.437   3.932  20.224  0.00  0.00    +0.000 A 
ATOM      5  C   UNL     1       2.447   4.269  18.865  0.00  0.00    +0.000 A 
ATOM      6  C   UNL     1       2.239   5.600  18.462  0.00  0.00    +0.000 A 
ENDROOT
BRANCH   1   9
ATOM      7  C   UNL     1       1.578  10.134  18.539  0.00  0.00    +0.000 A 
ATOM      8  C   UNL     1       1.452   9.155  19.557  0.00  0.00    +0.000 A 
ATOM      9  C   UNL     1       1.932   7.999  18.991  0.00  0.00    +0.000 A 
ATOM     10  O   UNL     1       2.354   8.277  17.726  0.00  0.00    +0.000 OA
ATOM     11  N   UNL     1       2.141   9.606  17.440  0.00  0.00    +0.000 NA
BRANCH   7  12
ATOM     12  C   UNL     1       1.100  11.509  18.585  0.00  0.00    +0.000 C 
ATOM     13  O   UNL     1      -0.090  11.799  18.646  0.00  0.00    +0.000 OA
BRANCH  12  14
ATOM     14  O   UNL     1       2.110  12.414  18.437  0.00  0.00    +0.000 OA
BRANCH  14  16
ATOM     15  C   UNL     1       2.930  14.630  18.099  0.00  0.00    +0.000 C 
ATOM     16  C   UNL     1       1.711  13.786  18.430  0.00  0.00    +0.000 C 
ENDBRANCH  14  16
ENDBRANCH  12  14
ENDBRANCH   7  12
ENDBRANCH   1   9
BRANCH   5  17
ATOM     17  S   UNL     1       2.966   3.125  17.614  0.00  0.00    +0.000 S 
ATOM     18  O   UNL     1       2.460   1.820  18.006  0.00  0.00    +0.000 OA
ATOM     19  O   UNL     1       2.630   3.640  16.308  0.00  0.00    +0.000 OA
BRANCH  17  20
ATOM     20  N   UNL     1       4.640   2.984  17.798  0.00  0.00    +0.000 N 
ATOM     21  H   UNL     1       4.979   2.081  17.469  0.00  0.00    +0.000 HD
BRANCH  20  22
ATOM     22  C   UNL     1       5.434   4.110  17.442  0.00  0.00    +0.000 A 
ATOM     23  C   UNL     1       5.811   4.965  18.483  0.00  0.00    +0.000 A 
ATOM     24  C   UNL     1       6.601   6.088  18.231  0.00  0.00    +0.000 A 
ATOM     25  C   UNL     1       7.021   6.378  16.935  0.00  0.00    +0.000 A 
ATOM     26  C   UNL     1       6.655   5.523  15.893  0.00  0.00    +0.000 A 
ATOM     27  C   UNL     1       5.865   4.383  16.131  0.00  0.00    +0.000 A 
BRANCH  25  28
ATOM     28  O   UNL     1       7.797   7.498  16.826  0.00  0.00    +0.000 OA
ATOM     29  C   UNL     1       8.051   8.222  18.022  0.00  0.00    +0.000 C 
ENDBRANCH  25  28
BRANCH  27  30
ATOM     30  O   UNL     1       5.735   3.573  15.035  0.00  0.00    +0.000 OA
ATOM     31  C   UNL     1       6.349   3.988  13.822  0.00  0.00    +0.000 C 
ENDBRANCH  27  30
ENDBRANCH  20  22
ENDBRANCH  17  20
ENDBRANCH   5  17
BRANCH   4  32
ATOM     32  O   UNL     1       2.658   2.636  20.598  0.00  0.00    +0.000 OA
ATOM     33  C   UNL     1       1.912   2.177  21.726  0.00  0.00    +0.000 C 
ENDBRANCH   4  32
TORSDOF 10
ENDMDL
MODEL 3
REMARK VINA RESULT:      -6.8      2.621      8.943
REMARK  Name = 
REMARK  14 active torsions:
REMARK  status: ('A' for Active; 'I' for Inactive)
REMARK    1  A    between atoms: C_1  and  C_2
REMARK    2  A    between atoms: C_2  and  O_3
REMARK    3  A    between atoms: O_3  and  C_4
REMARK    4  A    between atoms: C_4  and  C_6
REMARK    5  A    between atoms: C_8  and  C_9
REMARK    6  A    between atoms: C_12  and  O_13
REMARK    7  A    between atoms: O_13  and  C_14
REMARK    8  A    between atoms: C_15  and  S_16
REMARK    9  A    between atoms: S_16  and  N_19
REMARK   10  A    between atoms: N_19  and  C_20
REMARK   11  A    between atoms: C_23  and  O_24
REMARK   12  A    between atoms: O_24  and  C_25
REMARK   13  A    between atoms: C_27  and  O_28
REMARK   14  A    between atoms: O_28  and  C_29
REMARK                            x       y       z     vdW  Elec       q    Type
REMARK                         _______ _______ _______ _____ _____    ______ ____
ROOT
ATOM      1  C   UNL     1       3.313   6.506  18.429  0.00  0.00    +0.000 A 
ATOM      2  C   UNL     1       2.894   5.908  19.621  0.00  0.00    +0.000 A 
ATOM      3  C   UNL     1       2.043   6.579  20.497  0.00  0.00    +0.000 A 
ATOM      4  C   UNL     1       1.546   7.849  20.184  0.00  0.00    +0.000 A 
ATOM      5  C   UNL     1       1.993   8.471  19.012  0.00  0.00    +0.000 A 
ATOM      6  C   UNL     1       2.876   7.803  18.146  0.00  0.00    +0.000 A 
ENDROOT
BRANCH   1   9
ATOM      7  C   UNL     1       5.456   4.910  15.932  0.00  0.00    +0.000 A 
ATOM      8  C   UNL     1       5.253   6.063  16.733  0.00  0.00    +0.000 A 
ATOM      9  C   UNL     1       4.134   5.778  17.477  0.00  0.00    +0.000 A 
ATOM     10  O   UNL     1       3.716   4.518  17.169  0.00  0.00    +0.000 OA
ATOM     11  N   UNL     1       4.538   3.971  16.211  0.00  0.00    +0.000 NA
BRANCH   7  12
ATOM     12  C   UNL     1       6.445   4.744  14.876  0.00  0.00    +0.000 C 
ATOM     13  O   UNL     1       7.317   5.574  14.642  0.00  0.00    +0.000 OA
BRANCH  12  14
ATOM     14  O   UNL     1       6.215   3.631  14.121  0.00  0.00    +0.000 OA
BRANCH  14  16
ATOM     15  C   UNL     1       5.289   3.161  11.973  0.00  0.00    +0.000 C 
ATOM     16  C   UNL     1       6.460   3.775  12.721  0.00  0.00    +0.000 C 
ENDBRANCH  14  16
ENDBRANCH  12  14
ENDBRANCH   7  12
ENDBRANCH   1   9
BRANCH   5  17
ATOM     17  S   UNL     1       1.294   9.991  18.426  0.00  0.00    +0.000 S 
ATOM     18  O   UNL     1       2.265  10.574  17.515  0.00  0.00    +0.000 OA
ATOM     19  O   UNL     1      -0.053   9.764  17.958  0.00  0.00    +0.000 OA
BRANCH  17  20
ATOM     20  N   UNL     1       1.306  11.035  19.756  0.00  0.00    +0.000 N 
ATOM     21  H   UNL     1       2.219  11.469  19.884  0.00  0.00    +0.000 HD
BRANCH  20  22
ATOM     22  C   UNL     1       0.183  11.894  19.923  0.00  0.00    +0.000 A 
ATOM     23  C   UNL     1      -0.796  11.475  20.830  0.00  0.00    +0.000 A 
ATOM     24  C   UNL     1      -1.926  12.258  21.069  0.00  0.00    +0.000 A 
ATOM     25  C   UNL     1      -2.098  13.469  20.402  0.00  0.00    +0.000 A 
ATOM     26  C   UNL     1      -1.120  13.896  19.502  0.00  0.00    +0.000 A 
ATOM     27  C   UNL     1       0.029  13.122  19.254  0.00  0.00    +0.000 A 
BRANCH  25  28
ATOM     28  O   UNL     1      -3.240  14.143  20.734  0.00  0.00    +0.000 OA
ATOM     29  C   UNL     1      -4.474  13.520  20.405  0.00  0.00    +0.000 C 
ENDBRANCH  25  28
BRANCH  27  30
ATOM     30  O   UNL     1       0.957  13.758  18.474  0.00  0.00    +0.000 OA
ATOM     31  C   UNL     1       1.284  15.104  18.790  0.00  0.00    +0.000 C 
ENDBRANCH  27  30
ENDBRANCH  20  22
ENDBRANCH  17  20
ENDBRANCH   5  17
BRANCH   4  32
ATOM     32  O   UNL     1       0.674   8.508  21.006  0.00  0.00    +0.000 OA
ATOM     33  C   UNL     1       1.174   8.851  22.298  0.00  0.00    +0.000 C 
ENDBRANCH   4  32
TORSDOF 10
ENDMDL
MODEL 4
REMARK VINA RESULT:      -6.8      2.404      7.604
REMARK  Name = 
REMARK  14 active torsions:
REMARK  status: ('A' for Active; 'I' for Inactive)
REMARK    1  A    between atoms: C_1  and  C_2
REMARK    2  A    between atoms: C_2  and  O_3
REMARK    3  A    between atoms: O_3  and  C_4
REMARK    4  A    between atoms: C_4  and  C_6
REMARK    5  A    between atoms: C_8  and  C_9
REMARK    6  A    between atoms: C_12  and  O_13
REMARK    7  A    between atoms: O_13  and  C_14
REMARK    8  A    between atoms: C_15  and  S_16
REMARK    9  A    between atoms: S_16  and  N_19
REMARK   10  A    between atoms: N_19  and  C_20
REMARK   11  A    between atoms: C_23  and  O_24
REMARK   12  A    between atoms: O_24  and  C_25
REMARK   13  A    between atoms: C_27  and  O_28
REMARK   14  A    between atoms: O_28  and  C_29
REMARK                            x       y       z     vdW  Elec       q    Type
REMARK                         _______ _______ _______ _____ _____    ______ ____
ROOT
ATOM      1  C   UNL     1       4.512   3.678  17.501  0.00  0.00    +0.000 A 
ATOM      2  C   UNL     1       4.031   2.367  17.461  0.00  0.00    +0.000 A 
ATOM      3  C   UNL     1       3.031   1.945  18.335  0.00  0.00    +0.000 A 
ATOM      4  C   UNL     1       2.446   2.836  19.241  0.00  0.00    +0.000 A 
ATOM      5  C   UNL     1       2.950   4.140  19.315  0.00  0.00    +0.000 A 
ATOM      6  C   UNL     1       3.982   4.552  18.454  0.00  0.00    +0.000 A 
ENDROOT
BRANCH   1   9
ATOM      7  C   UNL     1       6.831   4.749  14.884  0.00  0.00    +0.000 A 
ATOM      8  C   UNL     1       5.476   4.483  15.208  0.00  0.00    +0.000 A 
ATOM      9  C   UNL     1       5.496   4.142  16.539  0.00  0.00    +0.000 A 
ATOM     10  O   UNL     1       6.777   4.237  16.992  0.00  0.00    +0.000 OA
ATOM     11  N   UNL     1       7.612   4.619  15.968  0.00  0.00    +0.000 NA
BRANCH   7  12
ATOM     12  C   UNL     1       7.373   5.038  13.563  0.00  0.00    +0.000 C 
ATOM     13  O   UNL     1       8.399   5.688  13.392  0.00  0.00    +0.000 OA
BRANCH  12  14
ATOM     14  O   UNL     1       6.555   4.606  12.561  0.00  0.00    +0.000 OA
BRANCH  14  16
ATOM     15  C   UNL     1       5.401   2.709  11.686  0.00  0.00    +0.000 C 
ATOM     16  C   UNL     1       6.741   3.248  12.157  0.00  0.00    +0.000 C 
ENDBRANCH  14  16
ENDBRANCH  12  14
ENDBRANCH   7  12
ENDBRANCH   1   9
BRANCH   5  17
ATOM     17  S   UNL     1       2.170   5.398  20.291  0.00  0.00    +0.000 S 
ATOM     18  O   UNL     1       0.809   5.526  19.796  0.00  0.00    +0.000 OA
ATOM     19  O   UNL     1       2.380   5.132  21.695  0.00  0.00    +0.000 OA
BRANCH  17  20
ATOM     20  N   UNL     1       2.908   6.848  19.831  0.00  0.00    +0.000 N 
ATOM     21  H   UNL     1       3.670   6.689  19.174  0.00  0.00    +0.000 HD
BRANCH  20  22
ATOM     22  C   UNL     1       2.058   7.951  19.538  0.00  0.00    +0.000 A 
ATOM     23  C   UNL     1       1.895   8.275  18.187  0.00  0.00    +0.000 A 
ATOM     24  C   UNL     1       1.070   9.333  17.803  0.00  0.00    +0.000 A 
ATOM     25  C   UNL     1       0.399  10.087  18.762  0.00  0.00    +0.000 A 
ATOM     26  C   UNL     1       0.551   9.763  20.112  0.00  0.00    +0.000 A 
ATOM     27  C   UNL     1       1.373   8.695  20.516  0.00  0.00    +0.000 A 
BRANCH  25  28
ATOM     28  O   UNL     1      -0.384  11.085  18.254  0.00  0.00    +0.000 OA
ATOM     29  C   UNL     1      -1.402  11.599  19.102  0.00  0.00    +0.000 C 
ENDBRANCH  25  28
BRANCH  27  30
ATOM     30  O   UNL     1       1.283   8.414  21.853  0.00  0.00    +0.000 OA
ATOM     31  C   UNL     1       0.425   9.221  22.648  0.00  0.00    +0.000 C 
ENDBRANCH  27  30
ENDBRANCH  20  22
ENDBRANCH  17  20
ENDBRANCH   5  17
BRANCH   4  32
ATOM     32  O   UNL     1       1.432   2.458  20.077  0.00  0.00    +0.000 OA
ATOM     33  C   UNL     1       1.809   2.168  21.423  0.00  0.00    +0.000 C 
ENDBRANCH   4  32
TORSDOF 10
ENDMDL
MODEL 5
REMARK VINA RESULT:      -6.7      0.967      1.451
REMARK  Name = 
REMARK  14 active torsions:
REMARK  status: ('A' for Active; 'I' for Inactive)
REMARK    1  A    between atoms: C_1  and  C_2
REMARK    2  A    between atoms: C_2  and  O_3
REMARK    3  A    between atoms: O_3  and  C_4
REMARK    4  A    between atoms: C_4  and  C_6
REMARK    5  A    between atoms: C_8  and  C_9
REMARK    6  A    between atoms: C_12  and  O_13
REMARK    7  A    between atoms: O_13  and  C_14
REMARK    8  A    between atoms: C_15  and  S_16
REMARK    9  A    between atoms: S_16  and  N_19
REMARK   10  A    between atoms: N_19  and  C_20
REMARK   11  A    between atoms: C_23  and  O_24
REMARK   12  A    between atoms: O_24  and  C_25
REMARK   13  A    between atoms: C_27  and  O_28
REMARK   14  A    between atoms: O_28  and  C_29
REMARK                            x       y       z     vdW  Elec       q    Type
REMARK                         _______ _______ _______ _____ _____    ______ ____
ROOT
ATOM      1  C   UNL     1       1.946   6.416  19.639  0.00  0.00    +0.000 A 
ATOM      2  C   UNL     1       1.861   5.898  20.934  0.00  0.00    +0.000 A 
ATOM      3  C   UNL     1       2.090   4.546  21.181  0.00  0.00    +0.000 A 
ATOM      4  C   UNL     1       2.461   3.680  20.146  0.00  0.00    +0.000 A 
ATOM      5  C   UNL     1       2.510   4.182  18.840  0.00  0.00    +0.000 A 
ATOM      6  C   UNL     1       2.246   5.541  18.591  0.00  0.00    +0.000 A 
ENDROOT
BRANCH   1   9
ATOM      7  C   UNL     1       1.335   9.993  19.183  0.00  0.00    +0.000 A 
ATOM      8  C   UNL     1       1.217   8.890  20.068  0.00  0.00    +0.000 A 
ATOM      9  C   UNL     1       1.787   7.838  19.391  0.00  0.00    +0.000 A 
ATOM     10  O   UNL     1       2.251   8.292  18.194  0.00  0.00    +0.000 OA
ATOM     11  N   UNL     1       1.978   9.633  18.060  0.00  0.00    +0.000 NA
BRANCH   7  12
ATOM     12  C   UNL     1       0.779  11.326  19.370  0.00  0.00    +0.000 C 
ATOM     13  O   UNL     1      -0.262  11.694  18.837  0.00  0.00    +0.000 OA
BRANCH  12  14
ATOM     14  O   UNL     1       1.601  12.132  20.102  0.00  0.00    +0.000 OA
BRANCH  14  16
ATOM     15  C   UNL     1       2.063  14.252  21.097  0.00  0.00    +0.000 C 
ATOM     16  C   UNL     1       1.392  13.536  19.937  0.00  0.00    +0.000 C 
ENDBRANCH  14  16
ENDBRANCH  12  14
ENDBRANCH   7  12
ENDBRANCH   1   9
BRANCH   5  17
ATOM     17  S   UNL     1       3.142   3.228  17.486  0.00  0.00    +0.000 S 
ATOM     18  O   UNL     1       2.504   1.924  17.561  0.00  0.00    +0.000 OA
ATOM     19  O   UNL     1       3.038   3.986  16.260  0.00  0.00    +0.000 OA
BRANCH  17  20
ATOM     20  N   UNL     1       4.757   2.915  17.870  0.00  0.00    +0.000 N 
ATOM     21  H   UNL     1       5.106   2.090  17.383  0.00  0.00    +0.000 HD
BRANCH  20  22
ATOM     22  C   UNL     1       5.646   4.025  17.918  0.00  0.00    +0.000 A 
ATOM     23  C   UNL     1       5.836   4.622  19.169  0.00  0.00    +0.000 A 
ATOM     24  C   UNL     1       6.698   5.709  19.315  0.00  0.00    +0.000 A 
ATOM     25  C   UNL     1       7.380   6.221  18.213  0.00  0.00    +0.000 A 
ATOM     26  C   UNL     1       7.201   5.624  16.964  0.00  0.00    +0.000 A 
ATOM     27  C   UNL     1       6.341   4.523  16.800  0.00  0.00    +0.000 A 
BRANCH  25  28
ATOM     28  O   UNL     1       8.201   7.277  18.494  0.00  0.00    +0.000 OA
ATOM     29  C   UNL     1       8.013   8.459  17.727  0.00  0.00    +0.000 C 
ENDBRANCH  25  28
BRANCH  27  30
ATOM     30  O   UNL     1       6.405   3.962  15.553  0.00  0.00    +0.000 OA
ATOM     31  C   UNL     1       6.793   4.793  14.467  0.00  0.00    +0.000 C 
ENDBRANCH  27  30
ENDBRANCH  20  22
ENDBRANCH  17  20
ENDBRANCH   5  17
BRANCH   4  32
ATOM     32  O   UNL     1       2.737   2.360  20.370  0.00  0.00    +0.000 OA
ATOM     33  C   UNL     1       3.940   2.088  21.089  0.00  0.00    +0.000 C 
ENDBRANCH   4  32
TORSDOF 10
ENDMDL
MODEL 6
REMARK VINA RESULT:      -6.7      2.897      8.698
REMARK  Name = 
REMARK  14 active torsions:
REMARK  status: ('A' for Active; 'I' for Inactive)
REMARK    1  A    between atoms: C_1  and  C_2
REMARK    2  A    between atoms: C_2  and  O_3
REMARK    3  A    between atoms: O_3  and  C_4
REMARK    4  A    between atoms: C_4  and  C_6
REMARK    5  A    between atoms: C_8  and  C_9
REMARK    6  A    between atoms: C_12  and  O_13
REMARK    7  A    between atoms: O_13  and  C_14
REMARK    8  A    between atoms: C_15  and  S_16
REMARK    9  A    between atoms: S_16  and  N_19
REMARK   10  A    between atoms: N_19  and  C_20
REMARK   11  A    between atoms: C_23  and  O_24
REMARK   12  A    between atoms: O_24  and  C_25
REMARK   13  A    between atoms: C_27  and  O_28
REMARK   14  A    between atoms: O_28  and  C_29
REMARK                            x       y       z     vdW  Elec       q    Type
REMARK                         _______ _______ _______ _____ _____    ______ ____
ROOT
ATOM      1  C   UNL     1       3.212   6.624  18.470  0.00  0.00    +0.000 A 
ATOM      2  C   UNL     1       2.804   6.031  19.667  0.00  0.00    +0.000 A 
ATOM      3  C   UNL     1       1.965   6.708  20.551  0.00  0.00    +0.000 A 
ATOM      4  C   UNL     1       1.470   7.979  20.240  0.00  0.00    +0.000 A 
ATOM      5  C   UNL     1       1.906   8.596  19.061  0.00  0.00    +0.000 A 
ATOM      6  C   UNL     1       2.778   7.922  18.188  0.00  0.00    +0.000 A 
ENDROOT
BRANCH   1   9
ATOM      7  C   UNL     1       5.259   5.002  15.909  0.00  0.00    +0.000 A 
ATOM      8  C   UNL     1       4.947   6.226  16.554  0.00  0.00    +0.000 A 
ATOM      9  C   UNL     1       4.019   5.890  17.511  0.00  0.00    +0.000 A 
ATOM     10  O   UNL     1       3.818   4.543  17.467  0.00  0.00    +0.000 OA
ATOM     11  N   UNL     1       4.591   3.984  16.476  0.00  0.00    +0.000 NA
BRANCH   7  12
ATOM     12  C   UNL     1       6.105   4.822  14.738  0.00  0.00    +0.000 C 
ATOM     13  O   UNL     1       7.061   5.549  14.489  0.00  0.00    +0.000 OA
BRANCH  12  14
ATOM     14  O   UNL     1       5.643   3.841  13.910  0.00  0.00    +0.000 OA
BRANCH  14  16
ATOM     15  C   UNL     1       5.557   2.764  11.782  0.00  0.00    +0.000 C 
ATOM     16  C   UNL     1       6.367   3.674  12.689  0.00  0.00    +0.000 C 
ENDBRANCH  14  16
ENDBRANCH  12  14
ENDBRANCH   7  12
ENDBRANCH   1   9
BRANCH   5  17
ATOM     17  S   UNL     1       1.207  10.117  18.479  0.00  0.00    +0.000 S 
ATOM     18  O   UNL     1       2.222  10.756  17.657  0.00  0.00    +0.000 OA
ATOM     19  O   UNL     1      -0.098   9.873  17.911  0.00  0.00    +0.000 OA
BRANCH  17  20
ATOM     20  N   UNL     1       1.099  11.114  19.840  0.00  0.00    +0.000 N 
ATOM     21  H   UNL     1       1.762  10.836  20.562  0.00  0.00    +0.000 HD
BRANCH  20  22
ATOM     22  C   UNL     1       0.977  12.514  19.617  0.00  0.00    +0.000 A 
ATOM     23  C   UNL     1      -0.020  12.922  18.725  0.00  0.00    +0.000 A 
ATOM     24  C   UNL     1      -0.222  14.276  18.454  0.00  0.00    +0.000 A 
ATOM     25  C   UNL     1       0.572  15.243  19.066  0.00  0.00    +0.000 A 
ATOM     26  C   UNL     1       1.564  14.842  19.964  0.00  0.00    +0.000 A 
ATOM     27  C   UNL     1       1.776  13.482  20.253  0.00  0.00    +0.000 A 
BRANCH  25  28
ATOM     28  O   UNL     1       0.264  16.531  18.724  0.00  0.00    +0.000 OA
ATOM     29  C   UNL     1       1.273  17.278  18.060  0.00  0.00    +0.000 C 
ENDBRANCH  25  28
BRANCH  27  30
ATOM     30  O   UNL     1       2.671  13.274  21.268  0.00  0.00    +0.000 OA
ATOM     31  C   UNL     1       3.850  14.067  21.290  0.00  0.00    +0.000 C 
ENDBRANCH  27  30
ENDBRANCH  20  22
ENDBRANCH  17  20
ENDBRANCH   5  17
BRANCH   4  32
ATOM     32  O   UNL     1       0.610   8.644  21.069  0.00  0.00    +0.000 OA
ATOM     33  C   UNL     1       1.129   8.998  22.351  0.00  0.00    +0.000 C 
ENDBRANCH   4  32
TORSDOF 10
ENDMDL
MODEL 7
REMARK VINA RESULT:      -6.6      1.848      3.464
REMARK  Name = 
REMARK  14 active torsions:
REMARK  status: ('A' for Active; 'I' for Inactive)
REMARK    1  A    between atoms: C_1  and  C_2
REMARK    2  A    between atoms: C_2  and  O_3
REMARK    3  A    between atoms: O_3  and  C_4
REMARK    4  A    between atoms: C_4  and  C_6
REMARK    5  A    between atoms: C_8  and  C_9
REMARK    6  A    between atoms: C_12  and  O_13
REMARK    7  A    between atoms: O_13  and  C_14
REMARK    8  A    between atoms: C_15  and  S_16
REMARK    9  A    between atoms: S_16  and  N_19
REMARK   10  A    between atoms: N_19  and  C_20
REMARK   11  A    between atoms: C_23  and  O_24
REMARK   12  A    between atoms: O_24  and  C_25
REMARK   13  A    between atoms: C_27  and  O_28
REMARK   14  A    between atoms: O_28  and  C_29
REMARK                            x       y       z     vdW  Elec       q    Type
REMARK                         _______ _______ _______ _____ _____    ______ ____
ROOT
ATOM      1  C   UNL     1       2.874   6.866  19.085  0.00  0.00    +0.000 A 
ATOM      2  C   UNL     1       2.234   5.819  19.753  0.00  0.00    +0.000 A 
ATOM      3  C   UNL     1       2.922   4.651  20.078  0.00  0.00    +0.000 A 
ATOM      4  C   UNL     1       4.284   4.517  19.789  0.00  0.00    +0.000 A 
ATOM      5  C   UNL     1       4.923   5.544  19.085  0.00  0.00    +0.000 A 
ATOM      6  C   UNL     1       4.216   6.707  18.731  0.00  0.00    +0.000 A 
ENDROOT
BRANCH   1   9
ATOM      7  C   UNL     1       0.930   9.920  18.567  0.00  0.00    +0.000 A 
ATOM      8  C   UNL     1       1.209   8.848  19.453  0.00  0.00    +0.000 A 
ATOM      9  C   UNL     1       2.181   8.114  18.817  0.00  0.00    +0.000 A 
ATOM     10  O   UNL     1       2.493   8.731  17.643  0.00  0.00    +0.000 OA
ATOM     11  N   UNL     1       1.721   9.858  17.484  0.00  0.00    +0.000 NA
BRANCH   7  12
ATOM     12  C   UNL     1      -0.115  10.925  18.712  0.00  0.00    +0.000 C 
ATOM     13  O   UNL     1       0.114  12.130  18.697  0.00  0.00    +0.000 OA
BRANCH  12  14
ATOM     14  O   UNL     1      -1.333  10.371  18.977  0.00  0.00    +0.000 OA
BRANCH  14  16
ATOM     15  C   UNL     1      -3.327  11.515  18.336  0.00  0.00    +0.000 C 
ATOM     16  C   UNL     1      -2.297  10.475  17.928  0.00  0.00    +0.000 C 
ENDBRANCH  14  16
ENDBRANCH  12  14
ENDBRANCH   7  12
ENDBRANCH   1   9
BRANCH   5  17
ATOM     17  S   UNL     1       6.677   5.563  18.828  0.00  0.00    +0.000 S 
ATOM     18  O   UNL     1       6.954   6.664  17.921  0.00  0.00    +0.000 OA
ATOM     19  O   UNL     1       7.360   5.518  20.100  0.00  0.00    +0.000 OA
BRANCH  17  20
ATOM     20  N   UNL     1       7.013   4.184  17.910  0.00  0.00    +0.000 N 
ATOM     21  H   UNL     1       6.846   3.330  18.441  0.00  0.00    +0.000 HD
BRANCH  20  22
ATOM     22  C   UNL     1       6.563   4.171  16.560  0.00  0.00    +0.000 A 
ATOM     23  C   UNL     1       7.458   4.648  15.597  0.00  0.00    +0.000 A 
ATOM     24  C   UNL     1       7.108   4.662  14.246  0.00  0.00    +0.000 A 
ATOM     25  C   UNL     1       5.858   4.204  13.837  0.00  0.00    +0.000 A 
ATOM     26  C   UNL     1       4.964   3.719  14.793  0.00  0.00    +0.000 A 
ATOM     27  C   UNL     1       5.302   3.692  16.158  0.00  0.00    +0.000 A 
BRANCH  25  28
ATOM     28  O   UNL     1       5.646   4.261  12.487  0.00  0.00    +0.000 OA
ATOM     29  C   UNL     1       4.926   3.184  11.904  0.00  0.00    +0.000 C 
ENDBRANCH  25  28
BRANCH  27  30
ATOM     30  O   UNL     1       4.382   3.040  16.935  0.00  0.00    +0.000 OA
ATOM     31  C   UNL     1       3.010   3.363  16.755  0.00  0.00    +0.000 C 
ENDBRANCH  27  30
ENDBRANCH  20  22
ENDBRANCH  17  20
ENDBRANCH   5  17
BRANCH   4  32
ATOM     32  O   UNL     1       4.992   3.400  20.140  0.00  0.00    +0.000 OA
ATOM     33  C   UNL     1       4.226   2.209  20.322  0.00  0.00    +0.000 C 
ENDBRANCH   4  32
TORSDOF 10
ENDMDL
MODEL 8
REMARK VINA RESULT:      -6.6      2.692      8.625
REMARK  Name = 
REMARK  14 active torsions:
REMARK  status: ('A' for Active; 'I' for Inactive)
REMARK    1  A    between atoms: C_1  and  C_2
REMARK    2  A    between atoms: C_2  and  O_3
REMARK    3  A    between atoms: O_3  and  C_4
REMARK    4  A    between atoms: C_4  and  C_6
REMARK    5  A    between atoms: C_8  and  C_9
REMARK    6  A    between atoms: C_12  and  O_13
REMARK    7  A    between atoms: O_13  and  C_14
REMARK    8  A    between atoms: C_15  and  S_16
REMARK    9  A    between atoms: S_16  and  N_19
REMARK   10  A    between atoms: N_19  and  C_20
REMARK   11  A    between atoms: C_23  and  O_24
REMARK   12  A    between atoms: O_24  and  C_25
REMARK   13  A    between atoms: C_27  and  O_28
REMARK   14  A    between atoms: O_28  and  C_29
REMARK                            x       y       z     vdW  Elec       q    Type
REMARK                         _______ _______ _______ _____ _____    ______ ____
ROOT
ATOM      1  C   UNL     1       4.732   5.845  17.155  0.00  0.00    +0.000 A 
ATOM      2  C   UNL     1       4.695   4.976  18.249  0.00  0.00    +0.000 A 
ATOM      3  C   UNL     1       3.865   5.234  19.339  0.00  0.00    +0.000 A 
ATOM      4  C   UNL     1       3.010   6.342  19.345  0.00  0.00    +0.000 A 
ATOM      5  C   UNL     1       3.071   7.238  18.271  0.00  0.00    +0.000 A 
ATOM      6  C   UNL     1       3.933   6.991  17.188  0.00  0.00    +0.000 A 
ENDROOT
BRANCH   1   9
ATOM      7  C   UNL     1       6.584   4.864  14.158  0.00  0.00    +0.000 A 
ATOM      8  C   UNL     1       5.318   4.880  14.797  0.00  0.00    +0.000 A 
ATOM      9  C   UNL     1       5.534   5.536  15.984  0.00  0.00    +0.000 A 
ATOM     10  O   UNL     1       6.840   5.922  16.036  0.00  0.00    +0.000 OA
ATOM     11  N   UNL     1       7.497   5.511  14.900  0.00  0.00    +0.000 NA
BRANCH   7  12
ATOM     12  C   UNL     1       6.929   4.180  12.919  0.00  0.00    +0.000 C 
ATOM     13  O   UNL     1       7.569   4.715  12.020  0.00  0.00    +0.000 OA
BRANCH  12  14
ATOM     14  O   UNL     1       6.366   2.941  12.837  0.00  0.00    +0.000 OA
BRANCH  14  16
ATOM     15  C   UNL     1       4.371   3.259  11.566  0.00  0.00    +0.000 C 
ATOM     16  C   UNL     1       5.752   2.626  11.586  0.00  0.00    +0.000 C 
ENDBRANCH  14  16
ENDBRANCH  12  14
ENDBRANCH   7  12
ENDBRANCH   1   9
BRANCH   5  17
ATOM     17  S   UNL     1       1.913   8.568  18.086  0.00  0.00    +0.000 S 
ATOM     18  O   UNL     1       2.653   9.693  17.540  0.00  0.00    +0.000 OA
ATOM     19  O   UNL     1       0.737   8.102  17.388  0.00  0.00    +0.000 OA
BRANCH  17  20
ATOM     20  N   UNL     1       1.531   9.056  19.658  0.00  0.00    +0.000 N 
ATOM     21  H   UNL     1       2.369   9.224  20.212  0.00  0.00    +0.000 HD
BRANCH  20  22
ATOM     22  C   UNL     1       0.485  10.009  19.812  0.00  0.00    +0.000 A 
ATOM     23  C   UNL     1      -0.275  10.294  18.672  0.00  0.00    +0.000 A 
ATOM     24  C   UNL     1      -1.329  11.206  18.730  0.00  0.00    +0.000 A 
ATOM     25  C   UNL     1      -1.637  11.852  19.925  0.00  0.00    +0.000 A 
ATOM     26  C   UNL     1      -0.887  11.566  21.067  0.00  0.00    +0.000 A 
ATOM     27  C   UNL     1       0.175  10.644  21.028  0.00  0.00    +0.000 A 
BRANCH  25  28
ATOM     28  O   UNL     1      -2.698  12.711  19.849  0.00  0.00    +0.000 OA
ATOM     29  C   UNL     1      -3.922  12.179  19.363  0.00  0.00    +0.000 C 
ENDBRANCH  25  28
BRANCH  27  30
ATOM     30  O   UNL     1       0.697  10.361  22.262  0.00  0.00    +0.000 OA
ATOM     31  C   UNL     1      -0.093   9.592  23.159  0.00  0.00    +0.000 C 
ENDBRANCH  27  30
ENDBRANCH  20  22
ENDBRANCH  17  20
ENDBRANCH   5  17
BRANCH   4  32
ATOM     32  O   UNL     1       2.154   6.591  20.381  0.00  0.00    +0.000 OA
ATOM     33  C   UNL     1       1.481   5.453  20.920  0.00  0.00    +0.000 C 
ENDBRANCH   4  32
TORSDOF 10
ENDMDL
MODEL 9
REMARK VINA RESULT:      -6.6      3.620      9.158
REMARK  Name = 
REMARK  14 active torsions:
REMARK  status: ('A' for Active; 'I' for Inactive)
REMARK    1  A    between atoms: C_1  and  C_2
REMARK    2  A    between atoms: C_2  and  O_3
REMARK    3  A    between atoms: O_3  and  C_4
REMARK    4  A    between atoms: C_4  and  C_6
REMARK    5  A    between atoms: C_8  and  C_9
REMARK    6  A    between atoms: C_12  and  O_13
REMARK    7  A    between atoms: O_13  and  C_14
REMARK    8  A    between atoms: C_15  and  S_16
REMARK    9  A    between atoms: S_16  and  N_19
REMARK   10  A    between atoms: N_19  and  C_20
REMARK   11  A    between atoms: C_23  and  O_24
REMARK   12  A    between atoms: O_24  and  C_25
REMARK   13  A    between atoms: C_27  and  O_28
REMARK   14  A    between atoms: O_28  and  C_29
REMARK                            x       y       z     vdW  Elec       q    Type
REMARK                         _______ _______ _______ _____ _____    ______ ____
ROOT
ATOM      1  C   UNL     1       1.473   7.986  20.345  0.00  0.00    +0.000 A 
ATOM      2  C   UNL     1       0.616   7.863  21.443  0.00  0.00    +0.000 A 
ATOM      3  C   UNL     1      -0.162   8.939  21.867  0.00  0.00    +0.000 A 
ATOM      4  C   UNL     1      -0.145  10.154  21.174  0.00  0.00    +0.000 A 
ATOM      5  C   UNL     1       0.740  10.297  20.098  0.00  0.00    +0.000 A 
ATOM      6  C   UNL     1       1.546   9.220  19.694  0.00  0.00    +0.000 A 
ENDROOT
BRANCH   1   9
ATOM      7  C   UNL     1       3.375   5.022  19.360  0.00  0.00    +0.000 A 
ATOM      8  C   UNL     1       2.459   5.565  20.297  0.00  0.00    +0.000 A 
ATOM      9  C   UNL     1       2.223   6.844  19.853  0.00  0.00    +0.000 A 
ATOM     10  O   UNL     1       2.924   7.040  18.702  0.00  0.00    +0.000 OA
ATOM     11  N   UNL     1       3.639   5.908  18.387  0.00  0.00    +0.000 NA
BRANCH   7  12
ATOM     12  C   UNL     1       4.040   3.729  19.437  0.00  0.00    +0.000 C 
ATOM     13  O   UNL     1       5.253   3.595  19.312  0.00  0.00    +0.000 OA
BRANCH  12  14
ATOM     14  O   UNL     1       3.156   2.696  19.548  0.00  0.00    +0.000 OA
BRANCH  14  16
ATOM     15  C   UNL     1       0.948   2.392  18.694  0.00  0.00    +0.000 C 
ATOM     16  C   UNL     1       2.429   2.378  18.359  0.00  0.00    +0.000 C 
ENDBRANCH  14  16
ENDBRANCH  12  14
ENDBRANCH   7  12
ENDBRANCH   1   9
BRANCH   5  17
ATOM     17  S   UNL     1       0.715  11.720  19.040  0.00  0.00    +0.000 S 
ATOM     18  O   UNL     1       1.950  11.693  18.275  0.00  0.00    +0.000 OA
ATOM     19  O   UNL     1      -0.543  11.785  18.333  0.00  0.00    +0.000 OA
BRANCH  17  20
ATOM     20  N   UNL     1       0.901  13.049  20.068  0.00  0.00    +0.000 N 
ATOM     21  H   UNL     1       1.620  12.882  20.770  0.00  0.00    +0.000 HD
BRANCH  20  22
ATOM     22  C   UNL     1       0.907  14.342  19.471  0.00  0.00    +0.000 A 
ATOM     23  C   UNL     1      -0.330  14.984  19.356  0.00  0.00    +0.000 A 
ATOM     24  C   UNL     1      -0.420  16.259  18.795  0.00  0.00    +0.000 A 
ATOM     25  C   UNL     1       0.723  16.909  18.337  0.00  0.00    +0.000 A 
ATOM     26  C   UNL     1       1.962  16.276  18.457  0.00  0.00    +0.000 A 
ATOM     27  C   UNL     1       2.071  14.994  19.025  0.00  0.00    +0.000 A 
BRANCH  25  28
ATOM     28  O   UNL     1       0.499  18.156  17.821  0.00  0.00    +0.000 OA
ATOM     29  C   UNL     1       1.052  18.431  16.541  0.00  0.00    +0.000 C 
ENDBRANCH  25  28
BRANCH  27  30
ATOM     30  O   UNL     1       3.366  14.590  19.214  0.00  0.00    +0.000 OA
ATOM     31  C   UNL     1       4.131  15.250  20.214  0.00  0.00    +0.000 C 
ENDBRANCH  27  30
ENDBRANCH  20  22
ENDBRANCH  17  20
ENDBRANCH   5  17
BRANCH   4  32
ATOM     32  O   UNL     1      -0.933  11.209  21.542  0.00  0.00    +0.000 OA
ATOM     33  C   UNL     1      -1.186  11.339  22.941  0.00  0.00    +0.000 C 
ENDBRANCH   4  32
TORSDOF 10
ENDMDL
