MODEL 1
REMARK VINA RESULT:      -8.7      0.000      0.000
REMARK  Name = 
REMARK  5 active torsions:
REMARK  status: ('A' for Active; 'I' for Inactive)
REMARK    1  A    between atoms: C_2  and  C_11
REMARK    2  A    between atoms: N_3  and  C_4
REMARK    3  A    between atoms: C_4  and  C_5
REMARK    4  A    between atoms: C_13  and  C_14
REMARK    5  A    between atoms: C_18  and  C_19
REMARK                            x       y       z     vdW  Elec       q    Type
REMARK                         _______ _______ _______ _____ _____    ______ ____
ROOT
ATOM      1  C   UNL     1       8.295   8.574  18.297  0.00  0.00    +0.000 A 
ATOM      2  C   UNL     1       7.554   8.074  17.244  0.00  0.00    +0.000 A 
ATOM      3  C   UNL     1       7.396   6.682  17.426  0.00  0.00    +0.000 A 
ATOM      4  C   UNL     1       7.965   6.361  18.634  0.00  0.00    +0.000 A 
ATOM      5  N   UNL     1       8.552   7.502  19.131  0.00  0.00    +0.000 N 
ATOM      6  H   UNL     1       9.110   7.569  19.974  0.00  0.00    +0.000 HD
ENDROOT
BRANCH   3   7
ATOM      7  C   UNL     1       6.764   5.740  16.473  0.00  0.00    +0.000 A 
ATOM      8  N   UNL     1       7.339   5.345  15.293  0.00  0.00    +0.000 N 
ATOM      9  N   UNL     1       6.664   4.376  14.658  0.00  0.00    +0.000 NA
ATOM     10  C   UNL     1       5.573   4.218  15.411  0.00  0.00    +0.000 A 
ATOM     11  C   UNL     1       5.549   5.072  16.547  0.00  0.00    +0.000 A 
ATOM     12  H   UNL     1       8.230   5.645  14.913  0.00  0.00    +0.000 HD
BRANCH  11  13
ATOM     13  C   UNL     1       4.469   5.281  17.514  0.00  0.00    +0.000 A 
ATOM     14  C   UNL     1       3.749   6.489  17.554  0.00  0.00    +0.000 A 
ATOM     15  C   UNL     1       2.745   6.715  18.495  0.00  0.00    +0.000 A 
ATOM     16  C   UNL     1       2.371   5.693  19.356  0.00  0.00    +0.000 A 
ATOM     17  C   UNL     1       3.021   4.463  19.282  0.00  0.00    +0.000 A 
ATOM     18 CL   UNL     1       2.506   3.177  20.303  0.00  0.00    +0.000 Cl
ATOM     19  C   UNL     1       4.074   4.257  18.384  0.00  0.00    +0.000 A 
ENDBRANCH  11  13
ENDBRANCH   3   7
BRANCH   1  21
ATOM     20  O   UNL     1       8.617  10.834  17.775  0.00  0.00    +0.000 OA
ATOM     21  C   UNL     1       8.785   9.907  18.558  0.00  0.00    +0.000 C 
ATOM     22  N   UNL     1       9.456  10.043  19.752  0.00  0.00    +0.000 N 
ATOM     23  H   UNL     1       9.701   9.214  20.267  0.00  0.00    +0.000 HD
BRANCH  22  24
ATOM     24  C   UNL     1      10.096  11.276  20.139  0.00  0.00    +0.000 C 
BRANCH  24  25
ATOM     25  C   UNL     1       9.162  12.134  20.946  0.00  0.00    +0.000 A 
ATOM     26  C   UNL     1       8.579  11.633  22.114  0.00  0.00    +0.000 A 
ATOM     27  C   UNL     1       7.718  12.447  22.830  0.00  0.00    +0.000 A 
ATOM     28  N   UNL     1       7.395  13.705  22.462  0.00  0.00    +0.000 NA
ATOM     29  C   UNL     1       7.952  14.164  21.321  0.00  0.00    +0.000 A 
ATOM     30  C   UNL     1       8.824  13.426  20.535  0.00  0.00    +0.000 A 
ENDBRANCH  24  25
ENDBRANCH  22  24
ENDBRANCH   1  21
TORSDOF 5
ENDMDL
MODEL 2
REMARK VINA RESULT:      -8.7      1.720      2.045
REMARK  Name = 
REMARK  5 active torsions:
REMARK  status: ('A' for Active; 'I' for Inactive)
REMARK    1  A    between atoms: C_2  and  C_11
REMARK    2  A    between atoms: N_3  and  C_4
REMARK    3  A    between atoms: C_4  and  C_5
REMARK    4  A    between atoms: C_13  and  C_14
REMARK    5  A    between atoms: C_18  and  C_19
REMARK                            x       y       z     vdW  Elec       q    Type
REMARK                         _______ _______ _______ _____ _____    ______ ____
ROOT
ATOM      1  C   UNL     1       8.441   8.539  18.420  0.00  0.00    +0.000 A 
ATOM      2  C   UNL     1       7.765   8.173  17.272  0.00  0.00    +0.000 A 
ATOM      3  C   UNL     1       7.453   6.798  17.352  0.00  0.00    +0.000 A 
ATOM      4  C   UNL     1       7.860   6.358  18.588  0.00  0.00    +0.000 A 
ATOM      5  N   UNL     1       8.503   7.405  19.208  0.00  0.00    +0.000 N 
ATOM      6  H   UNL     1       8.977   7.370  20.103  0.00  0.00    +0.000 HD
ENDROOT
BRANCH   3   7
ATOM      7  C   UNL     1       6.831   5.977  16.287  0.00  0.00    +0.000 A 
ATOM      8  N   UNL     1       7.494   5.549  15.166  0.00  0.00    +0.000 N 
ATOM      9  N   UNL     1       6.787   4.696  14.410  0.00  0.00    +0.000 NA
ATOM     10  C   UNL     1       5.600   4.657  15.020  0.00  0.00    +0.000 A 
ATOM     11  C   UNL     1       5.542   5.470  16.184  0.00  0.00    +0.000 A 
ATOM     12  H   UNL     1       8.455   5.743  14.909  0.00  0.00    +0.000 HD
BRANCH  11  13
ATOM     13  C   UNL     1       4.386   5.786  17.025  0.00  0.00    +0.000 A 
ATOM     14  C   UNL     1       4.041   7.117  17.321  0.00  0.00    +0.000 A 
ATOM     15  C   UNL     1       2.965   7.430  18.152  0.00  0.00    +0.000 A 
ATOM     16  C   UNL     1       2.147   6.414  18.625  0.00  0.00    +0.000 A 
ATOM     17  C   UNL     1       2.427   5.093  18.281  0.00  0.00    +0.000 A 
ATOM     18 CL   UNL     1       1.369   3.843  18.811  0.00  0.00    +0.000 Cl
ATOM     19  C   UNL     1       3.545   4.772  17.503  0.00  0.00    +0.000 A 
ENDBRANCH  11  13
ENDBRANCH   3   7
BRANCH   1  21
ATOM     20  O   UNL     1       9.164  10.129  19.980  0.00  0.00    +0.000 OA
ATOM     21  C   UNL     1       9.031   9.798  18.808  0.00  0.00    +0.000 C 
ATOM     22  N   UNL     1       9.424  10.591  17.753  0.00  0.00    +0.000 N 
ATOM     23  H   UNL     1       9.139  10.335  16.823  0.00  0.00    +0.000 HD
BRANCH  22  24
ATOM     24  C   UNL     1       9.947  11.920  17.944  0.00  0.00    +0.000 C 
BRANCH  24  25
ATOM     25  C   UNL     1       8.836  12.901  18.197  0.00  0.00    +0.000 A 
ATOM     26  C   UNL     1       7.790  13.032  17.279  0.00  0.00    +0.000 A 
ATOM     27  C   UNL     1       6.788  13.950  17.539  0.00  0.00    +0.000 A 
ATOM     28  N   UNL     1       6.759  14.741  18.632  0.00  0.00    +0.000 NA
ATOM     29  C   UNL     1       7.787  14.614  19.498  0.00  0.00    +0.000 A 
ATOM     30  C   UNL     1       8.838  13.726  19.326  0.00  0.00    +0.000 A 
ENDBRANCH  24  25
ENDBRANCH  22  24
ENDBRANCH   1  21
TORSDOF 5
ENDMDL
MODEL 3
REMARK VINA RESULT:      -8.7      1.159      1.735
REMARK  Name = 
REMARK  5 active torsions:
REMARK  status: ('A' for Active; 'I' for Inactive)
REMARK    1  A    between atoms: C_2  and  C_11
REMARK    2  A    between atoms: N_3  and  C_4
REMARK    3  A    between atoms: C_4  and  C_5
REMARK    4  A    between atoms: C_13  and  C_14
REMARK    5  A    between atoms: C_18  and  C_19
REMARK                            x       y       z     vdW  Elec       q    Type
REMARK                         _______ _______ _______ _____ _____    ______ ____
ROOT
ATOM      1  C   UNL     1       8.321   8.615  18.304  0.00  0.00    +0.000 A 
ATOM      2  C   UNL     1       7.586   8.141  17.234  0.00  0.00    +0.000 A 
ATOM      3  C   UNL     1       7.416   6.747  17.388  0.00  0.00    +0.000 A 
ATOM      4  C   UNL     1       7.971   6.398  18.595  0.00  0.00    +0.000 A 
ATOM      5  N   UNL     1       8.561   7.525  19.119  0.00  0.00    +0.000 N 
ATOM      6  H   UNL     1       9.113   7.572  19.968  0.00  0.00    +0.000 HD
ENDROOT
BRANCH   3   7
ATOM      7  C   UNL     1       6.785   5.828  16.412  0.00  0.00    +0.000 A 
ATOM      8  N   UNL     1       7.409   5.370  15.280  0.00  0.00    +0.000 N 
ATOM      9  N   UNL     1       6.713   4.434  14.618  0.00  0.00    +0.000 NA
ATOM     10  C   UNL     1       5.566   4.366  15.299  0.00  0.00    +0.000 A 
ATOM     11  C   UNL     1       5.525   5.244  16.415  0.00  0.00    +0.000 A 
ATOM     12  H   UNL     1       8.341   5.601  14.955  0.00  0.00    +0.000 HD
BRANCH  11  13
ATOM     13  C   UNL     1       4.401   5.546  17.304  0.00  0.00    +0.000 A 
ATOM     14  C   UNL     1       3.904   4.586  18.203  0.00  0.00    +0.000 A 
ATOM     15  C   UNL     1       2.809   4.849  19.027  0.00  0.00    +0.000 A 
ATOM     16  C   UNL     1       2.251   6.120  19.040  0.00  0.00    +0.000 A 
ATOM     17  C   UNL     1       2.779   7.108  18.211  0.00  0.00    +0.000 A 
ATOM     18 CL   UNL     1       2.130   8.700  18.282  0.00  0.00    +0.000 Cl
ATOM     19  C   UNL     1       3.833   6.826  17.334  0.00  0.00    +0.000 A 
ENDBRANCH  11  13
ENDBRANCH   3   7
BRANCH   1  21
ATOM     20  O   UNL     1       8.732  10.864  17.796  0.00  0.00    +0.000 OA
ATOM     21  C   UNL     1       8.818   9.939  18.594  0.00  0.00    +0.000 C 
ATOM     22  N   UNL     1       9.397  10.069  19.837  0.00  0.00    +0.000 N 
ATOM     23  H   UNL     1       9.583   9.239  20.374  0.00  0.00    +0.000 HD
BRANCH  22  24
ATOM     24  C   UNL     1      10.031  11.290  20.265  0.00  0.00    +0.000 C 
BRANCH  24  25
ATOM     25  C   UNL     1       9.077  12.140  21.057  0.00  0.00    +0.000 A 
ATOM     26  C   UNL     1       8.810  13.454  20.660  0.00  0.00    +0.000 A 
ATOM     27  C   UNL     1       7.932  14.211  21.417  0.00  0.00    +0.000 A 
ATOM     28  N   UNL     1       7.317  13.759  22.530  0.00  0.00    +0.000 NA
ATOM     29  C   UNL     1       7.601  12.495  22.908  0.00  0.00    +0.000 A 
ATOM     30  C   UNL     1       8.467  11.659  22.219  0.00  0.00    +0.000 A 
ENDBRANCH  24  25
ENDBRANCH  22  24
ENDBRANCH   1  21
TORSDOF 5
ENDMDL
MODEL 4
REMARK VINA RESULT:      -8.6      1.373      1.651
REMARK  Name = 
REMARK  5 active torsions:
REMARK  status: ('A' for Active; 'I' for Inactive)
REMARK    1  A    between atoms: C_2  and  C_11
REMARK    2  A    between atoms: N_3  and  C_4
REMARK    3  A    between atoms: C_4  and  C_5
REMARK    4  A    between atoms: C_13  and  C_14
REMARK    5  A    between atoms: C_18  and  C_19
REMARK                            x       y       z     vdW  Elec       q    Type
REMARK                         _______ _______ _______ _____ _____    ______ ____
ROOT
ATOM      1  C   UNL     1       8.377   8.872  18.293  0.00  0.00    +0.000 A 
ATOM      2  C   UNL     1       7.552   8.361  17.310  0.00  0.00    +0.000 A 
ATOM      3  C   UNL     1       7.404   6.972  17.523  0.00  0.00    +0.000 A 
ATOM      4  C   UNL     1       8.067   6.665  18.686  0.00  0.00    +0.000 A 
ATOM      5  N   UNL     1       8.697   7.810  19.118  0.00  0.00    +0.000 N 
ATOM      6  H   UNL     1       9.322   7.886  19.912  0.00  0.00    +0.000 HD
ENDROOT
BRANCH   3   7
ATOM      7  C   UNL     1       6.693   6.020  16.638  0.00  0.00    +0.000 A 
ATOM      8  N   UNL     1       7.239   5.480  15.502  0.00  0.00    +0.000 N 
ATOM      9  N   UNL     1       6.480   4.531  14.935  0.00  0.00    +0.000 NA
ATOM     10  C   UNL     1       5.372   4.537  15.681  0.00  0.00    +0.000 A 
ATOM     11  C   UNL     1       5.420   5.478  16.745  0.00  0.00    +0.000 A 
ATOM     12  H   UNL     1       8.157   5.663  15.114  0.00  0.00    +0.000 HD
BRANCH  11  13
ATOM     13  C   UNL     1       4.357   5.865  17.675  0.00  0.00    +0.000 A 
ATOM     14  C   UNL     1       4.057   5.085  18.806  0.00  0.00    +0.000 A 
ATOM     15  C   UNL     1       3.022   5.422  19.678  0.00  0.00    +0.000 A 
ATOM     16  C   UNL     1       2.327   6.608  19.490  0.00  0.00    +0.000 A 
ATOM     17  C   UNL     1       2.660   7.434  18.418  0.00  0.00    +0.000 A 
ATOM     18 CL   UNL     1       1.845   8.938  18.230  0.00  0.00    +0.000 Cl
ATOM     19  C   UNL     1       3.653   7.063  17.503  0.00  0.00    +0.000 A 
ENDBRANCH  11  13
ENDBRANCH   3   7
BRANCH   1  21
ATOM     20  O   UNL     1       8.627  11.134  17.740  0.00  0.00    +0.000 OA
ATOM     21  C   UNL     1       8.891  10.206  18.495  0.00  0.00    +0.000 C 
ATOM     22  N   UNL     1       9.701  10.342  19.600  0.00  0.00    +0.000 N 
ATOM     23  H   UNL     1      10.009   9.513  20.080  0.00  0.00    +0.000 HD
BRANCH  22  24
ATOM     24  C   UNL     1      10.379  11.576  19.908  0.00  0.00    +0.000 C 
BRANCH  24  25
ATOM     25  C   UNL     1       9.700  12.291  21.043  0.00  0.00    +0.000 A 
ATOM     26  C   UNL     1       8.716  11.642  21.795  0.00  0.00    +0.000 A 
ATOM     27  C   UNL     1       8.106  12.332  22.829  0.00  0.00    +0.000 A 
ATOM     28  N   UNL     1       8.399  13.609  23.155  0.00  0.00    +0.000 NA
ATOM     29  C   UNL     1       9.338  14.225  22.406  0.00  0.00    +0.000 A 
ATOM     30  C   UNL     1      10.004  13.620  21.351  0.00  0.00    +0.000 A 
ENDBRANCH  24  25
ENDBRANCH  22  24
ENDBRANCH   1  21
TORSDOF 5
ENDMDL
MODEL 5
REMARK VINA RESULT:      -8.6      2.396      2.785
REMARK  Name = 
REMARK  5 active torsions:
REMARK  status: ('A' for Active; 'I' for Inactive)
REMARK    1  A    between atoms: C_2  and  C_11
REMARK    2  A    between atoms: N_3  and  C_4
REMARK    3  A    between atoms: C_4  and  C_5
REMARK    4  A    between atoms: C_13  and  C_14
REMARK    5  A    between atoms: C_18  and  C_19
REMARK                            x       y       z     vdW  Elec       q    Type
REMARK                         _______ _______ _______ _____ _____    ______ ____
ROOT
ATOM      1  C   UNL     1       8.568   8.807  18.544  0.00  0.00    +0.000 A 
ATOM      2  C   UNL     1       7.747   8.464  17.487  0.00  0.00    +0.000 A 
ATOM      3  C   UNL     1       7.446   7.087  17.578  0.00  0.00    +0.000 A 
ATOM      4  C   UNL     1       8.013   6.621  18.739  0.00  0.00    +0.000 A 
ATOM      5  N   UNL     1       8.733   7.656  19.291  0.00  0.00    +0.000 N 
ATOM      6  H   UNL     1       9.320   7.602  20.115  0.00  0.00    +0.000 HD
ENDROOT
BRANCH   3   7
ATOM      7  C   UNL     1       6.689   6.288  16.587  0.00  0.00    +0.000 A 
ATOM      8  N   UNL     1       7.231   5.795  15.427  0.00  0.00    +0.000 N 
ATOM      9  N   UNL     1       6.411   4.976  14.751  0.00  0.00    +0.000 NA
ATOM     10  C   UNL     1       5.278   5.027  15.454  0.00  0.00    +0.000 A 
ATOM     11  C   UNL     1       5.366   5.865  16.599  0.00  0.00    +0.000 A 
ATOM     12  H   UNL     1       8.178   5.920  15.090  0.00  0.00    +0.000 HD
BRANCH  11  13
ATOM     13  C   UNL     1       4.304   6.273  17.521  0.00  0.00    +0.000 A 
ATOM     14  C   UNL     1       4.042   5.551  18.698  0.00  0.00    +0.000 A 
ATOM     15  C   UNL     1       3.009   5.907  19.565  0.00  0.00    +0.000 A 
ATOM     16  C   UNL     1       2.278   7.061  19.320  0.00  0.00    +0.000 A 
ATOM     17  C   UNL     1       2.572   7.833  18.199  0.00  0.00    +0.000 A 
ATOM     18 CL   UNL     1       1.711   9.300  17.938  0.00  0.00    +0.000 Cl
ATOM     19  C   UNL     1       3.563   7.440  17.292  0.00  0.00    +0.000 A 
ENDBRANCH  11  13
ENDBRANCH   3   7
BRANCH   1  21
ATOM     20  O   UNL     1       9.344  10.437  20.034  0.00  0.00    +0.000 OA
ATOM     21  C   UNL     1       9.205  10.058  18.878  0.00  0.00    +0.000 C 
ATOM     22  N   UNL     1       9.635  10.785  17.791  0.00  0.00    +0.000 N 
ATOM     23  H   UNL     1       9.345  10.499  16.870  0.00  0.00    +0.000 HD
BRANCH  22  24
ATOM     24  C   UNL     1      10.209  12.101  17.924  0.00  0.00    +0.000 C 
BRANCH  24  25
ATOM     25  C   UNL     1       9.141  13.158  17.873  0.00  0.00    +0.000 A 
ATOM     26  C   UNL     1       9.421  14.461  18.295  0.00  0.00    +0.000 A 
ATOM     27  C   UNL     1       8.413  15.409  18.242  0.00  0.00    +0.000 A 
ATOM     28  N   UNL     1       7.161  15.149  17.810  0.00  0.00    +0.000 NA
ATOM     29  C   UNL     1       6.904  13.881  17.423  0.00  0.00    +0.000 A 
ATOM     30  C   UNL     1       7.845  12.862  17.441  0.00  0.00    +0.000 A 
ENDBRANCH  24  25
ENDBRANCH  22  24
ENDBRANCH   1  21
TORSDOF 5
ENDMDL
MODEL 6
REMARK VINA RESULT:      -8.6      1.724      2.022
REMARK  Name = 
REMARK  5 active torsions:
REMARK  status: ('A' for Active; 'I' for Inactive)
REMARK    1  A    between atoms: C_2  and  C_11
REMARK    2  A    between atoms: N_3  and  C_4
REMARK    3  A    between atoms: C_4  and  C_5
REMARK    4  A    between atoms: C_13  and  C_14
REMARK    5  A    between atoms: C_18  and  C_19
REMARK                            x       y       z     vdW  Elec       q    Type
REMARK                         _______ _______ _______ _____ _____    ______ ____
ROOT
ATOM      1  C   UNL     1       8.506   8.870  18.524  0.00  0.00    +0.000 A 
ATOM      2  C   UNL     1       7.657   8.504  17.497  0.00  0.00    +0.000 A 
ATOM      3  C   UNL     1       7.423   7.114  17.580  0.00  0.00    +0.000 A 
ATOM      4  C   UNL     1       8.058   6.659  18.710  0.00  0.00    +0.000 A 
ATOM      5  N   UNL     1       8.753   7.718  19.247  0.00  0.00    +0.000 N 
ATOM      6  H   UNL     1       9.377   7.681  20.045  0.00  0.00    +0.000 HD
ENDROOT
BRANCH   3   7
ATOM      7  C   UNL     1       6.661   6.294  16.609  0.00  0.00    +0.000 A 
ATOM      8  N   UNL     1       7.190   5.800  15.445  0.00  0.00    +0.000 N 
ATOM      9  N   UNL     1       6.372   4.962  14.790  0.00  0.00    +0.000 NA
ATOM     10  C   UNL     1       5.251   5.001  15.513  0.00  0.00    +0.000 A 
ATOM     11  C   UNL     1       5.346   5.850  16.649  0.00  0.00    +0.000 A 
ATOM     12  H   UNL     1       8.129   5.937  15.089  0.00  0.00    +0.000 HD
BRANCH  11  13
ATOM     13  C   UNL     1       4.294   6.249  17.586  0.00  0.00    +0.000 A 
ATOM     14  C   UNL     1       3.563   7.436  17.401  0.00  0.00    +0.000 A 
ATOM     15  C   UNL     1       2.586   7.847  18.308  0.00  0.00    +0.000 A 
ATOM     16  C   UNL     1       2.249   7.021  19.371  0.00  0.00    +0.000 A 
ATOM     17  C   UNL     1       2.908   5.804  19.529  0.00  0.00    +0.000 A 
ATOM     18 CL   UNL     1       2.436   4.752  20.807  0.00  0.00    +0.000 Cl
ATOM     19  C   UNL     1       3.936   5.422  18.659  0.00  0.00    +0.000 A 
ENDBRANCH  11  13
ENDBRANCH   3   7
BRANCH   1  21
ATOM     20  O   UNL     1       9.496  10.417  19.976  0.00  0.00    +0.000 OA
ATOM     21  C   UNL     1       9.099  10.145  18.850  0.00  0.00    +0.000 C 
ATOM     22  N   UNL     1       9.176  11.023  17.793  0.00  0.00    +0.000 N 
ATOM     23  H   UNL     1       8.686  10.801  16.942  0.00  0.00    +0.000 HD
BRANCH  22  24
ATOM     24  C   UNL     1       9.652  12.375  17.949  0.00  0.00    +0.000 C 
BRANCH  24  25
ATOM     25  C   UNL     1       8.518  13.308  18.269  0.00  0.00    +0.000 A 
ATOM     26  C   UNL     1       8.483  13.977  19.496  0.00  0.00    +0.000 A 
ATOM     27  C   UNL     1       7.421  14.824  19.763  0.00  0.00    +0.000 A 
ATOM     28  N   UNL     1       6.401  15.041  18.905  0.00  0.00    +0.000 NA
ATOM     29  C   UNL     1       6.443  14.373  17.733  0.00  0.00    +0.000 A 
ATOM     30  C   UNL     1       7.461  13.503  17.375  0.00  0.00    +0.000 A 
ENDBRANCH  24  25
ENDBRANCH  22  24
ENDBRANCH   1  21
TORSDOF 5
ENDMDL
MODEL 7
REMARK VINA RESULT:      -8.4      5.359      7.258
REMARK  Name = 
REMARK  5 active torsions:
REMARK  status: ('A' for Active; 'I' for Inactive)
REMARK    1  A    between atoms: C_2  and  C_11
REMARK    2  A    between atoms: N_3  and  C_4
REMARK    3  A    between atoms: C_4  and  C_5
REMARK    4  A    between atoms: C_13  and  C_14
REMARK    5  A    between atoms: C_18  and  C_19
REMARK                            x       y       z     vdW  Elec       q    Type
REMARK                         _______ _______ _______ _____ _____    ______ ____
ROOT
ATOM      1  C   UNL     1       2.054   7.359  18.972  0.00  0.00    +0.000 A 
ATOM      2  C   UNL     1       2.271   6.200  18.253  0.00  0.00    +0.000 A 
ATOM      3  C   UNL     1       2.511   5.145  19.162  0.00  0.00    +0.000 A 
ATOM      4  C   UNL     1       2.349   5.652  20.428  0.00  0.00    +0.000 A 
ATOM      5  N   UNL     1       2.123   7.004  20.306  0.00  0.00    +0.000 N 
ATOM      6  H   UNL     1       2.035   7.666  21.068  0.00  0.00    +0.000 HD
ENDROOT
BRANCH   3   7
ATOM      7  C   UNL     1       2.898   3.758  18.812  0.00  0.00    +0.000 A 
ATOM      8  N   UNL     1       2.245   2.644  19.271  0.00  0.00    +0.000 N 
ATOM      9  N   UNL     1       2.668   1.499  18.713  0.00  0.00    +0.000 NA
ATOM     10  C   UNL     1       3.688   1.890  17.947  0.00  0.00    +0.000 A 
ATOM     11  C   UNL     1       3.917   3.292  17.991  0.00  0.00    +0.000 A 
ATOM     12  H   UNL     1       1.453   2.611  19.903  0.00  0.00    +0.000 HD
BRANCH  11  13
ATOM     13  C   UNL     1       5.015   4.062  17.402  0.00  0.00    +0.000 A 
ATOM     14  C   UNL     1       5.179   4.149  16.009  0.00  0.00    +0.000 A 
ATOM     15  C   UNL     1       6.243   4.846  15.436  0.00  0.00    +0.000 A 
ATOM     16  C   UNL     1       7.111   5.560  16.251  0.00  0.00    +0.000 A 
ATOM     17  C   UNL     1       6.920   5.549  17.631  0.00  0.00    +0.000 A 
ATOM     18 CL   UNL     1       7.955   6.492  18.631  0.00  0.00    +0.000 Cl
ATOM     19  C   UNL     1       5.894   4.794  18.211  0.00  0.00    +0.000 A 
ENDBRANCH  11  13
ENDBRANCH   3   7
BRANCH   1  21
ATOM     20  O   UNL     1       2.281   9.149  17.479  0.00  0.00    +0.000 OA
ATOM     21  C   UNL     1       1.827   8.715  18.532  0.00  0.00    +0.000 C 
ATOM     22  N   UNL     1       1.066   9.474  19.392  0.00  0.00    +0.000 N 
ATOM     23  H   UNL     1       0.866   9.111  20.309  0.00  0.00    +0.000 HD
BRANCH  22  24
ATOM     24  C   UNL     1       0.815  10.874  19.165  0.00  0.00    +0.000 C 
BRANCH  24  25
ATOM     25  C   UNL     1      -0.652  11.128  18.956  0.00  0.00    +0.000 A 
ATOM     26  C   UNL     1      -1.350  10.440  17.958  0.00  0.00    +0.000 A 
ATOM     27  C   UNL     1      -2.698  10.703  17.788  0.00  0.00    +0.000 A 
ATOM     28  N   UNL     1      -3.388  11.597  18.527  0.00  0.00    +0.000 NA
ATOM     29  C   UNL     1      -2.694  12.265  19.473  0.00  0.00    +0.000 A 
ATOM     30  C   UNL     1      -1.343  12.074  19.719  0.00  0.00    +0.000 A 
ENDBRANCH  24  25
ENDBRANCH  22  24
ENDBRANCH   1  21
TORSDOF 5
ENDMDL
MODEL 8
REMARK VINA RESULT:      -8.4      4.641      6.472
REMARK  Name = 
REMARK  5 active torsions:
REMARK  status: ('A' for Active; 'I' for Inactive)
REMARK    1  A    between atoms: C_2  and  C_11
REMARK    2  A    between atoms: N_3  and  C_4
REMARK    3  A    between atoms: C_4  and  C_5
REMARK    4  A    between atoms: C_13  and  C_14
REMARK    5  A    between atoms: C_18  and  C_19
REMARK                            x       y       z     vdW  Elec       q    Type
REMARK                         _______ _______ _______ _____ _____    ______ ____
ROOT
ATOM      1  C   UNL     1       2.841   4.621  18.708  0.00  0.00    +0.000 A 
ATOM      2  C   UNL     1       3.623   5.178  17.715  0.00  0.00    +0.000 A 
ATOM      3  C   UNL     1       4.249   4.136  16.997  0.00  0.00    +0.000 A 
ATOM      4  C   UNL     1       3.773   2.949  17.500  0.00  0.00    +0.000 A 
ATOM      5  N   UNL     1       2.960   3.251  18.569  0.00  0.00    +0.000 N 
ATOM      6  H   UNL     1       2.517   2.584  19.190  0.00  0.00    +0.000 HD
ENDROOT
BRANCH   3   7
ATOM      7  C   UNL     1       5.257   4.294  15.922  0.00  0.00    +0.000 A 
ATOM      8  N   UNL     1       5.169   3.687  14.696  0.00  0.00    +0.000 N 
ATOM      9  N   UNL     1       6.109   4.084  13.826  0.00  0.00    +0.000 NA
ATOM     10  C   UNL     1       6.877   4.897  14.554  0.00  0.00    +0.000 A 
ATOM     11  C   UNL     1       6.426   5.044  15.893  0.00  0.00    +0.000 A 
ATOM     12  H   UNL     1       4.444   3.057  14.373  0.00  0.00    +0.000 HD
BRANCH  11  13
ATOM     13  C   UNL     1       7.075   5.732  17.010  0.00  0.00    +0.000 A 
ATOM     14  C   UNL     1       7.547   5.023  18.129  0.00  0.00    +0.000 A 
ATOM     15  C   UNL     1       8.133   5.671  19.217  0.00  0.00    +0.000 A 
ATOM     16  C   UNL     1       8.351   7.041  19.161  0.00  0.00    +0.000 A 
ATOM     17  C   UNL     1       7.960   7.751  18.028  0.00  0.00    +0.000 A 
ATOM     18 CL   UNL     1       8.296   9.436  17.934  0.00  0.00    +0.000 Cl
ATOM     19  C   UNL     1       7.310   7.112  16.965  0.00  0.00    +0.000 A 
ENDBRANCH  11  13
ENDBRANCH   3   7
BRANCH   1  21
ATOM     20  O   UNL     1       1.213   4.621  20.392  0.00  0.00    +0.000 OA
ATOM     21  C   UNL     1       2.051   5.239  19.747  0.00  0.00    +0.000 C 
ATOM     22  N   UNL     1       2.318   6.575  19.945  0.00  0.00    +0.000 N 
ATOM     23  H   UNL     1       2.895   7.058  19.277  0.00  0.00    +0.000 HD
BRANCH  22  24
ATOM     24  C   UNL     1       1.565   7.380  20.874  0.00  0.00    +0.000 C 
BRANCH  24  25
ATOM     25  C   UNL     1       1.308   8.749  20.309  0.00  0.00    +0.000 A 
ATOM     26  C   UNL     1       0.821   9.770  21.132  0.00  0.00    +0.000 A 
ATOM     27  C   UNL     1       0.589  11.017  20.579  0.00  0.00    +0.000 A 
ATOM     28  N   UNL     1       0.798  11.312  19.278  0.00  0.00    +0.000 NA
ATOM     29  C   UNL     1       1.251  10.310  18.495  0.00  0.00    +0.000 A 
ATOM     30  C   UNL     1       1.512   9.028  18.955  0.00  0.00    +0.000 A 
ENDBRANCH  24  25
ENDBRANCH  22  24
ENDBRANCH   1  21
TORSDOF 5
ENDMDL
MODEL 9
REMARK VINA RESULT:      -8.3      5.449      7.330
REMARK  Name = 
REMARK  5 active torsions:
REMARK  status: ('A' for Active; 'I' for Inactive)
REMARK    1  A    between atoms: C_2  and  C_11
REMARK    2  A    between atoms: N_3  and  C_4
REMARK    3  A    between atoms: C_4  and  C_5
REMARK    4  A    between atoms: C_13  and  C_14
REMARK    5  A    between atoms: C_18  and  C_19
REMARK                            x       y       z     vdW  Elec       q    Type
REMARK                         _______ _______ _______ _____ _____    ______ ____
ROOT
ATOM      1  C   UNL     1       2.070   7.407  18.950  0.00  0.00    +0.000 A 
ATOM      2  C   UNL     1       2.214   6.222  18.255  0.00  0.00    +0.000 A 
ATOM      3  C   UNL     1       2.487   5.188  19.179  0.00  0.00    +0.000 A 
ATOM      4  C   UNL     1       2.417   5.736  20.436  0.00  0.00    +0.000 A 
ATOM      5  N   UNL     1       2.215   7.089  20.287  0.00  0.00    +0.000 N 
ATOM      6  H   UNL     1       2.191   7.776  21.032  0.00  0.00    +0.000 HD
ENDROOT
BRANCH   3   7
ATOM      7  C   UNL     1       2.819   3.783  18.848  0.00  0.00    +0.000 A 
ATOM      8  N   UNL     1       2.090   2.704  19.278  0.00  0.00    +0.000 N 
ATOM      9  N   UNL     1       2.480   1.538  18.741  0.00  0.00    +0.000 NA
ATOM     10  C   UNL     1       3.553   1.875  18.022  0.00  0.00    +0.000 A 
ATOM     11  C   UNL     1       3.850   3.263  18.076  0.00  0.00    +0.000 A 
ATOM     12  H   UNL     1       1.269   2.714  19.872  0.00  0.00    +0.000 HD
BRANCH  11  13
ATOM     13  C   UNL     1       5.012   3.975  17.539  0.00  0.00    +0.000 A 
ATOM     14  C   UNL     1       5.946   4.593  18.388  0.00  0.00    +0.000 A 
ATOM     15  C   UNL     1       7.035   5.307  17.887  0.00  0.00    +0.000 A 
ATOM     16  C   UNL     1       7.268   5.330  16.519  0.00  0.00    +0.000 A 
ATOM     17  C   UNL     1       6.396   4.658  15.665  0.00  0.00    +0.000 A 
ATOM     18 CL   UNL     1       6.729   4.629  13.977  0.00  0.00    +0.000 Cl
ATOM     19  C   UNL     1       5.265   3.999  16.161  0.00  0.00    +0.000 A 
ENDBRANCH  11  13
ENDBRANCH   3   7
BRANCH   1  21
ATOM     20  O   UNL     1       2.340   9.181  17.445  0.00  0.00    +0.000 OA
ATOM     21  C   UNL     1       1.847   8.754  18.483  0.00  0.00    +0.000 C 
ATOM     22  N   UNL     1       1.041   9.514  19.300  0.00  0.00    +0.000 N 
ATOM     23  H   UNL     1       0.805   9.160  20.213  0.00  0.00    +0.000 HD
BRANCH  22  24
ATOM     24  C   UNL     1       0.783  10.909  19.045  0.00  0.00    +0.000 C 
BRANCH  24  25
ATOM     25  C   UNL     1      -0.691  11.162  18.893  0.00  0.00    +0.000 A 
ATOM     26  C   UNL     1      -1.429  10.467  17.930  0.00  0.00    +0.000 A 
ATOM     27  C   UNL     1      -2.783  10.730  17.813  0.00  0.00    +0.000 A 
ATOM     28  N   UNL     1      -3.442  11.630  18.572  0.00  0.00    +0.000 NA
ATOM     29  C   UNL     1      -2.710  12.305  19.483  0.00  0.00    +0.000 A 
ATOM     30  C   UNL     1      -1.350  12.114  19.676  0.00  0.00    +0.000 A 
ENDBRANCH  24  25
ENDBRANCH  22  24
ENDBRANCH   1  21
TORSDOF 5
ENDMDL
