MODEL 1
REMARK VINA RESULT:      -6.6      0.000      0.000
REMARK  Name = 
REMARK  6 active torsions:
REMARK  status: ('A' for Active; 'I' for Inactive)
REMARK    1  A    between atoms: C_1  and  C_2
REMARK    2  A    between atoms: C_2  and  N_3
REMARK    3  A    between atoms: C_5  and  O_6
REMARK    4  A    between atoms: O_6  and  C_7
REMARK    5  A    between atoms: C_7  and  C_8
REMARK    6  A    between atoms: C_11  and  C_12
REMARK                            x       y       z     vdW  Elec       q    Type
REMARK                         _______ _______ _______ _____ _____    ______ ____
ROOT
ATOM      1  C   UNL     1       3.192   7.244  17.429  0.00  0.00    +0.000 C 
ENDROOT
BRANCH   1   2
ATOM      2  C   UNL     1       2.660   6.150  18.326  0.00  0.00    +0.000 A 
ATOM      3  C   UNL     1       2.516   6.372  19.702  0.00  0.00    +0.000 A 
ATOM      4  C   UNL     1       2.006   5.373  20.534  0.00  0.00    +0.000 A 
ATOM      5  C   UNL     1       1.617   4.135  20.005  0.00  0.00    +0.000 A 
ATOM      6  C   UNL     1       1.769   3.910  18.631  0.00  0.00    +0.000 A 
ATOM      7  C   UNL     1       2.281   4.909  17.798  0.00  0.00    +0.000 A 
BRANCH   5   8
ATOM      8  C   UNL     1       1.089   3.050  20.907  0.00  0.00    +0.000 C 
ATOM      9  F   UNL     1       1.375   1.795  20.459  0.00  0.00    +0.000 F 
ATOM     10  F   UNL     1       1.597   3.112  22.170  0.00  0.00    +0.000 F 
ENDBRANCH   5   8
ENDBRANCH   1   2
BRANCH   1  11
ATOM     11  O   UNL     1       4.555   7.496  17.770  0.00  0.00    +0.000 OA
BRANCH  11  14
ATOM     12  N   UNL     1       6.507   5.586  15.562  0.00  0.00    +0.000 N 
ATOM     13  C   UNL     1       5.270   6.067  15.892  0.00  0.00    +0.000 A 
ATOM     14  C   UNL     1       5.460   6.825  17.023  0.00  0.00    +0.000 A 
ATOM     15  C   UNL     1       6.843   6.766  17.275  0.00  0.00    +0.000 A 
ATOM     16  N   UNL     1       7.489   6.011  16.379  0.00  0.00    +0.000 NA
BRANCH  12  18
ATOM     17  C   UNL     1       5.583   4.003  13.918  0.00  0.00    +0.000 C 
ATOM     18  C   UNL     1       6.823   4.689  14.465  0.00  0.00    +0.000 C 
ENDBRANCH  12  18
ENDBRANCH  11  14
ENDBRANCH   1  11
TORSDOF 5
ENDMDL
MODEL 2
REMARK VINA RESULT:      -6.6      1.962      2.307
REMARK  Name = 
REMARK  6 active torsions:
REMARK  status: ('A' for Active; 'I' for Inactive)
REMARK    1  A    between atoms: C_1  and  C_2
REMARK    2  A    between atoms: C_2  and  N_3
REMARK    3  A    between atoms: C_5  and  O_6
REMARK    4  A    between atoms: O_6  and  C_7
REMARK    5  A    between atoms: C_7  and  C_8
REMARK    6  A    between atoms: C_11  and  C_12
REMARK                            x       y       z     vdW  Elec       q    Type
REMARK                         _______ _______ _______ _____ _____    ______ ____
ROOT
ATOM      1  C   UNL     1       6.246   5.182  18.777  0.00  0.00    +0.000 C 
ENDROOT
BRANCH   1   2
ATOM      2  C   UNL     1       4.889   4.710  19.246  0.00  0.00    +0.000 A 
ATOM      3  C   UNL     1       3.867   5.637  19.496  0.00  0.00    +0.000 A 
ATOM      4  C   UNL     1       2.604   5.208  19.909  0.00  0.00    +0.000 A 
ATOM      5  C   UNL     1       2.333   3.842  20.070  0.00  0.00    +0.000 A 
ATOM      6  C   UNL     1       3.356   2.917  19.828  0.00  0.00    +0.000 A 
ATOM      7  C   UNL     1       4.620   3.346  19.415  0.00  0.00    +0.000 A 
BRANCH   5   8
ATOM      8  C   UNL     1       0.976   3.383  20.539  0.00  0.00    +0.000 C 
ATOM      9  F   UNL     1       0.339   2.588  19.634  0.00  0.00    +0.000 F 
ATOM     10  F   UNL     1       1.028   2.659  21.692  0.00  0.00    +0.000 F 
ENDBRANCH   5   8
ENDBRANCH   1   2
BRANCH   1  11
ATOM     11  O   UNL     1       6.797   4.200  17.900  0.00  0.00    +0.000 OA
BRANCH  11  14
ATOM     12  N   UNL     1       6.088   4.249  14.460  0.00  0.00    +0.000 N 
ATOM     13  C   UNL     1       6.146   3.525  15.620  0.00  0.00    +0.000 A 
ATOM     14  C   UNL     1       6.554   4.412  16.587  0.00  0.00    +0.000 A 
ATOM     15  C   UNL     1       6.683   5.645  15.922  0.00  0.00    +0.000 A 
ATOM     16  N   UNL     1       6.394   5.550  14.620  0.00  0.00    +0.000 NA
BRANCH  12  18
ATOM     17  C   UNL     1       6.910   3.894  12.167  0.00  0.00    +0.000 C 
ATOM     18  C   UNL     1       5.754   3.745  13.141  0.00  0.00    +0.000 C 
ENDBRANCH  12  18
ENDBRANCH  11  14
ENDBRANCH   1  11
TORSDOF 5
ENDMDL
MODEL 3
REMARK VINA RESULT:      -6.6      2.618      3.864
REMARK  Name = 
REMARK  6 active torsions:
REMARK  status: ('A' for Active; 'I' for Inactive)
REMARK    1  A    between atoms: C_1  and  C_2
REMARK    2  A    between atoms: C_2  and  N_3
REMARK    3  A    between atoms: C_5  and  O_6
REMARK    4  A    between atoms: O_6  and  C_7
REMARK    5  A    between atoms: C_7  and  C_8
REMARK    6  A    between atoms: C_11  and  C_12
REMARK                            x       y       z     vdW  Elec       q    Type
REMARK                         _______ _______ _______ _____ _____    ______ ____
ROOT
ATOM      1  C   UNL     1       7.203   4.697  16.538  0.00  0.00    +0.000 C 
ENDROOT
BRANCH   1   2
ATOM      2  C   UNL     1       5.976   5.112  17.317  0.00  0.00    +0.000 A 
ATOM      3  C   UNL     1       5.256   6.256  16.945  0.00  0.00    +0.000 A 
ATOM      4  C   UNL     1       4.110   6.634  17.646  0.00  0.00    +0.000 A 
ATOM      5  C   UNL     1       3.651   5.870  18.728  0.00  0.00    +0.000 A 
ATOM      6  C   UNL     1       4.375   4.731  19.105  0.00  0.00    +0.000 A 
ATOM      7  C   UNL     1       5.523   4.352  18.404  0.00  0.00    +0.000 A 
BRANCH   5   8
ATOM      8  C   UNL     1       2.427   6.293  19.499  0.00  0.00    +0.000 C 
ATOM      9  F   UNL     1       2.292   5.640  20.687  0.00  0.00    +0.000 F 
ATOM     10  F   UNL     1       2.423   7.620  19.806  0.00  0.00    +0.000 F 
ENDBRANCH   5   8
ENDBRANCH   1   2
BRANCH   1  11
ATOM     11  O   UNL     1       7.314   5.523  15.380  0.00  0.00    +0.000 OA
BRANCH  11  14
ATOM     12  N   UNL     1       6.289   3.637  12.600  0.00  0.00    +0.000 N 
ATOM     13  C   UNL     1       6.089   3.966  13.913  0.00  0.00    +0.000 A 
ATOM     14  C   UNL     1       7.054   4.898  14.210  0.00  0.00    +0.000 A 
ATOM     15  C   UNL     1       7.761   5.088  13.008  0.00  0.00    +0.000 A 
ATOM     16  N   UNL     1       7.292   4.321  12.018  0.00  0.00    +0.000 NA
BRANCH  12  18
ATOM     17  C   UNL     1       4.215   3.191  11.349  0.00  0.00    +0.000 C 
ATOM     18  C   UNL     1       5.551   2.651  11.833  0.00  0.00    +0.000 C 
ENDBRANCH  12  18
ENDBRANCH  11  14
ENDBRANCH   1  11
TORSDOF 5
ENDMDL
MODEL 4
REMARK VINA RESULT:      -6.5      2.552      3.148
REMARK  Name = 
REMARK  6 active torsions:
REMARK  status: ('A' for Active; 'I' for Inactive)
REMARK    1  A    between atoms: C_1  and  C_2
REMARK    2  A    between atoms: C_2  and  N_3
REMARK    3  A    between atoms: C_5  and  O_6
REMARK    4  A    between atoms: O_6  and  C_7
REMARK    5  A    between atoms: C_7  and  C_8
REMARK    6  A    between atoms: C_11  and  C_12
REMARK                            x       y       z     vdW  Elec       q    Type
REMARK                         _______ _______ _______ _____ _____    ______ ____
ROOT
ATOM      1  C   UNL     1       3.608   4.251  18.300  0.00  0.00    +0.000 C 
ENDROOT
BRANCH   1   2
ATOM      2  C   UNL     1       2.877   5.342  19.048  0.00  0.00    +0.000 A 
ATOM      3  C   UNL     1       2.190   5.047  20.233  0.00  0.00    +0.000 A 
ATOM      4  C   UNL     1       1.529   6.053  20.942  0.00  0.00    +0.000 A 
ATOM      5  C   UNL     1       1.552   7.378  20.485  0.00  0.00    +0.000 A 
ATOM      6  C   UNL     1       2.231   7.671  19.296  0.00  0.00    +0.000 A 
ATOM      7  C   UNL     1       2.892   6.665  18.586  0.00  0.00    +0.000 A 
BRANCH   5   8
ATOM      8  C   UNL     1       0.819   8.458  21.238  0.00  0.00    +0.000 C 
ATOM      9  F   UNL     1      -0.430   8.081  21.631  0.00  0.00    +0.000 F 
ATOM     10  F   UNL     1       1.461   8.846  22.376  0.00  0.00    +0.000 F 
ENDBRANCH   5   8
ENDBRANCH   1   2
BRANCH   1  11
ATOM     11  O   UNL     1       4.995   4.319  18.625  0.00  0.00    +0.000 OA
BRANCH  11  14
ATOM     12  N   UNL     1       6.718   4.677  15.585  0.00  0.00    +0.000 N 
ATOM     13  C   UNL     1       5.515   4.587  16.229  0.00  0.00    +0.000 A 
ATOM     14  C   UNL     1       5.820   4.468  17.564  0.00  0.00    +0.000 A 
ATOM     15  C   UNL     1       7.225   4.531  17.625  0.00  0.00    +0.000 A 
ATOM     16  N   UNL     1       7.778   4.663  16.415  0.00  0.00    +0.000 NA
BRANCH  12  18
ATOM     17  C   UNL     1       6.058   3.783  13.388  0.00  0.00    +0.000 C 
ATOM     18  C   UNL     1       6.927   4.766  14.152  0.00  0.00    +0.000 C 
ENDBRANCH  12  18
ENDBRANCH  11  14
ENDBRANCH   1  11
TORSDOF 5
ENDMDL
MODEL 5
REMARK VINA RESULT:      -6.4      4.098      6.635
REMARK  Name = 
REMARK  6 active torsions:
REMARK  status: ('A' for Active; 'I' for Inactive)
REMARK    1  A    between atoms: C_1  and  C_2
REMARK    2  A    between atoms: C_2  and  N_3
REMARK    3  A    between atoms: C_5  and  O_6
REMARK    4  A    between atoms: O_6  and  C_7
REMARK    5  A    between atoms: C_7  and  C_8
REMARK    6  A    between atoms: C_11  and  C_12
REMARK                            x       y       z     vdW  Elec       q    Type
REMARK                         _______ _______ _______ _____ _____    ______ ____
ROOT
ATOM      1  C   UNL     1       5.134   6.034  18.225  0.00  0.00    +0.000 C 
ENDROOT
BRANCH   1   2
ATOM      2  C   UNL     1       5.413   5.423  16.872  0.00  0.00    +0.000 A 
ATOM      3  C   UNL     1       5.816   4.085  16.770  0.00  0.00    +0.000 A 
ATOM      4  C   UNL     1       6.056   3.507  15.522  0.00  0.00    +0.000 A 
ATOM      5  C   UNL     1       5.886   4.252  14.347  0.00  0.00    +0.000 A 
ATOM      6  C   UNL     1       5.491   5.592  14.448  0.00  0.00    +0.000 A 
ATOM      7  C   UNL     1       5.251   6.171  15.697  0.00  0.00    +0.000 A 
BRANCH   5   8
ATOM      8  C   UNL     1       6.168   3.634  13.002  0.00  0.00    +0.000 C 
ATOM      9  F   UNL     1       5.060   3.540  12.214  0.00  0.00    +0.000 F 
ATOM     10  F   UNL     1       7.078   4.337  12.272  0.00  0.00    +0.000 F 
ENDBRANCH   5   8
ENDBRANCH   1   2
BRANCH   1  11
ATOM     11  O   UNL     1       3.767   6.441  18.274  0.00  0.00    +0.000 OA
BRANCH  11  14
ATOM     12  N   UNL     1       1.711   4.023  19.777  0.00  0.00    +0.000 N 
ATOM     13  C   UNL     1       2.635   5.018  19.939  0.00  0.00    +0.000 A 
ATOM     14  C   UNL     1       2.903   5.481  18.673  0.00  0.00    +0.000 A 
ATOM     15  C   UNL     1       2.071   4.729  17.824  0.00  0.00    +0.000 A 
ATOM     16  N   UNL     1       1.335   3.837  18.497  0.00  0.00    +0.000 NA
BRANCH  12  18
ATOM     17  C   UNL     1       2.212   2.650  21.758  0.00  0.00    +0.000 C 
ATOM     18  C   UNL     1       1.145   3.188  20.820  0.00  0.00    +0.000 C 
ENDBRANCH  12  18
ENDBRANCH  11  14
ENDBRANCH   1  11
TORSDOF 5
ENDMDL
MODEL 6
REMARK VINA RESULT:      -6.4      4.223      6.712
REMARK  Name = 
REMARK  6 active torsions:
REMARK  status: ('A' for Active; 'I' for Inactive)
REMARK    1  A    between atoms: C_1  and  C_2
REMARK    2  A    between atoms: C_2  and  N_3
REMARK    3  A    between atoms: C_5  and  O_6
REMARK    4  A    between atoms: O_6  and  C_7
REMARK    5  A    between atoms: C_7  and  C_8
REMARK    6  A    between atoms: C_11  and  C_12
REMARK                            x       y       z     vdW  Elec       q    Type
REMARK                         _______ _______ _______ _____ _____    ______ ____
ROOT
ATOM      1  C   UNL     1       6.057   6.107  17.806  0.00  0.00    +0.000 C 
ENDROOT
BRANCH   1   2
ATOM      2  C   UNL     1       6.092   5.445  16.448  0.00  0.00    +0.000 A 
ATOM      3  C   UNL     1       7.308   5.293  15.767  0.00  0.00    +0.000 A 
ATOM      4  C   UNL     1       7.352   4.665  14.521  0.00  0.00    +0.000 A 
ATOM      5  C   UNL     1       6.182   4.163  13.934  0.00  0.00    +0.000 A 
ATOM      6  C   UNL     1       4.965   4.322  14.610  0.00  0.00    +0.000 A 
ATOM      7  C   UNL     1       4.921   4.952  15.857  0.00  0.00    +0.000 A 
BRANCH   5   8
ATOM      8  C   UNL     1       6.227   3.507  12.579  0.00  0.00    +0.000 C 
ATOM      9  F   UNL     1       5.014   3.475  11.959  0.00  0.00    +0.000 F 
ATOM     10  F   UNL     1       7.067   4.135  11.709  0.00  0.00    +0.000 F 
ENDBRANCH   5   8
ENDBRANCH   1   2
BRANCH   1  11
ATOM     11  O   UNL     1       6.087   5.095  18.812  0.00  0.00    +0.000 OA
BRANCH  11  14
ATOM     12  N   UNL     1       3.099   3.568  19.851  0.00  0.00    +0.000 N 
ATOM     13  C   UNL     1       4.396   3.415  19.443  0.00  0.00    +0.000 A 
ATOM     14  C   UNL     1       4.872   4.689  19.245  0.00  0.00    +0.000 A 
ATOM     15  C   UNL     1       3.804   5.537  19.591  0.00  0.00    +0.000 A 
ATOM     16  N   UNL     1       2.718   4.854  19.968  0.00  0.00    +0.000 NA
BRANCH  12  18
ATOM     17  C   UNL     1       1.416   2.744  21.447  0.00  0.00    +0.000 C 
ATOM     18  C   UNL     1       2.152   2.508  20.139  0.00  0.00    +0.000 C 
ENDBRANCH  12  18
ENDBRANCH  11  14
ENDBRANCH   1  11
TORSDOF 5
ENDMDL
MODEL 7
REMARK VINA RESULT:      -6.4      4.325      6.910
REMARK  Name = 
REMARK  6 active torsions:
REMARK  status: ('A' for Active; 'I' for Inactive)
REMARK    1  A    between atoms: C_1  and  C_2
REMARK    2  A    between atoms: C_2  and  N_3
REMARK    3  A    between atoms: C_5  and  O_6
REMARK    4  A    between atoms: O_6  and  C_7
REMARK    5  A    between atoms: C_7  and  C_8
REMARK    6  A    between atoms: C_11  and  C_12
REMARK                            x       y       z     vdW  Elec       q    Type
REMARK                         _______ _______ _______ _____ _____    ______ ____
ROOT
ATOM      1  C   UNL     1       6.269   5.427  17.777  0.00  0.00    +0.000 C 
ENDROOT
BRANCH   1   2
ATOM      2  C   UNL     1       6.233   4.973  16.336  0.00  0.00    +0.000 A 
ATOM      3  C   UNL     1       7.347   5.163  15.508  0.00  0.00    +0.000 A 
ATOM      4  C   UNL     1       7.329   4.728  14.181  0.00  0.00    +0.000 A 
ATOM      5  C   UNL     1       6.201   4.082  13.658  0.00  0.00    +0.000 A 
ATOM      6  C   UNL     1       5.083   3.900  14.483  0.00  0.00    +0.000 A 
ATOM      7  C   UNL     1       5.101   4.336  15.811  0.00  0.00    +0.000 A 
BRANCH   5   8
ATOM      8  C   UNL     1       6.174   3.635  12.219  0.00  0.00    +0.000 C 
ATOM      9  F   UNL     1       7.389   3.725  11.609  0.00  0.00    +0.000 F 
ATOM     10  F   UNL     1       5.785   2.337  12.071  0.00  0.00    +0.000 F 
ENDBRANCH   5   8
ENDBRANCH   1   2
BRANCH   1  11
ATOM     11  O   UNL     1       6.236   4.278  18.623  0.00  0.00    +0.000 OA
BRANCH  11  14
ATOM     12  N   UNL     1       3.068   4.174  20.135  0.00  0.00    +0.000 N 
ATOM     13  C   UNL     1       4.023   4.920  19.500  0.00  0.00    +0.000 A 
ATOM     14  C   UNL     1       5.044   4.045  19.217  0.00  0.00    +0.000 A 
ATOM     15  C   UNL     1       4.598   2.796  19.687  0.00  0.00    +0.000 A 
ATOM     16  N   UNL     1       3.385   2.870  20.246  0.00  0.00    +0.000 NA
BRANCH  12  18
ATOM     17  C   UNL     1       0.659   3.720  20.364  0.00  0.00    +0.000 C 
ATOM     18  C   UNL     1       1.812   4.657  20.679  0.00  0.00    +0.000 C 
ENDBRANCH  12  18
ENDBRANCH  11  14
ENDBRANCH   1  11
TORSDOF 5
ENDMDL
MODEL 8
REMARK VINA RESULT:      -6.4      4.239      6.853
REMARK  Name = 
REMARK  6 active torsions:
REMARK  status: ('A' for Active; 'I' for Inactive)
REMARK    1  A    between atoms: C_1  and  C_2
REMARK    2  A    between atoms: C_2  and  N_3
REMARK    3  A    between atoms: C_5  and  O_6
REMARK    4  A    between atoms: O_6  and  C_7
REMARK    5  A    between atoms: C_7  and  C_8
REMARK    6  A    between atoms: C_11  and  C_12
REMARK                            x       y       z     vdW  Elec       q    Type
REMARK                         _______ _______ _______ _____ _____    ______ ____
ROOT
ATOM      1  C   UNL     1       6.354   5.330  17.871  0.00  0.00    +0.000 C 
ENDROOT
BRANCH   1   2
ATOM      2  C   UNL     1       6.286   4.890  16.427  0.00  0.00    +0.000 A 
ATOM      3  C   UNL     1       5.127   4.279  15.928  0.00  0.00    +0.000 A 
ATOM      4  C   UNL     1       5.048   3.888  14.590  0.00  0.00    +0.000 A 
ATOM      5  C   UNL     1       6.123   4.113  13.718  0.00  0.00    +0.000 A 
ATOM      6  C   UNL     1       7.284   4.716  14.218  0.00  0.00    +0.000 A 
ATOM      7  C   UNL     1       7.364   5.106  15.557  0.00  0.00    +0.000 A 
BRANCH   5   8
ATOM      8  C   UNL     1       6.045   3.669  12.280  0.00  0.00    +0.000 C 
ATOM      9  F   UNL     1       7.071   2.848  11.918  0.00  0.00    +0.000 F 
ATOM     10  F   UNL     1       4.905   2.979  11.996  0.00  0.00    +0.000 F 
ENDBRANCH   5   8
ENDBRANCH   1   2
BRANCH   1  11
ATOM     11  O   UNL     1       6.006   4.226  18.706  0.00  0.00    +0.000 OA
BRANCH  11  14
ATOM     12  N   UNL     1       2.743   3.807  19.936  0.00  0.00    +0.000 N 
ATOM     13  C   UNL     1       3.909   3.221  19.526  0.00  0.00    +0.000 A 
ATOM     14  C   UNL     1       4.746   4.260  19.195  0.00  0.00    +0.000 A 
ATOM     15  C   UNL     1       4.009   5.427  19.470  0.00  0.00    +0.000 A 
ATOM     16  N   UNL     1       2.783   5.153  19.928  0.00  0.00    +0.000 NA
BRANCH  12  18
ATOM     17  C   UNL     1       1.625   2.591  21.761  0.00  0.00    +0.000 C 
ATOM     18  C   UNL     1       1.528   3.126  20.343  0.00  0.00    +0.000 C 
ENDBRANCH  12  18
ENDBRANCH  11  14
ENDBRANCH   1  11
TORSDOF 5
ENDMDL
MODEL 9
REMARK VINA RESULT:      -6.3      1.059      1.454
REMARK  Name = 
REMARK  6 active torsions:
REMARK  status: ('A' for Active; 'I' for Inactive)
REMARK    1  A    between atoms: C_1  and  C_2
REMARK    2  A    between atoms: C_2  and  N_3
REMARK    3  A    between atoms: C_5  and  O_6
REMARK    4  A    between atoms: O_6  and  C_7
REMARK    5  A    between atoms: C_7  and  C_8
REMARK    6  A    between atoms: C_11  and  C_12
REMARK                            x       y       z     vdW  Elec       q    Type
REMARK                         _______ _______ _______ _____ _____    ______ ____
ROOT
ATOM      1  C   UNL     1       3.848   6.899  17.456  0.00  0.00    +0.000 C 
ENDROOT
BRANCH   1   2
ATOM      2  C   UNL     1       3.334   5.976  18.537  0.00  0.00    +0.000 A 
ATOM      3  C   UNL     1       3.686   4.619  18.533  0.00  0.00    +0.000 A 
ATOM      4  C   UNL     1       3.232   3.763  19.539  0.00  0.00    +0.000 A 
ATOM      5  C   UNL     1       2.426   4.249  20.577  0.00  0.00    +0.000 A 
ATOM      6  C   UNL     1       2.067   5.603  20.577  0.00  0.00    +0.000 A 
ATOM      7  C   UNL     1       2.520   6.460  19.570  0.00  0.00    +0.000 A 
BRANCH   5   8
ATOM      8  C   UNL     1       1.917   3.320  21.649  0.00  0.00    +0.000 C 
ATOM      9  F   UNL     1       0.763   2.685  21.301  0.00  0.00    +0.000 F 
ATOM     10  F   UNL     1       2.801   2.330  21.960  0.00  0.00    +0.000 F 
ENDBRANCH   5   8
ENDBRANCH   1   2
BRANCH   1  11
ATOM     11  O   UNL     1       5.268   6.993  17.568  0.00  0.00    +0.000 OA
BRANCH  11  14
ATOM     12  N   UNL     1       6.702   5.094  14.985  0.00  0.00    +0.000 N 
ATOM     13  C   UNL     1       5.737   5.985  15.367  0.00  0.00    +0.000 A 
ATOM     14  C   UNL     1       5.958   6.215  16.704  0.00  0.00    +0.000 A 
ATOM     15  C   UNL     1       7.092   5.447  17.026  0.00  0.00    +0.000 A 
ATOM     16  N   UNL     1       7.554   4.762  15.974  0.00  0.00    +0.000 NA
BRANCH  12  18
ATOM     17  C   UNL     1       5.678   3.625  13.296  0.00  0.00    +0.000 C 
ATOM     18  C   UNL     1       6.861   4.502  13.670  0.00  0.00    +0.000 C 
ENDBRANCH  12  18
ENDBRANCH  11  14
ENDBRANCH   1  11
TORSDOF 5
ENDMDL
