MODEL 1
REMARK VINA RESULT:      -8.1      0.000      0.000
REMARK  Name = 
REMARK  7 active torsions:
REMARK  status: ('A' for Active; 'I' for Inactive)
REMARK    1  A    between atoms: N_1  and  C_2
REMARK    2  A    between atoms: C_5  and  C_6
REMARK    3  A    between atoms: C_12  and  N_13
REMARK    4  A    between atoms: C_14  and  C_16
REMARK    5  A    between atoms: C_19  and  C_20
REMARK    6  A    between atoms: C_20  and  N_21
REMARK    7  A    between atoms: C_22  and  C_24
REMARK                            x       y       z     vdW  Elec       q    Type
REMARK                         _______ _______ _______ _____ _____    ______ ____
ROOT
ATOM      1  N   UNL     1       9.495  10.009  19.234  0.00  0.00    +0.000 N 
ATOM      2  C   UNL     1       8.515   9.818  18.271  0.00  0.00    +0.000 C 
ATOM      3  O   UNL     1       8.059  10.662  17.508  0.00  0.00    +0.000 OA
ATOM      4  H   UNL     1       9.949   9.185  19.597  0.00  0.00    +0.000 HD
ENDROOT
BRANCH   1  10
ATOM      5  C   UNL     1      11.184  11.755  18.915  0.00  0.00    +0.000 A 
ATOM      6  C   UNL     1      11.681  13.018  19.266  0.00  0.00    +0.000 A 
ATOM      7  C   UNL     1      11.154  13.736  20.347  0.00  0.00    +0.000 A 
ATOM      8  C   UNL     1      10.095  13.219  21.091  0.00  0.00    +0.000 A 
ATOM      9  C   UNL     1       9.563  11.976  20.713  0.00  0.00    +0.000 A 
ATOM     10  C   UNL     1      10.068  11.251  19.623  0.00  0.00    +0.000 A 
BRANCH   8  11
ATOM     11  C   UNL     1       9.501  13.947  22.228  0.00  0.00    +0.000 A 
ATOM     12  C   UNL     1       9.713  15.262  22.615  0.00  0.00    +0.000 A 
ATOM     13  C   UNL     1       8.942  15.639  23.753  0.00  0.00    +0.000 A 
ATOM     14  C   UNL     1       8.161  14.603  24.206  0.00  0.00    +0.000 A 
ATOM     15  S   UNL     1       8.353  13.193  23.261  0.00  0.00    +0.000 S 
ENDBRANCH   8  11
BRANCH   5  16
ATOM     16  N   UNL     1      11.668  11.168  17.727  0.00  0.00    +0.000 N 
ATOM     17  H   UNL     1      12.638  10.870  17.799  0.00  0.00    +0.000 HD
ATOM     18  H   UNL     1      11.092  10.449  17.319  0.00  0.00    +0.000 HD
ENDBRANCH   5  16
ENDBRANCH   1  10
BRANCH   2  19
ATOM     19  C   UNL     1       8.028   8.416  18.126  0.00  0.00    +0.000 A 
ATOM     20  C   UNL     1       7.159   8.048  17.095  0.00  0.00    +0.000 A 
ATOM     21  C   UNL     1       6.700   6.730  17.006  0.00  0.00    +0.000 A 
ATOM     22  C   UNL     1       7.100   5.766  17.945  0.00  0.00    +0.000 A 
ATOM     23  C   UNL     1       8.021   6.127  18.936  0.00  0.00    +0.000 A 
ATOM     24  C   UNL     1       8.484   7.445  19.026  0.00  0.00    +0.000 A 
BRANCH  22  25
ATOM     25  C   UNL     1       6.530   4.373  17.885  0.00  0.00    +0.000 C 
BRANCH  25  26
ATOM     26  N   UNL     1       5.095   4.347  17.991  0.00  0.00    +0.000 N 
ATOM     27  C   UNL     1       4.475   3.647  19.000  0.00  0.00    +0.000 C 
ATOM     28  O   UNL     1       5.078   2.915  19.783  0.00  0.00    +0.000 OA
ATOM     29  H   UNL     1       4.515   5.012  17.486  0.00  0.00    +0.000 HD
BRANCH  27  30
ATOM     30  C   UNL     1       2.950   3.805  19.038  0.00  0.00    +0.000 C 
ATOM     31  C   UNL     1       2.395   3.649  20.439  0.00  0.00    +0.000 C 
ATOM     32  C   UNL     1       0.943   3.291  20.190  0.00  0.00    +0.000 C 
ATOM     33  C   UNL     1       0.945   2.555  18.859  0.00  0.00    +0.000 C 
ATOM     34  N   UNL     1       2.287   2.707  18.288  0.00  0.00    +0.000 NA
ATOM     35  H   UNL     1       2.226   2.964  17.302  0.00  0.00    +0.000 HD
ENDBRANCH  27  30
ENDBRANCH  25  26
ENDBRANCH  22  25
ENDBRANCH   2  19
TORSDOF 7
ENDMDL
MODEL 2
REMARK VINA RESULT:      -8.1      6.692      9.988
REMARK  Name = 
REMARK  7 active torsions:
REMARK  status: ('A' for Active; 'I' for Inactive)
REMARK    1  A    between atoms: N_1  and  C_2
REMARK    2  A    between atoms: C_5  and  C_6
REMARK    3  A    between atoms: C_12  and  N_13
REMARK    4  A    between atoms: C_14  and  C_16
REMARK    5  A    between atoms: C_19  and  C_20
REMARK    6  A    between atoms: C_20  and  N_21
REMARK    7  A    between atoms: C_22  and  C_24
REMARK                            x       y       z     vdW  Elec       q    Type
REMARK                         _______ _______ _______ _____ _____    ______ ____
ROOT
ATOM      1  N   UNL     1       4.580   6.714  17.915  0.00  0.00    +0.000 N 
ATOM      2  C   UNL     1       3.533   6.315  18.733  0.00  0.00    +0.000 C 
ATOM      3  O   UNL     1       3.368   5.206  19.228  0.00  0.00    +0.000 OA
ATOM      4  H   UNL     1       4.721   7.706  17.801  0.00  0.00    +0.000 HD
ENDROOT
BRANCH   1  10
ATOM      5  C   UNL     1       6.634   5.414  18.219  0.00  0.00    +0.000 A 
ATOM      6  C   UNL     1       7.581   4.529  17.685  0.00  0.00    +0.000 A 
ATOM      7  C   UNL     1       7.567   4.176  16.329  0.00  0.00    +0.000 A 
ATOM      8  C   UNL     1       6.587   4.680  15.476  0.00  0.00    +0.000 A 
ATOM      9  C   UNL     1       5.609   5.528  16.018  0.00  0.00    +0.000 A 
ATOM     10  C   UNL     1       5.598   5.880  17.377  0.00  0.00    +0.000 A 
BRANCH   8  11
ATOM     11  C   UNL     1       6.527   4.324  14.046  0.00  0.00    +0.000 A 
ATOM     12  C   UNL     1       5.583   3.549  13.389  0.00  0.00    +0.000 A 
ATOM     13  C   UNL     1       5.829   3.439  11.990  0.00  0.00    +0.000 A 
ATOM     14  C   UNL     1       6.955   4.131  11.613  0.00  0.00    +0.000 A 
ATOM     15  S   UNL     1       7.701   4.912  12.937  0.00  0.00    +0.000 S 
ENDBRANCH   8  11
BRANCH   5  16
ATOM     16  N   UNL     1       6.628   5.599  19.618  0.00  0.00    +0.000 N 
ATOM     17  H   UNL     1       5.751   5.323  20.050  0.00  0.00    +0.000 HD
ATOM     18  H   UNL     1       7.419   5.225  20.119  0.00  0.00    +0.000 HD
ENDBRANCH   5  16
ENDBRANCH   1  10
BRANCH   2  19
ATOM     19  C   UNL     1       2.553   7.383  19.080  0.00  0.00    +0.000 A 
ATOM     20  C   UNL     1       2.187   8.367  18.156  0.00  0.00    +0.000 A 
ATOM     21  C   UNL     1       1.286   9.370  18.524  0.00  0.00    +0.000 A 
ATOM     22  C   UNL     1       0.742   9.407  19.818  0.00  0.00    +0.000 A 
ATOM     23  C   UNL     1       1.063   8.382  20.717  0.00  0.00    +0.000 A 
ATOM     24  C   UNL     1       1.962   7.375  20.349  0.00  0.00    +0.000 A 
BRANCH  22  25
ATOM     25  C   UNL     1      -0.161  10.542  20.226  0.00  0.00    +0.000 C 
BRANCH  25  26
ATOM     26  N   UNL     1      -1.320  10.668  19.383  0.00  0.00    +0.000 N 
ATOM     27  C   UNL     1      -1.426  11.699  18.478  0.00  0.00    +0.000 C 
ATOM     28  O   UNL     1      -0.620  12.626  18.415  0.00  0.00    +0.000 OA
ATOM     29  H   UNL     1      -1.973   9.897  19.261  0.00  0.00    +0.000 HD
BRANCH  27  30
ATOM     30  C   UNL     1      -2.670  11.634  17.584  0.00  0.00    +0.000 C 
ATOM     31  C   UNL     1      -3.399  10.313  17.719  0.00  0.00    +0.000 C 
ATOM     32  C   UNL     1      -4.197  10.233  16.432  0.00  0.00    +0.000 C 
ATOM     33  C   UNL     1      -3.367  10.997  15.411  0.00  0.00    +0.000 C 
ATOM     34  N   UNL     1      -2.290  11.664  16.148  0.00  0.00    +0.000 NA
ATOM     35  H   UNL     1      -2.201  12.635  15.846  0.00  0.00    +0.000 HD
ENDBRANCH  27  30
ENDBRANCH  25  26
ENDBRANCH  22  25
ENDBRANCH   2  19
TORSDOF 7
ENDMDL
MODEL 3
REMARK VINA RESULT:      -8.1      0.918      1.067
REMARK  Name = 
REMARK  7 active torsions:
REMARK  status: ('A' for Active; 'I' for Inactive)
REMARK    1  A    between atoms: N_1  and  C_2
REMARK    2  A    between atoms: C_5  and  C_6
REMARK    3  A    between atoms: C_12  and  N_13
REMARK    4  A    between atoms: C_14  and  C_16
REMARK    5  A    between atoms: C_19  and  C_20
REMARK    6  A    between atoms: C_20  and  N_21
REMARK    7  A    between atoms: C_22  and  C_24
REMARK                            x       y       z     vdW  Elec       q    Type
REMARK                         _______ _______ _______ _____ _____    ______ ____
ROOT
ATOM      1  N   UNL     1       9.585  10.074  19.189  0.00  0.00    +0.000 N 
ATOM      2  C   UNL     1       8.560   9.857  18.279  0.00  0.00    +0.000 C 
ATOM      3  O   UNL     1       8.032  10.692  17.554  0.00  0.00    +0.000 OA
ATOM      4  H   UNL     1      10.086   9.263  19.517  0.00  0.00    +0.000 HD
ENDROOT
BRANCH   1  10
ATOM      5  C   UNL     1      11.218  11.862  18.824  0.00  0.00    +0.000 A 
ATOM      6  C   UNL     1      11.690  13.140  19.159  0.00  0.00    +0.000 A 
ATOM      7  C   UNL     1      11.171  13.847  20.252  0.00  0.00    +0.000 A 
ATOM      8  C   UNL     1      10.144  13.304  21.023  0.00  0.00    +0.000 A 
ATOM      9  C   UNL     1       9.636  12.047  20.662  0.00  0.00    +0.000 A 
ATOM     10  C   UNL     1      10.134  11.332  19.561  0.00  0.00    +0.000 A 
BRANCH   8  11
ATOM     11  C   UNL     1       9.560  14.020  22.173  0.00  0.00    +0.000 A 
ATOM     12  C   UNL     1       9.838  15.302  22.622  0.00  0.00    +0.000 A 
ATOM     13  C   UNL     1       9.056  15.678  23.752  0.00  0.00    +0.000 A 
ATOM     14  C   UNL     1       8.201  14.674  24.138  0.00  0.00    +0.000 A 
ATOM     15  S   UNL     1       8.337  13.296  23.139  0.00  0.00    +0.000 S 
ENDBRANCH   8  11
BRANCH   5  16
ATOM     16  N   UNL     1      11.688  11.285  17.626  0.00  0.00    +0.000 N 
ATOM     17  H   UNL     1      11.368  11.778  16.796  0.00  0.00    +0.000 HD
ATOM     18  H   UNL     1      12.677  11.096  17.582  0.00  0.00    +0.000 HD
ENDBRANCH   5  16
ENDBRANCH   1  10
BRANCH   2  19
ATOM     19  C   UNL     1       8.115   8.441  18.145  0.00  0.00    +0.000 A 
ATOM     20  C   UNL     1       7.329   8.021  17.068  0.00  0.00    +0.000 A 
ATOM     21  C   UNL     1       6.907   6.690  16.989  0.00  0.00    +0.000 A 
ATOM     22  C   UNL     1       7.261   5.764  17.982  0.00  0.00    +0.000 A 
ATOM     23  C   UNL     1       8.102   6.177  19.024  0.00  0.00    +0.000 A 
ATOM     24  C   UNL     1       8.528   7.507  19.104  0.00  0.00    +0.000 A 
BRANCH  22  25
ATOM     25  C   UNL     1       6.728   4.356  17.927  0.00  0.00    +0.000 C 
BRANCH  25  26
ATOM     26  N   UNL     1       5.618   4.140  18.816  0.00  0.00    +0.000 N 
ATOM     27  C   UNL     1       4.337   4.017  18.327  0.00  0.00    +0.000 C 
ATOM     28  O   UNL     1       4.045   4.203  17.147  0.00  0.00    +0.000 OA
ATOM     29  H   UNL     1       5.759   3.844  19.779  0.00  0.00    +0.000 HD
BRANCH  27  30
ATOM     30  C   UNL     1       3.282   3.686  19.390  0.00  0.00    +0.000 C 
ATOM     31  C   UNL     1       1.895   3.559  18.795  0.00  0.00    +0.000 C 
ATOM     32  C   UNL     1       0.991   3.786  19.990  0.00  0.00    +0.000 C 
ATOM     33  C   UNL     1       1.777   4.716  20.902  0.00  0.00    +0.000 C 
ATOM     34  N   UNL     1       3.134   4.806  20.355  0.00  0.00    +0.000 NA
ATOM     35  H   UNL     1       3.825   4.701  21.098  0.00  0.00    +0.000 HD
ENDBRANCH  27  30
ENDBRANCH  25  26
ENDBRANCH  22  25
ENDBRANCH   2  19
TORSDOF 7
ENDMDL
MODEL 4
REMARK VINA RESULT:      -8.1      1.092      1.569
REMARK  Name = 
REMARK  7 active torsions:
REMARK  status: ('A' for Active; 'I' for Inactive)
REMARK    1  A    between atoms: N_1  and  C_2
REMARK    2  A    between atoms: C_5  and  C_6
REMARK    3  A    between atoms: C_12  and  N_13
REMARK    4  A    between atoms: C_14  and  C_16
REMARK    5  A    between atoms: C_19  and  C_20
REMARK    6  A    between atoms: C_20  and  N_21
REMARK    7  A    between atoms: C_22  and  C_24
REMARK                            x       y       z     vdW  Elec       q    Type
REMARK                         _______ _______ _______ _____ _____    ______ ____
ROOT
ATOM      1  N   UNL     1       9.313   9.806  19.350  0.00  0.00    +0.000 N 
ATOM      2  C   UNL     1       8.461   9.573  18.280  0.00  0.00    +0.000 C 
ATOM      3  O   UNL     1       8.114  10.382  17.428  0.00  0.00    +0.000 OA
ATOM      4  H   UNL     1       9.708   8.998  19.806  0.00  0.00    +0.000 HD
ENDROOT
BRANCH   1  10
ATOM      5  C   UNL     1      10.902  11.638  19.010  0.00  0.00    +0.000 A 
ATOM      6  C   UNL     1      11.354  12.914  19.376  0.00  0.00    +0.000 A 
ATOM      7  C   UNL     1      10.844  13.575  20.501  0.00  0.00    +0.000 A 
ATOM      8  C   UNL     1       9.845  12.987  21.275  0.00  0.00    +0.000 A 
ATOM      9  C   UNL     1       9.355  11.731  20.884  0.00  0.00    +0.000 A 
ATOM     10  C   UNL     1       9.844  11.062  19.751  0.00  0.00    +0.000 A 
BRANCH   8  11
ATOM     11  C   UNL     1       9.270  13.654  22.459  0.00  0.00    +0.000 A 
ATOM     12  C   UNL     1       8.530  13.094  23.489  0.00  0.00    +0.000 A 
ATOM     13  C   UNL     1       8.161  14.041  24.488  0.00  0.00    +0.000 A 
ATOM     14  C   UNL     1       8.628  15.300  24.195  0.00  0.00    +0.000 A 
ATOM     15  S   UNL     1       9.509  15.333  22.733  0.00  0.00    +0.000 S 
ENDBRANCH   8  11
BRANCH   5  16
ATOM     16  N   UNL     1      11.358  11.110  17.785  0.00  0.00    +0.000 N 
ATOM     17  H   UNL     1      10.641  11.102  17.064  0.00  0.00    +0.000 HD
ATOM     18  H   UNL     1      12.227  11.484  17.435  0.00  0.00    +0.000 HD
ENDBRANCH   5  16
ENDBRANCH   1  10
BRANCH   2  19
ATOM     19  C   UNL     1       7.982   8.168  18.140  0.00  0.00    +0.000 A 
ATOM     20  C   UNL     1       8.362   7.174  19.047  0.00  0.00    +0.000 A 
ATOM     21  C   UNL     1       7.917   5.861  18.869  0.00  0.00    +0.000 A 
ATOM     22  C   UNL     1       7.090   5.522  17.786  0.00  0.00    +0.000 A 
ATOM     23  C   UNL     1       6.662   6.536  16.919  0.00  0.00    +0.000 A 
ATOM     24  C   UNL     1       7.104   7.852  17.096  0.00  0.00    +0.000 A 
BRANCH  22  25
ATOM     25  C   UNL     1       6.689   4.088  17.561  0.00  0.00    +0.000 C 
BRANCH  25  26
ATOM     26  N   UNL     1       5.546   3.695  18.342  0.00  0.00    +0.000 N 
ATOM     27  C   UNL     1       4.292   3.639  17.777  0.00  0.00    +0.000 C 
ATOM     28  O   UNL     1       4.048   4.027  16.636  0.00  0.00    +0.000 OA
ATOM     29  H   UNL     1       5.652   3.234  19.242  0.00  0.00    +0.000 HD
BRANCH  27  30
ATOM     30  C   UNL     1       3.200   3.102  18.711  0.00  0.00    +0.000 C 
ATOM     31  C   UNL     1       1.986   4.008  18.747  0.00  0.00    +0.000 C 
ATOM     32  C   UNL     1       1.323   3.634  20.058  0.00  0.00    +0.000 C 
ATOM     33  C   UNL     1       2.466   3.196  20.962  0.00  0.00    +0.000 C 
ATOM     34  N   UNL     1       3.664   3.104  20.122  0.00  0.00    +0.000 NA
ATOM     35  H   UNL     1       4.165   2.235  20.311  0.00  0.00    +0.000 HD
ENDBRANCH  27  30
ENDBRANCH  25  26
ENDBRANCH  22  25
ENDBRANCH   2  19
TORSDOF 7
ENDMDL
MODEL 5
REMARK VINA RESULT:      -8.1      7.598     11.118
REMARK  Name = 
REMARK  7 active torsions:
REMARK  status: ('A' for Active; 'I' for Inactive)
REMARK    1  A    between atoms: N_1  and  C_2
REMARK    2  A    between atoms: C_5  and  C_6
REMARK    3  A    between atoms: C_12  and  N_13
REMARK    4  A    between atoms: C_14  and  C_16
REMARK    5  A    between atoms: C_19  and  C_20
REMARK    6  A    between atoms: C_20  and  N_21
REMARK    7  A    between atoms: C_22  and  C_24
REMARK                            x       y       z     vdW  Elec       q    Type
REMARK                         _______ _______ _______ _____ _____    ______ ____
ROOT
ATOM      1  N   UNL     1       2.185   6.392  20.341  0.00  0.00    +0.000 N 
ATOM      2  C   UNL     1       1.993   7.589  19.668  0.00  0.00    +0.000 C 
ATOM      3  O   UNL     1       2.338   7.852  18.522  0.00  0.00    +0.000 OA
ATOM      4  H   UNL     1       1.627   6.234  21.166  0.00  0.00    +0.000 HD
ENDROOT
BRANCH   1  10
ATOM      5  C   UNL     1       2.852   4.047  20.578  0.00  0.00    +0.000 A 
ATOM      6  C   UNL     1       3.544   2.941  20.063  0.00  0.00    +0.000 A 
ATOM      7  C   UNL     1       4.379   3.058  18.944  0.00  0.00    +0.000 A 
ATOM      8  C   UNL     1       4.523   4.282  18.293  0.00  0.00    +0.000 A 
ATOM      9  C   UNL     1       3.795   5.380  18.776  0.00  0.00    +0.000 A 
ATOM     10  C   UNL     1       2.941   5.277  19.886  0.00  0.00    +0.000 A 
BRANCH   8  11
ATOM     11  C   UNL     1       5.381   4.446  17.104  0.00  0.00    +0.000 A 
ATOM     12  C   UNL     1       5.028   4.346  15.767  0.00  0.00    +0.000 A 
ATOM     13  C   UNL     1       6.118   4.596  14.884  0.00  0.00    +0.000 A 
ATOM     14  C   UNL     1       7.275   4.880  15.568  0.00  0.00    +0.000 A 
ATOM     15  S   UNL     1       7.043   4.853  17.260  0.00  0.00    +0.000 S 
ENDBRANCH   8  11
BRANCH   5  16
ATOM     16  N   UNL     1       1.921   3.812  21.611  0.00  0.00    +0.000 N 
ATOM     17  H   UNL     1       0.961   3.991  21.327  0.00  0.00    +0.000 HD
ATOM     18  H   UNL     1       2.003   2.930  22.092  0.00  0.00    +0.000 HD
ENDBRANCH   5  16
ENDBRANCH   1  10
BRANCH   2  19
ATOM     19  C   UNL     1       1.230   8.627  20.418  0.00  0.00    +0.000 A 
ATOM     20  C   UNL     1       0.820   9.816  19.807  0.00  0.00    +0.000 A 
ATOM     21  C   UNL     1       0.129  10.779  20.548  0.00  0.00    +0.000 A 
ATOM     22  C   UNL     1      -0.159  10.571  21.906  0.00  0.00    +0.000 A 
ATOM     23  C   UNL     1       0.199   9.350  22.494  0.00  0.00    +0.000 A 
ATOM     24  C   UNL     1       0.887   8.383  21.754  0.00  0.00    +0.000 A 
BRANCH  22  25
ATOM     25  C   UNL     1      -0.828  11.654  22.711  0.00  0.00    +0.000 C 
BRANCH  25  26
ATOM     26  N   UNL     1      -1.973  12.219  22.050  0.00  0.00    +0.000 N 
ATOM     27  C   UNL     1      -3.178  12.339  22.705  0.00  0.00    +0.000 C 
ATOM     28  O   UNL     1      -3.387  11.872  23.823  0.00  0.00    +0.000 OA
ATOM     29  H   UNL     1      -1.879  12.749  21.186  0.00  0.00    +0.000 HD
BRANCH  27  30
ATOM     30  C   UNL     1      -4.269  13.057  21.900  0.00  0.00    +0.000 C 
ATOM     31  C   UNL     1      -4.691  14.359  22.549  0.00  0.00    +0.000 C 
ATOM     32  C   UNL     1      -6.066  14.601  21.959  0.00  0.00    +0.000 C 
ATOM     33  C   UNL     1      -6.623  13.212  21.686  0.00  0.00    +0.000 C 
ATOM     34  N   UNL     1      -5.525  12.263  21.890  0.00  0.00    +0.000 NA
ATOM     35  H   UNL     1      -5.489  11.590  21.123  0.00  0.00    +0.000 HD
ENDBRANCH  27  30
ENDBRANCH  25  26
ENDBRANCH  22  25
ENDBRANCH   2  19
TORSDOF 7
ENDMDL
MODEL 6
REMARK VINA RESULT:      -8.0      1.119      1.481
REMARK  Name = 
REMARK  7 active torsions:
REMARK  status: ('A' for Active; 'I' for Inactive)
REMARK    1  A    between atoms: N_1  and  C_2
REMARK    2  A    between atoms: C_5  and  C_6
REMARK    3  A    between atoms: C_12  and  N_13
REMARK    4  A    between atoms: C_14  and  C_16
REMARK    5  A    between atoms: C_19  and  C_20
REMARK    6  A    between atoms: C_20  and  N_21
REMARK    7  A    between atoms: C_22  and  C_24
REMARK                            x       y       z     vdW  Elec       q    Type
REMARK                         _______ _______ _______ _____ _____    ______ ____
ROOT
ATOM      1  N   UNL     1       9.466  10.153  19.321  0.00  0.00    +0.000 N 
ATOM      2  C   UNL     1       8.561   9.895  18.301  0.00  0.00    +0.000 C 
ATOM      3  O   UNL     1       8.141  10.693  17.473  0.00  0.00    +0.000 OA
ATOM      4  H   UNL     1       9.912   9.357  19.751  0.00  0.00    +0.000 HD
ENDROOT
BRANCH   1  10
ATOM      5  C   UNL     1      10.997  12.020  18.910  0.00  0.00    +0.000 A 
ATOM      6  C   UNL     1      11.433  13.309  19.251  0.00  0.00    +0.000 A 
ATOM      7  C   UNL     1      10.947  13.966  20.389  0.00  0.00    +0.000 A 
ATOM      8  C   UNL     1       9.991  13.361  21.203  0.00  0.00    +0.000 A 
ATOM      9  C   UNL     1       9.518  12.091  20.839  0.00  0.00    +0.000 A 
ATOM     10  C   UNL     1       9.981  11.425  19.693  0.00  0.00    +0.000 A 
BRANCH   8  11
ATOM     11  C   UNL     1       9.443  14.023  22.402  0.00  0.00    +0.000 A 
ATOM     12  C   UNL     1       9.675  15.313  22.855  0.00  0.00    +0.000 A 
ATOM     13  C   UNL     1       8.949  15.624  24.042  0.00  0.00    +0.000 A 
ATOM     14  C   UNL     1       8.183  14.565  24.465  0.00  0.00    +0.000 A 
ATOM     15  S   UNL     1       8.334  13.212  23.433  0.00  0.00    +0.000 S 
ENDBRANCH   8  11
BRANCH   5  16
ATOM     16  N   UNL     1      11.422  11.493  17.673  0.00  0.00    +0.000 N 
ATOM     17  H   UNL     1      12.410  11.654  17.491  0.00  0.00    +0.000 HD
ATOM     18  H   UNL     1      11.165  10.536  17.486  0.00  0.00    +0.000 HD
ENDBRANCH   5  16
ENDBRANCH   1  10
BRANCH   2  19
ATOM     19  C   UNL     1       8.118   8.476  18.186  0.00  0.00    +0.000 A 
ATOM     20  C   UNL     1       8.515   7.510  19.115  0.00  0.00    +0.000 A 
ATOM     21  C   UNL     1       8.104   6.183  18.961  0.00  0.00    +0.000 A 
ATOM     22  C   UNL     1       7.294   5.803  17.878  0.00  0.00    +0.000 A 
ATOM     23  C   UNL     1       6.848   6.789  16.989  0.00  0.00    +0.000 A 
ATOM     24  C   UNL     1       7.256   8.118  17.142  0.00  0.00    +0.000 A 
BRANCH  22  25
ATOM     25  C   UNL     1       6.930   4.355  17.679  0.00  0.00    +0.000 C 
BRANCH  25  26
ATOM     26  N   UNL     1       5.522   4.103  17.836  0.00  0.00    +0.000 N 
ATOM     27  C   UNL     1       4.715   3.902  16.739  0.00  0.00    +0.000 C 
ATOM     28  O   UNL     1       5.104   4.043  15.581  0.00  0.00    +0.000 OA
ATOM     29  H   UNL     1       5.128   3.839  18.735  0.00  0.00    +0.000 HD
BRANCH  27  30
ATOM     30  C   UNL     1       3.263   3.542  17.077  0.00  0.00    +0.000 C 
ATOM     31  C   UNL     1       2.587   4.617  17.904  0.00  0.00    +0.000 C 
ATOM     32  C   UNL     1       1.448   3.868  18.566  0.00  0.00    +0.000 C 
ATOM     33  C   UNL     1       1.953   2.441  18.717  0.00  0.00    +0.000 C 
ATOM     34  N   UNL     1       3.208   2.350  17.963  0.00  0.00    +0.000 NA
ATOM     35  H   UNL     1       3.218   1.506  17.390  0.00  0.00    +0.000 HD
ENDBRANCH  27  30
ENDBRANCH  25  26
ENDBRANCH  22  25
ENDBRANCH   2  19
TORSDOF 7
ENDMDL
MODEL 7
REMARK VINA RESULT:      -8.0      3.071     10.100
REMARK  Name = 
REMARK  7 active torsions:
REMARK  status: ('A' for Active; 'I' for Inactive)
REMARK    1  A    between atoms: N_1  and  C_2
REMARK    2  A    between atoms: C_5  and  C_6
REMARK    3  A    between atoms: C_12  and  N_13
REMARK    4  A    between atoms: C_14  and  C_16
REMARK    5  A    between atoms: C_19  and  C_20
REMARK    6  A    between atoms: C_20  and  N_21
REMARK    7  A    between atoms: C_22  and  C_24
REMARK                            x       y       z     vdW  Elec       q    Type
REMARK                         _______ _______ _______ _____ _____    ______ ____
ROOT
ATOM      1  N   UNL     1       6.724   7.538  17.150  0.00  0.00    +0.000 N 
ATOM      2  C   UNL     1       7.747   7.722  18.070  0.00  0.00    +0.000 C 
ATOM      3  O   UNL     1       8.296   6.857  18.742  0.00  0.00    +0.000 OA
ATOM      4  H   UNL     1       6.557   8.285  16.494  0.00  0.00    +0.000 HD
ENDROOT
BRANCH   1  10
ATOM      5  C   UNL     1       6.436   5.475  15.861  0.00  0.00    +0.000 A 
ATOM      6  C   UNL     1       5.770   4.253  15.690  0.00  0.00    +0.000 A 
ATOM      7  C   UNL     1       4.656   3.914  16.468  0.00  0.00    +0.000 A 
ATOM      8  C   UNL     1       4.193   4.779  17.458  0.00  0.00    +0.000 A 
ATOM      9  C   UNL     1       4.886   5.982  17.664  0.00  0.00    +0.000 A 
ATOM     10  C   UNL     1       6.014   6.330  16.905  0.00  0.00    +0.000 A 
BRANCH   8  11
ATOM     11  C   UNL     1       3.032   4.455  18.308  0.00  0.00    +0.000 A 
ATOM     12  C   UNL     1       2.052   3.496  18.100  0.00  0.00    +0.000 A 
ATOM     13  C   UNL     1       1.093   3.442  19.153  0.00  0.00    +0.000 A 
ATOM     14  C   UNL     1       1.364   4.362  20.138  0.00  0.00    +0.000 A 
ATOM     15  S   UNL     1       2.768   5.273  19.796  0.00  0.00    +0.000 S 
ENDBRANCH   8  11
BRANCH   5  16
ATOM     16  N   UNL     1       7.634   5.673  15.142  0.00  0.00    +0.000 N 
ATOM     17  H   UNL     1       8.158   6.485  15.461  0.00  0.00    +0.000 HD
ATOM     18  H   UNL     1       8.231   4.867  15.042  0.00  0.00    +0.000 HD
ENDBRANCH   5  16
ENDBRANCH   1  10
BRANCH   2  19
ATOM     19  C   UNL     1       8.256   9.118  18.186  0.00  0.00    +0.000 A 
ATOM     20  C   UNL     1       7.781  10.140  17.358  0.00  0.00    +0.000 A 
ATOM     21  C   UNL     1       8.300  11.432  17.475  0.00  0.00    +0.000 A 
ATOM     22  C   UNL     1       9.300  11.721  18.418  0.00  0.00    +0.000 A 
ATOM     23  C   UNL     1       9.724  10.708  19.287  0.00  0.00    +0.000 A 
ATOM     24  C   UNL     1       9.204   9.414  19.173  0.00  0.00    +0.000 A 
BRANCH  22  25
ATOM     25  C   UNL     1       9.910  13.098  18.474  0.00  0.00    +0.000 C 
BRANCH  25  26
ATOM     26  N   UNL     1       9.668  13.768  19.724  0.00  0.00    +0.000 N 
ATOM     27  C   UNL     1       8.526  14.512  19.916  0.00  0.00    +0.000 C 
ATOM     28  O   UNL     1       7.718  14.751  19.020  0.00  0.00    +0.000 OA
ATOM     29  H   UNL     1      10.195  13.534  20.562  0.00  0.00    +0.000 HD
BRANCH  27  30
ATOM     30  C   UNL     1       8.366  15.075  21.334  0.00  0.00    +0.000 C 
ATOM     31  C   UNL     1       9.539  14.718  22.224  0.00  0.00    +0.000 C 
ATOM     32  C   UNL     1       8.961  14.858  23.618  0.00  0.00    +0.000 C 
ATOM     33  C   UNL     1       7.484  14.527  23.463  0.00  0.00    +0.000 C 
ATOM     34  N   UNL     1       7.213  14.443  22.025  0.00  0.00    +0.000 NA
ATOM     35  H   UNL     1       6.361  14.955  21.793  0.00  0.00    +0.000 HD
ENDBRANCH  27  30
ENDBRANCH  25  26
ENDBRANCH  22  25
ENDBRANCH   2  19
TORSDOF 7
ENDMDL
MODEL 8
REMARK VINA RESULT:      -8.0      3.596     10.140
REMARK  Name = 
REMARK  7 active torsions:
REMARK  status: ('A' for Active; 'I' for Inactive)
REMARK    1  A    between atoms: N_1  and  C_2
REMARK    2  A    between atoms: C_5  and  C_6
REMARK    3  A    between atoms: C_12  and  N_13
REMARK    4  A    between atoms: C_14  and  C_16
REMARK    5  A    between atoms: C_19  and  C_20
REMARK    6  A    between atoms: C_20  and  N_21
REMARK    7  A    between atoms: C_22  and  C_24
REMARK                            x       y       z     vdW  Elec       q    Type
REMARK                         _______ _______ _______ _____ _____    ______ ____
ROOT
ATOM      1  N   UNL     1       6.709   7.519  17.132  0.00  0.00    +0.000 N 
ATOM      2  C   UNL     1       7.730   7.700  18.053  0.00  0.00    +0.000 C 
ATOM      3  O   UNL     1       8.283   6.832  18.717  0.00  0.00    +0.000 OA
ATOM      4  H   UNL     1       6.537   8.271  16.483  0.00  0.00    +0.000 HD
ENDROOT
BRANCH   1  10
ATOM      5  C   UNL     1       6.437   5.462  15.830  0.00  0.00    +0.000 A 
ATOM      6  C   UNL     1       5.776   4.238  15.649  0.00  0.00    +0.000 A 
ATOM      7  C   UNL     1       4.658   3.891  16.418  0.00  0.00    +0.000 A 
ATOM      8  C   UNL     1       4.186   4.750  17.409  0.00  0.00    +0.000 A 
ATOM      9  C   UNL     1       4.873   5.954  17.626  0.00  0.00    +0.000 A 
ATOM     10  C   UNL     1       6.005   6.310  16.876  0.00  0.00    +0.000 A 
BRANCH   8  11
ATOM     11  C   UNL     1       3.020   4.417  18.250  0.00  0.00    +0.000 A 
ATOM     12  C   UNL     1       2.024   3.483  18.011  0.00  0.00    +0.000 A 
ATOM     13  C   UNL     1       1.065   3.410  19.063  0.00  0.00    +0.000 A 
ATOM     14  C   UNL     1       1.353   4.291  20.078  0.00  0.00    +0.000 A 
ATOM     15  S   UNL     1       2.772   5.189  19.765  0.00  0.00    +0.000 S 
ENDBRANCH   8  11
BRANCH   5  16
ATOM     16  N   UNL     1       7.638   5.668  15.121  0.00  0.00    +0.000 N 
ATOM     17  H   UNL     1       7.539   5.517  14.120  0.00  0.00    +0.000 HD
ATOM     18  H   UNL     1       8.129   6.527  15.316  0.00  0.00    +0.000 HD
ENDBRANCH   5  16
ENDBRANCH   1  10
BRANCH   2  19
ATOM     19  C   UNL     1       8.232   9.098  18.181  0.00  0.00    +0.000 A 
ATOM     20  C   UNL     1       7.760  10.122  17.354  0.00  0.00    +0.000 A 
ATOM     21  C   UNL     1       8.273  11.416  17.484  0.00  0.00    +0.000 A 
ATOM     22  C   UNL     1       9.263  11.704  18.437  0.00  0.00    +0.000 A 
ATOM     23  C   UNL     1       9.683  10.688  19.305  0.00  0.00    +0.000 A 
ATOM     24  C   UNL     1       9.169   9.393  19.179  0.00  0.00    +0.000 A 
BRANCH  22  25
ATOM     25  C   UNL     1       9.866  13.083  18.507  0.00  0.00    +0.000 C 
BRANCH  25  26
ATOM     26  N   UNL     1       8.900  14.129  18.302  0.00  0.00    +0.000 N 
ATOM     27  C   UNL     1       8.233  14.691  19.367  0.00  0.00    +0.000 C 
ATOM     28  O   UNL     1       8.320  14.267  20.517  0.00  0.00    +0.000 OA
ATOM     29  H   UNL     1       8.847  14.638  17.423  0.00  0.00    +0.000 HD
BRANCH  27  30
ATOM     30  C   UNL     1       7.316  15.864  18.994  0.00  0.00    +0.000 C 
ATOM     31  C   UNL     1       6.820  16.609  20.215  0.00  0.00    +0.000 C 
ATOM     32  C   UNL     1       5.575  17.307  19.704  0.00  0.00    +0.000 C 
ATOM     33  C   UNL     1       5.040  16.396  18.609  0.00  0.00    +0.000 C 
ATOM     34  N   UNL     1       6.063  15.374  18.365  0.00  0.00    +0.000 NA
ATOM     35  H   UNL     1       6.215  15.256  17.362  0.00  0.00    +0.000 HD
ENDBRANCH  27  30
ENDBRANCH  25  26
ENDBRANCH  22  25
ENDBRANCH   2  19
TORSDOF 7
ENDMDL
MODEL 9
REMARK VINA RESULT:      -8.0      3.676     10.332
REMARK  Name = 
REMARK  7 active torsions:
REMARK  status: ('A' for Active; 'I' for Inactive)
REMARK    1  A    between atoms: N_1  and  C_2
REMARK    2  A    between atoms: C_5  and  C_6
REMARK    3  A    between atoms: C_12  and  N_13
REMARK    4  A    between atoms: C_14  and  C_16
REMARK    5  A    between atoms: C_19  and  C_20
REMARK    6  A    between atoms: C_20  and  N_21
REMARK    7  A    between atoms: C_22  and  C_24
REMARK                            x       y       z     vdW  Elec       q    Type
REMARK                         _______ _______ _______ _____ _____    ______ ____
ROOT
ATOM      1  N   UNL     1       6.752   7.495  17.157  0.00  0.00    +0.000 N 
ATOM      2  C   UNL     1       7.763   7.658  18.093  0.00  0.00    +0.000 C 
ATOM      3  O   UNL     1       8.291   6.781  18.765  0.00  0.00    +0.000 OA
ATOM      4  H   UNL     1       6.604   8.250  16.505  0.00  0.00    +0.000 HD
ENDROOT
BRANCH   1  10
ATOM      5  C   UNL     1       6.444   5.461  15.828  0.00  0.00    +0.000 A 
ATOM      6  C   UNL     1       5.767   4.247  15.635  0.00  0.00    +0.000 A 
ATOM      7  C   UNL     1       4.651   3.903  16.409  0.00  0.00    +0.000 A 
ATOM      8  C   UNL     1       4.198   4.753  17.417  0.00  0.00    +0.000 A 
ATOM      9  C   UNL     1       4.902   5.945  17.645  0.00  0.00    +0.000 A 
ATOM     10  C   UNL     1       6.032   6.299  16.890  0.00  0.00    +0.000 A 
BRANCH   8  11
ATOM     11  C   UNL     1       3.036   4.422  18.263  0.00  0.00    +0.000 A 
ATOM     12  C   UNL     1       2.104   3.411  18.090  0.00  0.00    +0.000 A 
ATOM     13  C   UNL     1       1.128   3.369  19.128  0.00  0.00    +0.000 A 
ATOM     14  C   UNL     1       1.339   4.350  20.066  0.00  0.00    +0.000 A 
ATOM     15  S   UNL     1       2.708   5.304  19.701  0.00  0.00    +0.000 S 
ENDBRANCH   8  11
BRANCH   5  16
ATOM     16  N   UNL     1       7.642   5.662  15.111  0.00  0.00    +0.000 N 
ATOM     17  H   UNL     1       8.468   5.382  15.633  0.00  0.00    +0.000 HD
ATOM     18  H   UNL     1       7.662   5.303  14.170  0.00  0.00    +0.000 HD
ENDBRANCH   5  16
ENDBRANCH   1  10
BRANCH   2  19
ATOM     19  C   UNL     1       8.287   9.047  18.230  0.00  0.00    +0.000 A 
ATOM     20  C   UNL     1       9.251   9.373  19.188  0.00  0.00    +0.000 A 
ATOM     21  C   UNL     1       9.700  10.691  19.308  0.00  0.00    +0.000 A 
ATOM     22  C   UNL     1       9.191  11.701  18.475  0.00  0.00    +0.000 A 
ATOM     23  C   UNL     1       8.274  11.355  17.475  0.00  0.00    +0.000 A 
ATOM     24  C   UNL     1       7.825  10.035  17.352  0.00  0.00    +0.000 A 
BRANCH  22  25
ATOM     25  C   UNL     1       9.621  13.131  18.673  0.00  0.00    +0.000 C 
BRANCH  25  26
ATOM     26  N   UNL     1       8.524  14.059  18.628  0.00  0.00    +0.000 N 
ATOM     27  C   UNL     1       8.749  15.416  18.559  0.00  0.00    +0.000 C 
ATOM     28  O   UNL     1       9.867  15.919  18.653  0.00  0.00    +0.000 OA
ATOM     29  H   UNL     1       7.577  13.752  18.415  0.00  0.00    +0.000 HD
BRANCH  27  30
ATOM     30  C   UNL     1       7.479  16.264  18.411  0.00  0.00    +0.000 C 
ATOM     31  C   UNL     1       7.199  17.089  19.650  0.00  0.00    +0.000 C 
ATOM     32  C   UNL     1       5.716  17.383  19.533  0.00  0.00    +0.000 C 
ATOM     33  C   UNL     1       5.141  16.190  18.784  0.00  0.00    +0.000 C 
ATOM     34  N   UNL     1       6.277  15.398  18.303  0.00  0.00    +0.000 NA
ATOM     35  H   UNL     1       6.140  15.136  17.326  0.00  0.00    +0.000 HD
ENDBRANCH  27  30
ENDBRANCH  25  26
ENDBRANCH  22  25
ENDBRANCH   2  19
TORSDOF 7
ENDMDL
