MODEL 1
REMARK VINA RESULT:      -8.5      0.000      0.000
REMARK  Name = 
REMARK  6 active torsions:
REMARK  status: ('A' for Active; 'I' for Inactive)
REMARK    1  A    between atoms: O_1  and  C_2
REMARK    2  A    between atoms: C_2  and  C_3
REMARK    3  A    between atoms: C_2  and  C_19
REMARK    4  A    between atoms: C_3  and  N_4
REMARK    5  A    between atoms: N_10  and  C_11
REMARK    6  A    between atoms: C_24  and  C_25
REMARK                            x       y       z     vdW  Elec       q    Type
REMARK                         _______ _______ _______ _____ _____    ______ ____
ROOT
ATOM      1  N   UNL     1       0.866   4.580  20.259  0.00  0.00    +0.000 N 
ATOM      2  C   UNL     1       1.632   3.599  19.593  0.00  0.00    +0.000 A 
ATOM      3  C   UNL     1       1.054   2.403  19.233  0.00  0.00    +0.000 A 
ATOM      4  C   UNL     1       1.887   1.492  18.622  0.00  0.00    +0.000 A 
ATOM      5  N   UNL     1       3.176   1.738  18.313  0.00  0.00    +0.000 NA
ATOM      6  C   UNL     1       3.635   2.947  18.642  0.00  0.00    +0.000 A 
ATOM      7  N   UNL     1       4.942   3.285  18.260  0.00  0.00    +0.000 N 
ATOM      8  N   UNL     1       2.909   3.864  19.296  0.00  0.00    +0.000 NA
ATOM      9  H   UNL     1       0.214   4.978  19.583  0.00  0.00    +0.000 HD
ATOM     10  H   UNL     1       5.311   2.512  17.730  0.00  0.00    +0.000 HD
ENDROOT
BRANCH   7  11
ATOM     11  C   UNL     1       5.363   4.543  17.791  0.00  0.00    +0.000 A 
ATOM     12  C   UNL     1       4.728   5.205  16.723  0.00  0.00    +0.000 A 
ATOM     13  C   UNL     1       5.172   6.452  16.275  0.00  0.00    +0.000 A 
ATOM     14  C   UNL     1       6.266   7.057  16.885  0.00  0.00    +0.000 A 
ATOM     15  C   UNL     1       6.911   6.406  17.934  0.00  0.00    +0.000 A 
ATOM     16 CL   UNL     1       8.259   7.159  18.697  0.00  0.00    +0.000 Cl
ATOM     17  C   UNL     1       6.475   5.155  18.376  0.00  0.00    +0.000 A 
ENDBRANCH   7  11
BRANCH   1  18
ATOM     18  C   UNL     1       1.719   5.623  20.875  0.00  0.00    +0.000 C 
BRANCH  18  19
ATOM     19  C   UNL     1       2.038   6.808  19.927  0.00  0.00    +0.000 C 
BRANCH  19  20
ATOM     20  C   UNL     1       1.474   8.141  20.407  0.00  0.00    +0.000 A 
ATOM     21  C   UNL     1       1.274   8.315  21.793  0.00  0.00    +0.000 A 
ATOM     22  C   UNL     1       0.771   9.502  22.322  0.00  0.00    +0.000 A 
ATOM     23  C   UNL     1       0.446  10.551  21.476  0.00  0.00    +0.000 A 
ATOM     24  C   UNL     1       0.626  10.407  20.102  0.00  0.00    +0.000 A 
ATOM     25  C   UNL     1       1.138   9.212  19.541  0.00  0.00    +0.000 A 
BRANCH  25  26
ATOM     26  C   UNL     1       1.288   9.210  18.032  0.00  0.00    +0.000 C 
ATOM     27  F   UNL     1       2.253  10.029  17.540  0.00  0.00    +0.000 F 
ATOM     28  F   UNL     1       1.591   7.967  17.556  0.00  0.00    +0.000 F 
ATOM     29  F   UNL     1       0.136   9.572  17.400  0.00  0.00    +0.000 F 
ENDBRANCH  25  26
ENDBRANCH  19  20
BRANCH  19  30
ATOM     30  O   UNL     1       3.451   6.931  19.700  0.00  0.00    +0.000 OA
ATOM     31  H   UNL     1       3.800   7.531  20.381  0.00  0.00    +0.000 HD
ENDBRANCH  19  30
ENDBRANCH  18  19
ENDBRANCH   1  18
TORSDOF 6
ENDMDL
MODEL 2
REMARK VINA RESULT:      -8.3      1.057      1.432
REMARK  Name = 
REMARK  6 active torsions:
REMARK  status: ('A' for Active; 'I' for Inactive)
REMARK    1  A    between atoms: O_1  and  C_2
REMARK    2  A    between atoms: C_2  and  C_3
REMARK    3  A    between atoms: C_2  and  C_19
REMARK    4  A    between atoms: C_3  and  N_4
REMARK    5  A    between atoms: N_10  and  C_11
REMARK    6  A    between atoms: C_24  and  C_25
REMARK                            x       y       z     vdW  Elec       q    Type
REMARK                         _______ _______ _______ _____ _____    ______ ____
ROOT
ATOM      1  N   UNL     1       1.004   4.495  20.151  0.00  0.00    +0.000 N 
ATOM      2  C   UNL     1       1.880   3.510  19.644  0.00  0.00    +0.000 A 
ATOM      3  C   UNL     1       1.387   2.284  19.260  0.00  0.00    +0.000 A 
ATOM      4  C   UNL     1       2.319   1.373  18.813  0.00  0.00    +0.000 A 
ATOM      5  N   UNL     1       3.633   1.644  18.680  0.00  0.00    +0.000 NA
ATOM      6  C   UNL     1       4.012   2.879  19.016  0.00  0.00    +0.000 A 
ATOM      7  N   UNL     1       5.352   3.239  18.808  0.00  0.00    +0.000 N 
ATOM      8  N   UNL     1       3.179   3.800  19.519  0.00  0.00    +0.000 NA
ATOM      9  H   UNL     1       0.445   4.845  19.372  0.00  0.00    +0.000 HD
ATOM     10  H   UNL     1       5.811   2.456  18.371  0.00  0.00    +0.000 HD
ENDROOT
BRANCH   7  11
ATOM     11  C   UNL     1       5.806   4.488  18.348  0.00  0.00    +0.000 A 
ATOM     12  C   UNL     1       6.825   5.211  18.997  0.00  0.00    +0.000 A 
ATOM     13  C   UNL     1       7.252   6.452  18.519  0.00  0.00    +0.000 A 
ATOM     14  C   UNL     1       6.662   6.997  17.384  0.00  0.00    +0.000 A 
ATOM     15  C   UNL     1       5.643   6.299  16.740  0.00  0.00    +0.000 A 
ATOM     16 CL   UNL     1       4.918   6.968  15.328  0.00  0.00    +0.000 Cl
ATOM     17  C   UNL     1       5.207   5.062  17.223  0.00  0.00    +0.000 A 
ENDBRANCH   7  11
BRANCH   1  18
ATOM     18  C   UNL     1       1.736   5.586  20.834  0.00  0.00    +0.000 C 
BRANCH  18  19
ATOM     19  C   UNL     1       2.141   6.750  19.893  0.00  0.00    +0.000 C 
BRANCH  19  20
ATOM     20  C   UNL     1       1.581   8.102  20.319  0.00  0.00    +0.000 A 
ATOM     21  C   UNL     1       1.173   8.257  21.662  0.00  0.00    +0.000 A 
ATOM     22  C   UNL     1       0.657   9.459  22.142  0.00  0.00    +0.000 A 
ATOM     23  C   UNL     1       0.527  10.544  21.288  0.00  0.00    +0.000 A 
ATOM     24  C   UNL     1       0.914  10.419  19.955  0.00  0.00    +0.000 A 
ATOM     25  C   UNL     1       1.443   9.210  19.445  0.00  0.00    +0.000 A 
BRANCH  25  26
ATOM     26  C   UNL     1       1.831   9.232  17.979  0.00  0.00    +0.000 C 
ATOM     27  F   UNL     1       3.073   8.763  17.695  0.00  0.00    +0.000 F 
ATOM     28  F   UNL     1       0.979   8.483  17.219  0.00  0.00    +0.000 F 
ATOM     29  F   UNL     1       1.779  10.489  17.453  0.00  0.00    +0.000 F 
ENDBRANCH  25  26
ENDBRANCH  19  20
BRANCH  19  30
ATOM     30  O   UNL     1       3.568   6.836  19.754  0.00  0.00    +0.000 OA
ATOM     31  H   UNL     1       3.882   7.479  20.412  0.00  0.00    +0.000 HD
ENDBRANCH  19  30
ENDBRANCH  18  19
ENDBRANCH   1  18
TORSDOF 6
ENDMDL
MODEL 3
REMARK VINA RESULT:      -8.2      1.509      1.966
REMARK  Name = 
REMARK  6 active torsions:
REMARK  status: ('A' for Active; 'I' for Inactive)
REMARK    1  A    between atoms: O_1  and  C_2
REMARK    2  A    between atoms: C_2  and  C_3
REMARK    3  A    between atoms: C_2  and  C_19
REMARK    4  A    between atoms: C_3  and  N_4
REMARK    5  A    between atoms: N_10  and  C_11
REMARK    6  A    between atoms: C_24  and  C_25
REMARK                            x       y       z     vdW  Elec       q    Type
REMARK                         _______ _______ _______ _____ _____    ______ ____
ROOT
ATOM      1  N   UNL     1       1.195   5.953  20.417  0.00  0.00    +0.000 N 
ATOM      2  C   UNL     1       1.922   4.743  20.394  0.00  0.00    +0.000 A 
ATOM      3  C   UNL     1       1.333   3.579  20.832  0.00  0.00    +0.000 A 
ATOM      4  C   UNL     1       2.129   2.455  20.808  0.00  0.00    +0.000 A 
ATOM      5  N   UNL     1       3.389   2.434  20.328  0.00  0.00    +0.000 NA
ATOM      6  C   UNL     1       3.857   3.595  19.864  0.00  0.00    +0.000 A 
ATOM      7  N   UNL     1       5.128   3.607  19.272  0.00  0.00    +0.000 N 
ATOM      8  N   UNL     1       3.170   4.745  19.914  0.00  0.00    +0.000 NA
ATOM      9  H   UNL     1       0.490   5.908  19.682  0.00  0.00    +0.000 HD
ATOM     10  H   UNL     1       5.467   2.658  19.264  0.00  0.00    +0.000 HD
ENDROOT
BRANCH   7  11
ATOM     11  C   UNL     1       5.499   4.347  18.134  0.00  0.00    +0.000 A 
ATOM     12  C   UNL     1       5.089   3.995  16.834  0.00  0.00    +0.000 A 
ATOM     13  C   UNL     1       5.477   4.747  15.722  0.00  0.00    +0.000 A 
ATOM     14  C   UNL     1       6.289   5.863  15.891  0.00  0.00    +0.000 A 
ATOM     15  C   UNL     1       6.713   6.214  17.170  0.00  0.00    +0.000 A 
ATOM     16 CL   UNL     1       7.711   7.602  17.381  0.00  0.00    +0.000 Cl
ATOM     17  C   UNL     1       6.335   5.458  18.282  0.00  0.00    +0.000 A 
ENDBRANCH   7  11
BRANCH   1  18
ATOM     18  C   UNL     1       2.079   7.131  20.258  0.00  0.00    +0.000 C 
BRANCH  18  19
ATOM     19  C   UNL     1       1.361   8.373  19.668  0.00  0.00    +0.000 C 
BRANCH  19  20
ATOM     20  C   UNL     1       0.626   9.205  20.712  0.00  0.00    +0.000 A 
ATOM     21  C   UNL     1       0.840   8.898  22.074  0.00  0.00    +0.000 A 
ATOM     22  C   UNL     1       0.217   9.611  23.097  0.00  0.00    +0.000 A 
ATOM     23  C   UNL     1      -0.647  10.651  22.786  0.00  0.00    +0.000 A 
ATOM     24  C   UNL     1      -0.883  10.972  21.452  0.00  0.00    +0.000 A 
ATOM     25  C   UNL     1      -0.261  10.264  20.396  0.00  0.00    +0.000 A 
BRANCH  25  26
ATOM     26  C   UNL     1      -0.608  10.738  18.997  0.00  0.00    +0.000 C 
ATOM     27  F   UNL     1      -0.836   9.756  18.087  0.00  0.00    +0.000 F 
ATOM     28  F   UNL     1      -1.734  11.508  18.989  0.00  0.00    +0.000 F 
ATOM     29  F   UNL     1       0.372  11.520  18.461  0.00  0.00    +0.000 F 
ENDBRANCH  25  26
ENDBRANCH  19  20
BRANCH  19  30
ATOM     30  O   UNL     1       2.274   9.206  18.937  0.00  0.00    +0.000 OA
ATOM     31  H   UNL     1       1.862   9.400  18.078  0.00  0.00    +0.000 HD
ENDBRANCH  19  30
ENDBRANCH  18  19
ENDBRANCH   1  18
TORSDOF 6
ENDMDL
MODEL 4
REMARK VINA RESULT:      -8.1      4.138      5.944
REMARK  Name = 
REMARK  6 active torsions:
REMARK  status: ('A' for Active; 'I' for Inactive)
REMARK    1  A    between atoms: O_1  and  C_2
REMARK    2  A    between atoms: C_2  and  C_3
REMARK    3  A    between atoms: C_2  and  C_19
REMARK    4  A    between atoms: C_3  and  N_4
REMARK    5  A    between atoms: N_10  and  C_11
REMARK    6  A    between atoms: C_24  and  C_25
REMARK                            x       y       z     vdW  Elec       q    Type
REMARK                         _______ _______ _______ _____ _____    ______ ____
ROOT
ATOM      1  N   UNL     1       5.173   3.286  18.184  0.00  0.00    +0.000 N 
ATOM      2  C   UNL     1       5.937   4.275  17.528  0.00  0.00    +0.000 A 
ATOM      3  C   UNL     1       6.869   5.003  18.232  0.00  0.00    +0.000 A 
ATOM      4  C   UNL     1       7.541   5.972  17.519  0.00  0.00    +0.000 A 
ATOM      5  N   UNL     1       7.377   6.183  16.197  0.00  0.00    +0.000 NA
ATOM      6  C   UNL     1       6.499   5.388  15.582  0.00  0.00    +0.000 A 
ATOM      7  N   UNL     1       6.360   5.507  14.191  0.00  0.00    +0.000 N 
ATOM      8  N   UNL     1       5.760   4.469  16.217  0.00  0.00    +0.000 NA
ATOM      9  H   UNL     1       5.789   2.499  18.386  0.00  0.00    +0.000 HD
ATOM     10  H   UNL     1       7.029   6.193  13.879  0.00  0.00    +0.000 HD
ENDROOT
BRANCH   7  11
ATOM     11  C   UNL     1       6.179   4.444  13.289  0.00  0.00    +0.000 A 
ATOM     12  C   UNL     1       7.231   3.597  12.894  0.00  0.00    +0.000 A 
ATOM     13  C   UNL     1       7.021   2.550  11.991  0.00  0.00    +0.000 A 
ATOM     14  C   UNL     1       5.754   2.337  11.462  0.00  0.00    +0.000 A 
ATOM     15  C   UNL     1       4.706   3.177  11.833  0.00  0.00    +0.000 A 
ATOM     16 CL   UNL     1       3.133   2.907  11.186  0.00  0.00    +0.000 Cl
ATOM     17  C   UNL     1       4.916   4.230  12.728  0.00  0.00    +0.000 A 
ENDBRANCH   7  11
BRANCH   1  18
ATOM     18  C   UNL     1       4.000   2.870  17.379  0.00  0.00    +0.000 C 
BRANCH  18  19
ATOM     19  C   UNL     1       2.649   3.018  18.126  0.00  0.00    +0.000 C 
BRANCH  19  20
ATOM     20  C   UNL     1       2.469   4.375  18.797  0.00  0.00    +0.000 A 
ATOM     21  C   UNL     1       2.527   5.528  17.985  0.00  0.00    +0.000 A 
ATOM     22  C   UNL     1       2.365   6.809  18.510  0.00  0.00    +0.000 A 
ATOM     23  C   UNL     1       2.146   6.974  19.870  0.00  0.00    +0.000 A 
ATOM     24  C   UNL     1       2.091   5.855  20.698  0.00  0.00    +0.000 A 
ATOM     25  C   UNL     1       2.250   4.545  20.187  0.00  0.00    +0.000 A 
BRANCH  25  26
ATOM     26  C   UNL     1       2.154   3.428  21.209  0.00  0.00    +0.000 C 
ATOM     27  F   UNL     1       3.087   2.448  21.095  0.00  0.00    +0.000 F 
ATOM     28  F   UNL     1       2.276   3.898  22.485  0.00  0.00    +0.000 F 
ATOM     29  F   UNL     1       0.946   2.797  21.168  0.00  0.00    +0.000 F 
ENDBRANCH  25  26
ENDBRANCH  19  20
BRANCH  19  30
ATOM     30  O   UNL     1       1.539   2.755  17.253  0.00  0.00    +0.000 OA
ATOM     31  H   UNL     1       1.795   3.056  16.365  0.00  0.00    +0.000 HD
ENDBRANCH  19  30
ENDBRANCH  18  19
ENDBRANCH   1  18
TORSDOF 6
ENDMDL
MODEL 5
REMARK VINA RESULT:      -8.0      1.882      2.278
REMARK  Name = 
REMARK  6 active torsions:
REMARK  status: ('A' for Active; 'I' for Inactive)
REMARK    1  A    between atoms: O_1  and  C_2
REMARK    2  A    between atoms: C_2  and  C_3
REMARK    3  A    between atoms: C_2  and  C_19
REMARK    4  A    between atoms: C_3  and  N_4
REMARK    5  A    between atoms: N_10  and  C_11
REMARK    6  A    between atoms: C_24  and  C_25
REMARK                            x       y       z     vdW  Elec       q    Type
REMARK                         _______ _______ _______ _____ _____    ______ ____
ROOT
ATOM      1  N   UNL     1       1.321   5.982  19.858  0.00  0.00    +0.000 N 
ATOM      2  C   UNL     1       2.054   4.779  19.945  0.00  0.00    +0.000 A 
ATOM      3  C   UNL     1       1.422   3.616  20.321  0.00  0.00    +0.000 A 
ATOM      4  C   UNL     1       2.223   2.499  20.415  0.00  0.00    +0.000 A 
ATOM      5  N   UNL     1       3.535   2.484  20.101  0.00  0.00    +0.000 NA
ATOM      6  C   UNL     1       4.049   3.642  19.684  0.00  0.00    +0.000 A 
ATOM      7  N   UNL     1       5.386   3.658  19.259  0.00  0.00    +0.000 N 
ATOM      8  N   UNL     1       3.353   4.786  19.629  0.00  0.00    +0.000 NA
ATOM      9  H   UNL     1       0.716   5.921  19.038  0.00  0.00    +0.000 HD
ATOM     10  H   UNL     1       5.730   2.712  19.309  0.00  0.00    +0.000 HD
ENDROOT
BRANCH   7  11
ATOM     11  C   UNL     1       5.893   4.386  18.168  0.00  0.00    +0.000 A 
ATOM     12  C   UNL     1       6.747   5.493  18.327  0.00  0.00    +0.000 A 
ATOM     13  C   UNL     1       7.233   6.200  17.223  0.00  0.00    +0.000 A 
ATOM     14  C   UNL     1       6.865   5.815  15.939  0.00  0.00    +0.000 A 
ATOM     15  C   UNL     1       6.010   4.730  15.768  0.00  0.00    +0.000 A 
ATOM     16 CL   UNL     1       5.562   4.245  14.177  0.00  0.00    +0.000 Cl
ATOM     17  C   UNL     1       5.515   4.027  16.870  0.00  0.00    +0.000 A 
ENDBRANCH   7  11
BRANCH   1  18
ATOM     18  C   UNL     1       2.209   7.166  19.795  0.00  0.00    +0.000 C 
BRANCH  18  19
ATOM     19  C   UNL     1       1.484   8.466  19.360  0.00  0.00    +0.000 C 
BRANCH  19  20
ATOM     20  C   UNL     1       0.777   9.182  20.505  0.00  0.00    +0.000 A 
ATOM     21  C   UNL     1       1.110   8.810  21.826  0.00  0.00    +0.000 A 
ATOM     22  C   UNL     1       0.522   9.416  22.934  0.00  0.00    +0.000 A 
ATOM     23  C   UNL     1      -0.427  10.411  22.753  0.00  0.00    +0.000 A 
ATOM     24  C   UNL     1      -0.782  10.796  21.462  0.00  0.00    +0.000 A 
ATOM     25  C   UNL     1      -0.196  10.197  20.321  0.00  0.00    +0.000 A 
BRANCH  25  26
ATOM     26  C   UNL     1      -0.676  10.728  18.984  0.00  0.00    +0.000 C 
ATOM     27  F   UNL     1       0.228  11.468  18.291  0.00  0.00    +0.000 F 
ATOM     28  F   UNL     1      -1.042   9.720  18.140  0.00  0.00    +0.000 F 
ATOM     29  F   UNL     1      -1.781  11.516  19.111  0.00  0.00    +0.000 F 
ENDBRANCH  25  26
ENDBRANCH  19  20
BRANCH  19  30
ATOM     30  O   UNL     1       2.384   9.371  18.702  0.00  0.00    +0.000 OA
ATOM     31  H   UNL     1       2.122   9.408  17.766  0.00  0.00    +0.000 HD
ENDBRANCH  19  30
ENDBRANCH  18  19
ENDBRANCH   1  18
TORSDOF 6
ENDMDL
MODEL 6
REMARK VINA RESULT:      -7.9      1.959      2.424
REMARK  Name = 
REMARK  6 active torsions:
REMARK  status: ('A' for Active; 'I' for Inactive)
REMARK    1  A    between atoms: O_1  and  C_2
REMARK    2  A    between atoms: C_2  and  C_3
REMARK    3  A    between atoms: C_2  and  C_19
REMARK    4  A    between atoms: C_3  and  N_4
REMARK    5  A    between atoms: N_10  and  C_11
REMARK    6  A    between atoms: C_24  and  C_25
REMARK                            x       y       z     vdW  Elec       q    Type
REMARK                         _______ _______ _______ _____ _____    ______ ____
ROOT
ATOM      1  N   UNL     1       1.398   5.973  20.502  0.00  0.00    +0.000 N 
ATOM      2  C   UNL     1       2.143   4.782  20.361  0.00  0.00    +0.000 A 
ATOM      3  C   UNL     1       1.671   3.608  20.901  0.00  0.00    +0.000 A 
ATOM      4  C   UNL     1       2.481   2.505  20.747  0.00  0.00    +0.000 A 
ATOM      5  N   UNL     1       3.641   2.512  20.059  0.00  0.00    +0.000 NA
ATOM      6  C   UNL     1       3.990   3.680  19.515  0.00  0.00    +0.000 A 
ATOM      7  N   UNL     1       5.140   3.719  18.713  0.00  0.00    +0.000 N 
ATOM      8  N   UNL     1       3.290   4.812  19.674  0.00  0.00    +0.000 NA
ATOM      9  H   UNL     1       0.579   5.901  19.898  0.00  0.00    +0.000 HD
ATOM     10  H   UNL     1       5.499   2.779  18.654  0.00  0.00    +0.000 HD
ENDROOT
BRANCH   7  11
ATOM     11  C   UNL     1       5.290   4.456  17.525  0.00  0.00    +0.000 A 
ATOM     12  C   UNL     1       5.202   5.860  17.487  0.00  0.00    +0.000 A 
ATOM     13  C   UNL     1       5.351   6.566  16.290  0.00  0.00    +0.000 A 
ATOM     14  C   UNL     1       5.584   5.876  15.105  0.00  0.00    +0.000 A 
ATOM     15  C   UNL     1       5.659   4.486  15.126  0.00  0.00    +0.000 A 
ATOM     16 CL   UNL     1       5.959   3.631  13.661  0.00  0.00    +0.000 Cl
ATOM     17  C   UNL     1       5.501   3.778  16.320  0.00  0.00    +0.000 A 
ENDBRANCH   7  11
BRANCH   1  18
ATOM     18  C   UNL     1       2.208   7.172  20.186  0.00  0.00    +0.000 C 
BRANCH  18  19
ATOM     19  C   UNL     1       1.385   8.338  19.581  0.00  0.00    +0.000 C 
BRANCH  19  20
ATOM     20  C   UNL     1       0.658   9.177  20.626  0.00  0.00    +0.000 A 
ATOM     21  C   UNL     1       0.916   8.909  21.987  0.00  0.00    +0.000 A 
ATOM     22  C   UNL     1       0.305   9.631  23.010  0.00  0.00    +0.000 A 
ATOM     23  C   UNL     1      -0.593  10.642  22.699  0.00  0.00    +0.000 A 
ATOM     24  C   UNL     1      -0.874  10.925  21.365  0.00  0.00    +0.000 A 
ATOM     25  C   UNL     1      -0.263  10.208  20.309  0.00  0.00    +0.000 A 
BRANCH  25  26
ATOM     26  C   UNL     1      -0.659  10.639  18.910  0.00  0.00    +0.000 C 
ATOM     27  F   UNL     1      -0.851   9.631  18.020  0.00  0.00    +0.000 F 
ATOM     28  F   UNL     1      -1.826  11.348  18.911  0.00  0.00    +0.000 F 
ATOM     29  F   UNL     1       0.268  11.463  18.344  0.00  0.00    +0.000 F 
ENDBRANCH  25  26
ENDBRANCH  19  20
BRANCH  19  30
ATOM     30  O   UNL     1       2.204   9.186  18.760  0.00  0.00    +0.000 OA
ATOM     31  H   UNL     1       3.101   9.170  19.137  0.00  0.00    +0.000 HD
ENDBRANCH  19  30
ENDBRANCH  18  19
ENDBRANCH   1  18
TORSDOF 6
ENDMDL
MODEL 7
REMARK VINA RESULT:      -7.9      4.018      5.668
REMARK  Name = 
REMARK  6 active torsions:
REMARK  status: ('A' for Active; 'I' for Inactive)
REMARK    1  A    between atoms: O_1  and  C_2
REMARK    2  A    between atoms: C_2  and  C_3
REMARK    3  A    between atoms: C_2  and  C_19
REMARK    4  A    between atoms: C_3  and  N_4
REMARK    5  A    between atoms: N_10  and  C_11
REMARK    6  A    between atoms: C_24  and  C_25
REMARK                            x       y       z     vdW  Elec       q    Type
REMARK                         _______ _______ _______ _____ _____    ______ ____
ROOT
ATOM      1  N   UNL     1       4.595   3.379  18.072  0.00  0.00    +0.000 N 
ATOM      2  C   UNL     1       5.585   4.193  17.480  0.00  0.00    +0.000 A 
ATOM      3  C   UNL     1       6.622   4.679  18.243  0.00  0.00    +0.000 A 
ATOM      4  C   UNL     1       7.520   5.494  17.590  0.00  0.00    +0.000 A 
ATOM      5  N   UNL     1       7.466   5.770  16.272  0.00  0.00    +0.000 NA
ATOM      6  C   UNL     1       6.463   5.205  15.597  0.00  0.00    +0.000 A 
ATOM      7  N   UNL     1       6.415   5.387  14.207  0.00  0.00    +0.000 N 
ATOM      8  N   UNL     1       5.513   4.454  16.171  0.00  0.00    +0.000 NA
ATOM      9  H   UNL     1       5.015   2.471  18.270  0.00  0.00    +0.000 HD
ATOM     10  H   UNL     1       7.231   5.916  13.943  0.00  0.00    +0.000 HD
ENDROOT
BRANCH   7  11
ATOM     11  C   UNL     1       6.045   4.413  13.262  0.00  0.00    +0.000 A 
ATOM     12  C   UNL     1       4.703   4.152  12.928  0.00  0.00    +0.000 A 
ATOM     13  C   UNL     1       4.365   3.174  11.988  0.00  0.00    +0.000 A 
ATOM     14  C   UNL     1       5.367   2.435  11.369  0.00  0.00    +0.000 A 
ATOM     15  C   UNL     1       6.698   2.673  11.700  0.00  0.00    +0.000 A 
ATOM     16 CL   UNL     1       7.940   1.765  10.927  0.00  0.00    +0.000 Cl
ATOM     17  C   UNL     1       7.037   3.643  12.647  0.00  0.00    +0.000 A 
ENDBRANCH   7  11
BRANCH   1  18
ATOM     18  C   UNL     1       3.397   3.253  17.211  0.00  0.00    +0.000 C 
BRANCH  18  19
ATOM     19  C   UNL     1       2.069   3.597  17.936  0.00  0.00    +0.000 C 
BRANCH  19  20
ATOM     20  C   UNL     1       2.147   4.864  18.780  0.00  0.00    +0.000 A 
ATOM     21  C   UNL     1       2.262   6.101  18.109  0.00  0.00    +0.000 A 
ATOM     22  C   UNL     1       2.331   7.310  18.799  0.00  0.00    +0.000 A 
ATOM     23  C   UNL     1       2.294   7.317  20.185  0.00  0.00    +0.000 A 
ATOM     24  C   UNL     1       2.188   6.111  20.875  0.00  0.00    +0.000 A 
ATOM     25  C   UNL     1       2.114   4.871  20.197  0.00  0.00    +0.000 A 
BRANCH  25  26
ATOM     26  C   UNL     1       1.990   3.647  21.084  0.00  0.00    +0.000 C 
ATOM     27  F   UNL     1       2.269   3.846  22.398  0.00  0.00    +0.000 F 
ATOM     28  F   UNL     1       0.727   3.128  21.056  0.00  0.00    +0.000 F 
ATOM     29  F   UNL     1       2.808   2.634  20.680  0.00  0.00    +0.000 F 
ENDBRANCH  25  26
ENDBRANCH  19  20
BRANCH  19  30
ATOM     30  O   UNL     1       0.978   3.697  17.007  0.00  0.00    +0.000 OA
ATOM     31  H   UNL     1       0.203   3.290  17.430  0.00  0.00    +0.000 HD
ENDBRANCH  19  30
ENDBRANCH  18  19
ENDBRANCH   1  18
TORSDOF 6
ENDMDL
MODEL 8
REMARK VINA RESULT:      -7.9      7.154      9.972
REMARK  Name = 
REMARK  6 active torsions:
REMARK  status: ('A' for Active; 'I' for Inactive)
REMARK    1  A    between atoms: O_1  and  C_2
REMARK    2  A    between atoms: C_2  and  C_3
REMARK    3  A    between atoms: C_2  and  C_19
REMARK    4  A    between atoms: C_3  and  N_4
REMARK    5  A    between atoms: N_10  and  C_11
REMARK    6  A    between atoms: C_24  and  C_25
REMARK                            x       y       z     vdW  Elec       q    Type
REMARK                         _______ _______ _______ _____ _____    ______ ____
ROOT
ATOM      1  N   UNL     1      -1.197  11.175  18.205  0.00  0.00    +0.000 N 
ATOM      2  C   UNL     1      -2.230  10.943  17.271  0.00  0.00    +0.000 A 
ATOM      3  C   UNL     1      -1.985  10.183  16.151  0.00  0.00    +0.000 A 
ATOM      4  C   UNL     1      -3.039  10.041  15.276  0.00  0.00    +0.000 A 
ATOM      5  N   UNL     1      -4.272  10.542  15.495  0.00  0.00    +0.000 NA
ATOM      6  C   UNL     1      -4.436  11.212  16.638  0.00  0.00    +0.000 A 
ATOM      7  N   UNL     1      -5.722  11.674  16.955  0.00  0.00    +0.000 N 
ATOM      8  N   UNL     1      -3.444  11.449  17.508  0.00  0.00    +0.000 NA
ATOM      9  H   UNL     1      -1.029  10.302  18.706  0.00  0.00    +0.000 HD
ATOM     10  H   UNL     1      -6.345  11.355  16.230  0.00  0.00    +0.000 HD
ENDROOT
BRANCH   7  11
ATOM     11  C   UNL     1      -6.302  11.675  18.237  0.00  0.00    +0.000 A 
ATOM     12  C   UNL     1      -6.486  12.853  18.984  0.00  0.00    +0.000 A 
ATOM     13  C   UNL     1      -7.062  12.823  20.258  0.00  0.00    +0.000 A 
ATOM     14  C   UNL     1      -7.458  11.610  20.809  0.00  0.00    +0.000 A 
ATOM     15  C   UNL     1      -7.268  10.435  20.086  0.00  0.00    +0.000 A 
ATOM     16 CL   UNL     1      -7.768   8.932  20.764  0.00  0.00    +0.000 Cl
ATOM     17  C   UNL     1      -6.684  10.462  18.817  0.00  0.00    +0.000 A 
ENDBRANCH   7  11
BRANCH   1  18
ATOM     18  C   UNL     1      -1.529  12.282  19.132  0.00  0.00    +0.000 C 
BRANCH  18  19
ATOM     19  C   UNL     1      -0.428  12.561  20.188  0.00  0.00    +0.000 C 
BRANCH  19  20
ATOM     20  C   UNL     1      -0.285  11.453  21.225  0.00  0.00    +0.000 A 
ATOM     21  C   UNL     1       0.755  10.513  21.051  0.00  0.00    +0.000 A 
ATOM     22  C   UNL     1       0.966   9.472  21.953  0.00  0.00    +0.000 A 
ATOM     23  C   UNL     1       0.136   9.336  23.056  0.00  0.00    +0.000 A 
ATOM     24  C   UNL     1      -0.902  10.243  23.251  0.00  0.00    +0.000 A 
ATOM     25  C   UNL     1      -1.135  11.310  22.350  0.00  0.00    +0.000 A 
BRANCH  25  26
ATOM     26  C   UNL     1      -2.295  12.221  22.702  0.00  0.00    +0.000 C 
ATOM     27  F   UNL     1      -1.971  13.520  22.928  0.00  0.00    +0.000 F 
ATOM     28  F   UNL     1      -3.235  12.249  21.712  0.00  0.00    +0.000 F 
ATOM     29  F   UNL     1      -2.957  11.804  23.819  0.00  0.00    +0.000 F 
ENDBRANCH  25  26
ENDBRANCH  19  20
BRANCH  19  30
ATOM     30  O   UNL     1       0.841  12.813  19.566  0.00  0.00    +0.000 OA
ATOM     31  H   UNL     1       1.364  13.350  20.186  0.00  0.00    +0.000 HD
ENDBRANCH  19  30
ENDBRANCH  18  19
ENDBRANCH   1  18
TORSDOF 6
ENDMDL
MODEL 9
REMARK VINA RESULT:      -7.9      1.712      2.331
REMARK  Name = 
REMARK  6 active torsions:
REMARK  status: ('A' for Active; 'I' for Inactive)
REMARK    1  A    between atoms: O_1  and  C_2
REMARK    2  A    between atoms: C_2  and  C_3
REMARK    3  A    between atoms: C_2  and  C_19
REMARK    4  A    between atoms: C_3  and  N_4
REMARK    5  A    between atoms: N_10  and  C_11
REMARK    6  A    between atoms: C_24  and  C_25
REMARK                            x       y       z     vdW  Elec       q    Type
REMARK                         _______ _______ _______ _____ _____    ______ ____
ROOT
ATOM      1  N   UNL     1       0.917   4.998  20.479  0.00  0.00    +0.000 N 
ATOM      2  C   UNL     1       1.588   3.942  19.824  0.00  0.00    +0.000 A 
ATOM      3  C   UNL     1       0.919   2.773  19.543  0.00  0.00    +0.000 A 
ATOM      4  C   UNL     1       1.662   1.784  18.936  0.00  0.00    +0.000 A 
ATOM      5  N   UNL     1       2.949   1.933  18.561  0.00  0.00    +0.000 NA
ATOM      6  C   UNL     1       3.498   3.122  18.816  0.00  0.00    +0.000 A 
ATOM      7  N   UNL     1       4.805   3.358  18.363  0.00  0.00    +0.000 N 
ATOM      8  N   UNL     1       2.863   4.110  19.460  0.00  0.00    +0.000 NA
ATOM      9  H   UNL     1       0.261   5.409  19.816  0.00  0.00    +0.000 HD
ATOM     10  H   UNL     1       5.099   2.541  17.851  0.00  0.00    +0.000 HD
ENDROOT
BRANCH   7  11
ATOM     11  C   UNL     1       5.283   4.565  17.821  0.00  0.00    +0.000 A 
ATOM     12  C   UNL     1       4.703   5.170  16.690  0.00  0.00    +0.000 A 
ATOM     13  C   UNL     1       5.203   6.368  16.171  0.00  0.00    +0.000 A 
ATOM     14  C   UNL     1       6.298   6.978  16.772  0.00  0.00    +0.000 A 
ATOM     15  C   UNL     1       6.890   6.383  17.883  0.00  0.00    +0.000 A 
ATOM     16 CL   UNL     1       8.240   7.144  18.635  0.00  0.00    +0.000 Cl
ATOM     17  C   UNL     1       6.398   5.180  18.398  0.00  0.00    +0.000 A 
ENDBRANCH   7  11
BRANCH   1  18
ATOM     18  C   UNL     1       1.862   6.007  21.011  0.00  0.00    +0.000 C 
BRANCH  18  19
ATOM     19  C   UNL     1       1.247   7.423  21.152  0.00  0.00    +0.000 C 
BRANCH  19  20
ATOM     20  C   UNL     1       1.514   8.326  19.953  0.00  0.00    +0.000 A 
ATOM     21  C   UNL     1       2.197   7.774  18.847  0.00  0.00    +0.000 A 
ATOM     22  C   UNL     1       2.477   8.522  17.705  0.00  0.00    +0.000 A 
ATOM     23  C   UNL     1       2.087   9.851  17.638  0.00  0.00    +0.000 A 
ATOM     24  C   UNL     1       1.417  10.425  18.716  0.00  0.00    +0.000 A 
ATOM     25  C   UNL     1       1.120   9.686  19.886  0.00  0.00    +0.000 A 
BRANCH  25  26
ATOM     26  C   UNL     1       0.377  10.444  20.968  0.00  0.00    +0.000 C 
ATOM     27  F   UNL     1       0.783  10.196  22.240  0.00  0.00    +0.000 F 
ATOM     28  F   UNL     1       0.491  11.795  20.808  0.00  0.00    +0.000 F 
ATOM     29  F   UNL     1      -0.962  10.188  20.949  0.00  0.00    +0.000 F 
ENDBRANCH  25  26
ENDBRANCH  19  20
BRANCH  19  30
ATOM     30  O   UNL     1      -0.165   7.356  21.406  0.00  0.00    +0.000 OA
ATOM     31  H   UNL     1      -0.444   6.440  21.240  0.00  0.00    +0.000 HD
ENDBRANCH  19  30
ENDBRANCH  18  19
ENDBRANCH   1  18
TORSDOF 6
ENDMDL
