MODEL 1
REMARK VINA RESULT:      -7.5      0.000      0.000
REMARK  Name = 
REMARK  7 active torsions:
REMARK  status: ('A' for Active; 'I' for Inactive)
REMARK    1  A    between atoms: C_1  and  O_2
REMARK    2  A    between atoms: O_2  and  C_3
REMARK    3  A    between atoms: C_4  and  C_5
REMARK    4  A    between atoms: C_10  and  C_11
REMARK    5  A    between atoms: C_15  and  C_16
REMARK    6  A    between atoms: C_19  and  N_20
REMARK    7  A    between atoms: C_28  and  C_29
REMARK                            x       y       z     vdW  Elec       q    Type
REMARK                         _______ _______ _______ _____ _____    ______ ____
ROOT
ATOM      1  C   UNL     1      -1.472  11.860  18.697  0.00  0.00    +0.000 A 
ATOM      2  C   UNL     1      -0.674  12.984  18.475  0.00  0.00    +0.000 A 
ATOM      3  N   UNL     1       0.675  12.997  18.507  0.00  0.00    +0.000 NA
ATOM      4  C   UNL     1       1.278  11.809  18.729  0.00  0.00    +0.000 A 
ATOM      5  C   UNL     1       0.631  10.571  18.850  0.00  0.00    +0.000 A 
ATOM      6  C   UNL     1      -0.795  10.602  18.799  0.00  0.00    +0.000 A 
ATOM      7  C   UNL     1      -1.596   9.316  18.810  0.00  0.00    +0.000 C 
ENDROOT
BRANCH   5   8
ATOM      8  C   UNL     1       1.452   9.335  18.961  0.00  0.00    +0.000 A 
ATOM      9  C   UNL     1       1.506   8.562  20.126  0.00  0.00    +0.000 A 
ATOM     10  C   UNL     1       2.092   7.289  20.127  0.00  0.00    +0.000 A 
ATOM     11  C   UNL     1       2.763   6.772  19.010  0.00  0.00    +0.000 A 
ATOM     12  C   UNL     1       2.830   7.609  17.894  0.00  0.00    +0.000 A 
ATOM     13  C   UNL     1       2.179   8.852  17.861  0.00  0.00    +0.000 A 
BRANCH  11  14
ATOM     14  N   UNL     1       3.281   5.493  19.023  0.00  0.00    +0.000 N 
ATOM     15  C   UNL     1       2.589   4.334  18.434  0.00  0.00    +0.000 C 
ATOM     16  C   UNL     1       3.351   3.816  17.197  0.00  0.00    +0.000 C 
ATOM     17  N   UNL     1       4.769   3.511  17.477  0.00  0.00    +0.000 NA
ATOM     18  C   UNL     1       5.420   4.705  18.056  0.00  0.00    +0.000 C 
ATOM     19  C   UNL     1       4.706   5.255  19.310  0.00  0.00    +0.000 C 
ATOM     20  H   UNL     1       5.235   3.269  16.604  0.00  0.00    +0.000 HD
ENDBRANCH  11  14
ENDBRANCH   5   8
BRANCH   1  25
ATOM     21  C   UNL     1      -4.064  11.634  18.225  0.00  0.00    +0.000 A 
ATOM     22  C   UNL     1      -5.299  12.179  18.759  0.00  0.00    +0.000 A 
ATOM     23  C   UNL     1      -5.043  12.956  19.871  0.00  0.00    +0.000 A 
ATOM     24  S   UNL     1      -3.442  12.833  20.390  0.00  0.00    +0.000 S 
ATOM     25  C   UNL     1      -2.930  12.058  18.935  0.00  0.00    +0.000 A 
BRANCH  22  26
ATOM     26  C   UNL     1      -6.676  12.018  18.314  0.00  0.00    +0.000 C 
ATOM     27  N   UNL     1      -7.494  11.276  19.114  0.00  0.00    +0.000 N 
ATOM     28  O   UNL     1      -7.124  12.514  17.284  0.00  0.00    +0.000 OA
ATOM     29  H   UNL     1      -7.195  10.982  20.027  0.00  0.00    +0.000 HD
ATOM     30  H   UNL     1      -8.477  11.253  18.875  0.00  0.00    +0.000 HD
ENDBRANCH  22  26
BRANCH  21  32
ATOM     31  C   UNL     1      -3.750  11.124  15.922  0.00  0.00    +0.000 C 
ATOM     32  O   UNL     1      -4.074  10.691  17.238  0.00  0.00    +0.000 OA
ENDBRANCH  21  32
ENDBRANCH   1  25
TORSDOF 5
ENDMDL
MODEL 2
REMARK VINA RESULT:      -7.5      4.388      9.701
REMARK  Name = 
REMARK  7 active torsions:
REMARK  status: ('A' for Active; 'I' for Inactive)
REMARK    1  A    between atoms: C_1  and  O_2
REMARK    2  A    between atoms: O_2  and  C_3
REMARK    3  A    between atoms: C_4  and  C_5
REMARK    4  A    between atoms: C_10  and  C_11
REMARK    5  A    between atoms: C_15  and  C_16
REMARK    6  A    between atoms: C_19  and  N_20
REMARK    7  A    between atoms: C_28  and  C_29
REMARK                            x       y       z     vdW  Elec       q    Type
REMARK                         _______ _______ _______ _____ _____    ______ ____
ROOT
ATOM      1  C   UNL     1       2.584   7.075  19.061  0.00  0.00    +0.000 A 
ATOM      2  C   UNL     1       3.127   7.473  17.838  0.00  0.00    +0.000 A 
ATOM      3  N   UNL     1       2.801   8.602  17.174  0.00  0.00    +0.000 NA
ATOM      4  C   UNL     1       1.910   9.415  17.782  0.00  0.00    +0.000 A 
ATOM      5  C   UNL     1       1.365   9.225  19.059  0.00  0.00    +0.000 A 
ATOM      6  C   UNL     1       1.745   8.024  19.731  0.00  0.00    +0.000 A 
ATOM      7  C   UNL     1       1.306   7.764  21.156  0.00  0.00    +0.000 C 
ENDROOT
BRANCH   5   8
ATOM      8  C   UNL     1       0.497  10.285  19.638  0.00  0.00    +0.000 A 
ATOM      9  C   UNL     1      -0.746  10.629  19.096  0.00  0.00    +0.000 A 
ATOM     10  C   UNL     1      -1.640  11.454  19.792  0.00  0.00    +0.000 A 
ATOM     11  C   UNL     1      -1.297  12.081  20.998  0.00  0.00    +0.000 A 
ATOM     12  C   UNL     1      -0.001  11.848  21.462  0.00  0.00    +0.000 A 
ATOM     13  C   UNL     1       0.870  10.961  20.811  0.00  0.00    +0.000 A 
BRANCH  11  14
ATOM     14  N   UNL     1      -2.218  12.843  21.688  0.00  0.00    +0.000 N 
ATOM     15  C   UNL     1      -3.463  13.350  21.086  0.00  0.00    +0.000 C 
ATOM     16  C   UNL     1      -4.691  12.661  21.717  0.00  0.00    +0.000 C 
ATOM     17  N   UNL     1      -4.722  12.770  23.190  0.00  0.00    +0.000 NA
ATOM     18  C   UNL     1      -3.458  12.242  23.745  0.00  0.00    +0.000 C 
ATOM     19  C   UNL     1      -2.195  12.910  23.159  0.00  0.00    +0.000 C 
ATOM     20  H   UNL     1      -5.499  12.216  23.547  0.00  0.00    +0.000 HD
ENDBRANCH  11  14
ENDBRANCH   5   8
BRANCH   1  25
ATOM     21  C   UNL     1       3.788   4.725  19.192  0.00  0.00    +0.000 A 
ATOM     22  C   UNL     1       3.531   3.424  19.782  0.00  0.00    +0.000 A 
ATOM     23  C   UNL     1       2.389   3.462  20.558  0.00  0.00    +0.000 A 
ATOM     24  S   UNL     1       1.801   5.031  20.764  0.00  0.00    +0.000 S 
ATOM     25  C   UNL     1       2.806   5.673  19.516  0.00  0.00    +0.000 A 
BRANCH  22  26
ATOM     26  C   UNL     1       4.272   2.174  19.682  0.00  0.00    +0.000 C 
ATOM     27  N   UNL     1       4.055   1.422  18.565  0.00  0.00    +0.000 N 
ATOM     28  O   UNL     1       5.068   1.782  20.531  0.00  0.00    +0.000 OA
ATOM     29  H   UNL     1       3.522   1.785  17.794  0.00  0.00    +0.000 HD
ATOM     30  H   UNL     1       4.647   0.613  18.431  0.00  0.00    +0.000 HD
ENDBRANCH  22  26
BRANCH  21  32
ATOM     31  C   UNL     1       6.086   5.330  19.322  0.00  0.00    +0.000 C 
ATOM     32  O   UNL     1       4.954   4.985  18.532  0.00  0.00    +0.000 OA
ENDBRANCH  21  32
ENDBRANCH   1  25
TORSDOF 5
ENDMDL
MODEL 3
REMARK VINA RESULT:      -7.4      1.495      2.054
REMARK  Name = 
REMARK  7 active torsions:
REMARK  status: ('A' for Active; 'I' for Inactive)
REMARK    1  A    between atoms: C_1  and  O_2
REMARK    2  A    between atoms: O_2  and  C_3
REMARK    3  A    between atoms: C_4  and  C_5
REMARK    4  A    between atoms: C_10  and  C_11
REMARK    5  A    between atoms: C_15  and  C_16
REMARK    6  A    between atoms: C_19  and  N_20
REMARK    7  A    between atoms: C_28  and  C_29
REMARK                            x       y       z     vdW  Elec       q    Type
REMARK                         _______ _______ _______ _____ _____    ______ ____
ROOT
ATOM      1  C   UNL     1      -1.821  11.554  19.093  0.00  0.00    +0.000 A 
ATOM      2  C   UNL     1      -1.343  12.467  20.035  0.00  0.00    +0.000 A 
ATOM      3  N   UNL     1      -0.195  12.335  20.731  0.00  0.00    +0.000 NA
ATOM      4  C   UNL     1       0.556  11.249  20.443  0.00  0.00    +0.000 A 
ATOM      5  C   UNL     1       0.282  10.305  19.443  0.00  0.00    +0.000 A 
ATOM      6  C   UNL     1      -0.937  10.489  18.724  0.00  0.00    +0.000 A 
ATOM      7  C   UNL     1      -1.284   9.596  17.551  0.00  0.00    +0.000 C 
ENDROOT
BRANCH   5   8
ATOM      8  C   UNL     1       1.280   9.238  19.166  0.00  0.00    +0.000 A 
ATOM      9  C   UNL     1       1.531   8.183  20.051  0.00  0.00    +0.000 A 
ATOM     10  C   UNL     1       2.295   7.074  19.663  0.00  0.00    +0.000 A 
ATOM     11  C   UNL     1       2.952   7.013  18.426  0.00  0.00    +0.000 A 
ATOM     12  C   UNL     1       2.816   8.133  17.604  0.00  0.00    +0.000 A 
ATOM     13  C   UNL     1       1.989   9.212  17.954  0.00  0.00    +0.000 A 
BRANCH  11  14
ATOM     14  N   UNL     1       3.651   5.884  18.050  0.00  0.00    +0.000 N 
ATOM     15  C   UNL     1       5.034   5.918  17.545  0.00  0.00    +0.000 C 
ATOM     16  C   UNL     1       5.996   5.255  18.552  0.00  0.00    +0.000 C 
ATOM     17  N   UNL     1       5.593   3.883  18.922  0.00  0.00    +0.000 NA
ATOM     18  C   UNL     1       4.204   3.903  19.428  0.00  0.00    +0.000 C 
ATOM     19  C   UNL     1       3.194   4.542  18.450  0.00  0.00    +0.000 C 
ATOM     20  H   UNL     1       6.210   3.542  19.656  0.00  0.00    +0.000 HD
ENDBRANCH  11  14
ENDBRANCH   5   8
BRANCH   1  25
ATOM     21  C   UNL     1      -4.413  12.024  19.318  0.00  0.00    +0.000 A 
ATOM     22  C   UNL     1      -5.602  11.878  18.496  0.00  0.00    +0.000 A 
ATOM     23  C   UNL     1      -5.260  11.464  17.224  0.00  0.00    +0.000 A 
ATOM     24  S   UNL     1      -3.594  11.491  16.961  0.00  0.00    +0.000 S 
ATOM     25  C   UNL     1      -3.236  11.674  18.639  0.00  0.00    +0.000 A 
BRANCH  22  26
ATOM     26  C   UNL     1      -7.005  12.105  18.810  0.00  0.00    +0.000 C 
ATOM     27  N   UNL     1      -7.442  11.656  20.021  0.00  0.00    +0.000 N 
ATOM     28  O   UNL     1      -7.790  12.675  18.057  0.00  0.00    +0.000 OA
ATOM     29  H   UNL     1      -6.794  11.317  20.710  0.00  0.00    +0.000 HD
ATOM     30  H   UNL     1      -8.382  11.909  20.297  0.00  0.00    +0.000 HD
ENDBRANCH  22  26
BRANCH  21  32
ATOM     31  C   UNL     1      -4.575  14.012  20.616  0.00  0.00    +0.000 C 
ATOM     32  O   UNL     1      -4.475  12.594  20.557  0.00  0.00    +0.000 OA
ENDBRANCH  21  32
ENDBRANCH   1  25
TORSDOF 5
ENDMDL
MODEL 4
REMARK VINA RESULT:      -7.4      0.818      1.099
REMARK  Name = 
REMARK  7 active torsions:
REMARK  status: ('A' for Active; 'I' for Inactive)
REMARK    1  A    between atoms: C_1  and  O_2
REMARK    2  A    between atoms: O_2  and  C_3
REMARK    3  A    between atoms: C_4  and  C_5
REMARK    4  A    between atoms: C_10  and  C_11
REMARK    5  A    between atoms: C_15  and  C_16
REMARK    6  A    between atoms: C_19  and  N_20
REMARK    7  A    between atoms: C_28  and  C_29
REMARK                            x       y       z     vdW  Elec       q    Type
REMARK                         _______ _______ _______ _____ _____    ______ ____
ROOT
ATOM      1  C   UNL     1      -1.584  11.980  18.842  0.00  0.00    +0.000 A 
ATOM      2  C   UNL     1      -0.798  13.115  18.633  0.00  0.00    +0.000 A 
ATOM      3  N   UNL     1       0.551  13.135  18.631  0.00  0.00    +0.000 NA
ATOM      4  C   UNL     1       1.166  11.944  18.801  0.00  0.00    +0.000 A 
ATOM      5  C   UNL     1       0.529  10.699  18.901  0.00  0.00    +0.000 A 
ATOM      6  C   UNL     1      -0.898  10.723  18.889  0.00  0.00    +0.000 A 
ATOM      7  C   UNL     1      -1.692   9.433  18.882  0.00  0.00    +0.000 C 
ENDROOT
BRANCH   5   8
ATOM      8  C   UNL     1       1.359   9.466  18.954  0.00  0.00    +0.000 A 
ATOM      9  C   UNL     1       1.467   8.672  20.101  0.00  0.00    +0.000 A 
ATOM     10  C   UNL     1       2.057   7.402  20.053  0.00  0.00    +0.000 A 
ATOM     11  C   UNL     1       2.681   6.909  18.899  0.00  0.00    +0.000 A 
ATOM     12  C   UNL     1       2.696   7.766  17.797  0.00  0.00    +0.000 A 
ATOM     13  C   UNL     1       2.039   9.006  17.815  0.00  0.00    +0.000 A 
BRANCH  11  14
ATOM     14  N   UNL     1       3.204   5.632  18.866  0.00  0.00    +0.000 N 
ATOM     15  C   UNL     1       3.179   4.716  20.019  0.00  0.00    +0.000 C 
ATOM     16  C   UNL     1       2.240   3.524  19.747  0.00  0.00    +0.000 C 
ATOM     17  N   UNL     1       2.564   2.805  18.497  0.00  0.00    +0.000 NA
ATOM     18  C   UNL     1       2.568   3.763  17.371  0.00  0.00    +0.000 C 
ATOM     19  C   UNL     1       3.507   4.971  17.586  0.00  0.00    +0.000 C 
ATOM     20  H   UNL     1       1.853   2.096  18.328  0.00  0.00    +0.000 HD
ENDBRANCH  11  14
ENDBRANCH   5   8
BRANCH   1  25
ATOM     21  C   UNL     1      -4.186  11.698  18.467  0.00  0.00    +0.000 A 
ATOM     22  C   UNL     1      -5.411  12.240  19.025  0.00  0.00    +0.000 A 
ATOM     23  C   UNL     1      -5.131  13.056  20.104  0.00  0.00    +0.000 A 
ATOM     24  S   UNL     1      -3.512  12.974  20.571  0.00  0.00    +0.000 S 
ATOM     25  C   UNL     1      -3.036  12.162  19.124  0.00  0.00    +0.000 A 
BRANCH  22  26
ATOM     26  C   UNL     1      -6.800  12.043  18.634  0.00  0.00    +0.000 C 
ATOM     27  N   UNL     1      -7.212  10.754  18.465  0.00  0.00    +0.000 N 
ATOM     28  O   UNL     1      -7.598  12.961  18.461  0.00  0.00    +0.000 OA
ATOM     29  H   UNL     1      -6.624   9.986  18.737  0.00  0.00    +0.000 HD
ATOM     30  H   UNL     1      -8.198  10.601  18.306  0.00  0.00    +0.000 HD
ENDBRANCH  22  26
BRANCH  21  32
ATOM     31  C   UNL     1      -4.043  11.137  16.158  0.00  0.00    +0.000 C 
ATOM     32  O   UNL     1      -4.214  10.725  17.509  0.00  0.00    +0.000 OA
ENDBRANCH  21  32
ENDBRANCH   1  25
TORSDOF 5
ENDMDL
MODEL 5
REMARK VINA RESULT:      -7.4      0.877      1.208
REMARK  Name = 
REMARK  7 active torsions:
REMARK  status: ('A' for Active; 'I' for Inactive)
REMARK    1  A    between atoms: C_1  and  O_2
REMARK    2  A    between atoms: O_2  and  C_3
REMARK    3  A    between atoms: C_4  and  C_5
REMARK    4  A    between atoms: C_10  and  C_11
REMARK    5  A    between atoms: C_15  and  C_16
REMARK    6  A    between atoms: C_19  and  N_20
REMARK    7  A    between atoms: C_28  and  C_29
REMARK                            x       y       z     vdW  Elec       q    Type
REMARK                         _______ _______ _______ _____ _____    ______ ____
ROOT
ATOM      1  C   UNL     1      -1.357  11.917  18.931  0.00  0.00    +0.000 A 
ATOM      2  C   UNL     1      -0.545  13.052  18.979  0.00  0.00    +0.000 A 
ATOM      3  N   UNL     1       0.800  13.040  19.079  0.00  0.00    +0.000 NA
ATOM      4  C   UNL     1       1.388  11.824  19.085  0.00  0.00    +0.000 A 
ATOM      5  C   UNL     1       0.732  10.596  18.921  0.00  0.00    +0.000 A 
ATOM      6  C   UNL     1      -0.690  10.655  18.809  0.00  0.00    +0.000 A 
ATOM      7  C   UNL     1      -1.494   9.405  18.521  0.00  0.00    +0.000 C 
ENDROOT
BRANCH   5   8
ATOM      8  C   UNL     1       1.542   9.353  18.820  0.00  0.00    +0.000 A 
ATOM      9  C   UNL     1       1.608   8.404  19.846  0.00  0.00    +0.000 A 
ATOM     10  C   UNL     1       2.181   7.142  19.633  0.00  0.00    +0.000 A 
ATOM     11  C   UNL     1       2.829   6.805  18.437  0.00  0.00    +0.000 A 
ATOM     12  C   UNL     1       2.886   7.809  17.468  0.00  0.00    +0.000 A 
ATOM     13  C   UNL     1       2.246   9.046  17.645  0.00  0.00    +0.000 A 
BRANCH  11  14
ATOM     14  N   UNL     1       3.334   5.537  18.237  0.00  0.00    +0.000 N 
ATOM     15  C   UNL     1       4.660   5.276  17.651  0.00  0.00    +0.000 C 
ATOM     16  C   UNL     1       5.609   4.667  18.704  0.00  0.00    +0.000 C 
ATOM     17  N   UNL     1       5.059   3.457  19.348  0.00  0.00    +0.000 NA
ATOM     18  C   UNL     1       3.735   3.771  19.926  0.00  0.00    +0.000 C 
ATOM     19  C   UNL     1       2.739   4.369  18.909  0.00  0.00    +0.000 C 
ATOM     20  H   UNL     1       5.686   3.164  20.094  0.00  0.00    +0.000 HD
ENDBRANCH  11  14
ENDBRANCH   5   8
BRANCH   1  25
ATOM     21  C   UNL     1      -3.929  11.692  18.361  0.00  0.00    +0.000 A 
ATOM     22  C   UNL     1      -5.188  12.188  18.888  0.00  0.00    +0.000 A 
ATOM     23  C   UNL     1      -4.978  12.894  20.056  0.00  0.00    +0.000 A 
ATOM     24  S   UNL     1      -3.393  12.756  20.618  0.00  0.00    +0.000 S 
ATOM     25  C   UNL     1      -2.824  12.082  19.133  0.00  0.00    +0.000 A 
BRANCH  22  26
ATOM     26  C   UNL     1      -6.548  12.039  18.389  0.00  0.00    +0.000 C 
ATOM     27  N   UNL     1      -6.733  12.226  17.051  0.00  0.00    +0.000 N 
ATOM     28  O   UNL     1      -7.508  11.752  19.099  0.00  0.00    +0.000 OA
ATOM     29  H   UNL     1      -5.949  12.319  16.430  0.00  0.00    +0.000 HD
ATOM     30  H   UNL     1      -7.648  12.014  16.677  0.00  0.00    +0.000 HD
ENDBRANCH  22  26
BRANCH  21  32
ATOM     31  C   UNL     1      -3.441  11.315  16.062  0.00  0.00    +0.000 C 
ATOM     32  O   UNL     1      -3.894  10.815  17.315  0.00  0.00    +0.000 OA
ENDBRANCH  21  32
ENDBRANCH   1  25
TORSDOF 5
ENDMDL
MODEL 6
REMARK VINA RESULT:      -7.4      4.725     10.163
REMARK  Name = 
REMARK  7 active torsions:
REMARK  status: ('A' for Active; 'I' for Inactive)
REMARK    1  A    between atoms: C_1  and  O_2
REMARK    2  A    between atoms: O_2  and  C_3
REMARK    3  A    between atoms: C_4  and  C_5
REMARK    4  A    between atoms: C_10  and  C_11
REMARK    5  A    between atoms: C_15  and  C_16
REMARK    6  A    between atoms: C_19  and  N_20
REMARK    7  A    between atoms: C_28  and  C_29
REMARK                            x       y       z     vdW  Elec       q    Type
REMARK                         _______ _______ _______ _____ _____    ______ ____
ROOT
ATOM      1  C   UNL     1       2.851   5.509  18.899  0.00  0.00    +0.000 A 
ATOM      2  C   UNL     1       2.294   4.637  19.837  0.00  0.00    +0.000 A 
ATOM      3  N   UNL     1       1.563   5.012  20.907  0.00  0.00    +0.000 NA
ATOM      4  C   UNL     1       1.327   6.336  21.034  0.00  0.00    +0.000 A 
ATOM      5  C   UNL     1       1.708   7.328  20.120  0.00  0.00    +0.000 A 
ATOM      6  C   UNL     1       2.470   6.886  18.997  0.00  0.00    +0.000 A 
ATOM      7  C   UNL     1       2.843   7.850  17.889  0.00  0.00    +0.000 C 
ENDROOT
BRANCH   5   8
ATOM      8  C   UNL     1       1.255   8.728  20.343  0.00  0.00    +0.000 A 
ATOM      9  C   UNL     1       0.907   9.589  19.297  0.00  0.00    +0.000 A 
ATOM     10  C   UNL     1       0.263  10.810  19.545  0.00  0.00    +0.000 A 
ATOM     11  C   UNL     1       0.049  11.294  20.842  0.00  0.00    +0.000 A 
ATOM     12  C   UNL     1       0.530  10.495  21.882  0.00  0.00    +0.000 A 
ATOM     13  C   UNL     1       1.103   9.237  21.643  0.00  0.00    +0.000 A 
BRANCH  11  14
ATOM     14  N   UNL     1      -0.637  12.472  21.056  0.00  0.00    +0.000 N 
ATOM     15  C   UNL     1      -1.591  13.040  20.088  0.00  0.00    +0.000 C 
ATOM     16  C   UNL     1      -3.028  12.986  20.645  0.00  0.00    +0.000 C 
ATOM     17  N   UNL     1      -3.160  13.628  21.970  0.00  0.00    +0.000 NA
ATOM     18  C   UNL     1      -2.190  13.019  22.905  0.00  0.00    +0.000 C 
ATOM     19  C   UNL     1      -0.731  13.062  22.402  0.00  0.00    +0.000 C 
ATOM     20  H   UNL     1      -4.103  13.473  22.321  0.00  0.00    +0.000 HD
ENDBRANCH  11  14
ENDBRANCH   5   8
BRANCH   1  25
ATOM     21  C   UNL     1       5.226   5.320  17.752  0.00  0.00    +0.000 A 
ATOM     22  C   UNL     1       5.815   4.624  16.622  0.00  0.00    +0.000 A 
ATOM     23  C   UNL     1       4.898   3.762  16.055  0.00  0.00    +0.000 A 
ATOM     24  S   UNL     1       3.494   3.613  16.979  0.00  0.00    +0.000 S 
ATOM     25  C   UNL     1       3.880   4.980  17.959  0.00  0.00    +0.000 A 
BRANCH  22  26
ATOM     26  C   UNL     1       7.154   4.701  16.055  0.00  0.00    +0.000 C 
ATOM     27  N   UNL     1       7.275   5.340  14.857  0.00  0.00    +0.000 N 
ATOM     28  O   UNL     1       8.153   4.237  16.598  0.00  0.00    +0.000 OA
ATOM     29  H   UNL     1       6.504   5.850  14.464  0.00  0.00    +0.000 HD
ATOM     30  H   UNL     1       8.212   5.500  14.511  0.00  0.00    +0.000 HD
ENDBRANCH  22  26
BRANCH  21  32
ATOM     31  C   UNL     1       6.782   5.413  19.551  0.00  0.00    +0.000 C 
ATOM     32  O   UNL     1       5.986   6.090  18.585  0.00  0.00    +0.000 OA
ENDBRANCH  21  32
ENDBRANCH   1  25
TORSDOF 5
ENDMDL
MODEL 7
REMARK VINA RESULT:      -7.3      4.523      9.823
REMARK  Name = 
REMARK  7 active torsions:
REMARK  status: ('A' for Active; 'I' for Inactive)
REMARK    1  A    between atoms: C_1  and  O_2
REMARK    2  A    between atoms: O_2  and  C_3
REMARK    3  A    between atoms: C_4  and  C_5
REMARK    4  A    between atoms: C_10  and  C_11
REMARK    5  A    between atoms: C_15  and  C_16
REMARK    6  A    between atoms: C_19  and  N_20
REMARK    7  A    between atoms: C_28  and  C_29
REMARK                            x       y       z     vdW  Elec       q    Type
REMARK                         _______ _______ _______ _____ _____    ______ ____
ROOT
ATOM      1  C   UNL     1       2.469   7.028  19.152  0.00  0.00    +0.000 A 
ATOM      2  C   UNL     1       2.997   7.452  17.931  0.00  0.00    +0.000 A 
ATOM      3  N   UNL     1       2.690   8.611  17.313  0.00  0.00    +0.000 NA
ATOM      4  C   UNL     1       1.838   9.429  17.968  0.00  0.00    +0.000 A 
ATOM      5  C   UNL     1       1.316   9.212  19.251  0.00  0.00    +0.000 A 
ATOM      6  C   UNL     1       1.675   7.978  19.872  0.00  0.00    +0.000 A 
ATOM      7  C   UNL     1       1.260   7.683  21.299  0.00  0.00    +0.000 C 
ENDROOT
BRANCH   5   8
ATOM      8  C   UNL     1       0.494  10.276  19.885  0.00  0.00    +0.000 A 
ATOM      9  C   UNL     1       1.007  11.173  20.828  0.00  0.00    +0.000 A 
ATOM     10  C   UNL     1       0.281  12.304  21.227  0.00  0.00    +0.000 A 
ATOM     11  C   UNL     1      -1.036  12.534  20.810  0.00  0.00    +0.000 A 
ATOM     12  C   UNL     1      -1.595  11.559  19.981  0.00  0.00    +0.000 A 
ATOM     13  C   UNL     1      -0.848  10.466  19.515  0.00  0.00    +0.000 A 
BRANCH  11  14
ATOM     14  N   UNL     1      -1.705  13.685  21.175  0.00  0.00    +0.000 N 
ATOM     15  C   UNL     1      -3.125  13.927  20.868  0.00  0.00    +0.000 C 
ATOM     16  C   UNL     1      -3.967  13.933  22.161  0.00  0.00    +0.000 C 
ATOM     17  N   UNL     1      -3.466  14.884  23.174  0.00  0.00    +0.000 NA
ATOM     18  C   UNL     1      -2.043  14.594  23.453  0.00  0.00    +0.000 C 
ATOM     19  C   UNL     1      -1.151  14.593  22.192  0.00  0.00    +0.000 C 
ATOM     20  H   UNL     1      -4.003  14.768  24.032  0.00  0.00    +0.000 HD
ENDBRANCH  11  14
ENDBRANCH   5   8
BRANCH   1  25
ATOM     21  C   UNL     1       3.792   4.779  19.578  0.00  0.00    +0.000 A 
ATOM     22  C   UNL     1       3.479   3.404  19.923  0.00  0.00    +0.000 A 
ATOM     23  C   UNL     1       2.130   3.267  20.185  0.00  0.00    +0.000 A 
ATOM     24  S   UNL     1       1.332   4.752  20.255  0.00  0.00    +0.000 S 
ATOM     25  C   UNL     1       2.659   5.606  19.555  0.00  0.00    +0.000 A 
BRANCH  22  26
ATOM     26  C   UNL     1       4.340   2.235  20.033  0.00  0.00    +0.000 C 
ATOM     27  N   UNL     1       4.396   1.411  18.948  0.00  0.00    +0.000 N 
ATOM     28  O   UNL     1       5.008   1.970  21.029  0.00  0.00    +0.000 OA
ATOM     29  H   UNL     1       3.976   1.678  18.075  0.00  0.00    +0.000 HD
ATOM     30  H   UNL     1       5.076   0.662  18.971  0.00  0.00    +0.000 HD
ENDBRANCH  22  26
BRANCH  21  32
ATOM     31  C   UNL     1       5.724   4.978  18.201  0.00  0.00    +0.000 C 
ATOM     32  O   UNL     1       5.084   5.201  19.453  0.00  0.00    +0.000 OA
ENDBRANCH  21  32
ENDBRANCH   1  25
TORSDOF 5
ENDMDL
MODEL 8
REMARK VINA RESULT:      -7.3      3.484      4.555
REMARK  Name = 
REMARK  7 active torsions:
REMARK  status: ('A' for Active; 'I' for Inactive)
REMARK    1  A    between atoms: C_1  and  O_2
REMARK    2  A    between atoms: O_2  and  C_3
REMARK    3  A    between atoms: C_4  and  C_5
REMARK    4  A    between atoms: C_10  and  C_11
REMARK    5  A    between atoms: C_15  and  C_16
REMARK    6  A    between atoms: C_19  and  N_20
REMARK    7  A    between atoms: C_28  and  C_29
REMARK                            x       y       z     vdW  Elec       q    Type
REMARK                         _______ _______ _______ _____ _____    ______ ____
ROOT
ATOM      1  C   UNL     1      -1.099  11.608  20.588  0.00  0.00    +0.000 A 
ATOM      2  C   UNL     1      -1.965  11.682  19.495  0.00  0.00    +0.000 A 
ATOM      3  N   UNL     1      -1.776  11.061  18.313  0.00  0.00    +0.000 NA
ATOM      4  C   UNL     1      -0.682  10.275  18.218  0.00  0.00    +0.000 A 
ATOM      5  C   UNL     1       0.219   9.996  19.256  0.00  0.00    +0.000 A 
ATOM      6  C   UNL     1      -0.024  10.666  20.493  0.00  0.00    +0.000 A 
ATOM      7  C   UNL     1       0.817  10.360  21.715  0.00  0.00    +0.000 C 
ENDROOT
BRANCH   5   8
ATOM      8  C   UNL     1       1.302   9.005  19.024  0.00  0.00    +0.000 A 
ATOM      9  C   UNL     1       1.581   7.962  19.915  0.00  0.00    +0.000 A 
ATOM     10  C   UNL     1       2.440   6.912  19.560  0.00  0.00    +0.000 A 
ATOM     11  C   UNL     1       3.162   6.909  18.359  0.00  0.00    +0.000 A 
ATOM     12  C   UNL     1       2.990   8.025  17.537  0.00  0.00    +0.000 A 
ATOM     13  C   UNL     1       2.072   9.040  17.850  0.00  0.00    +0.000 A 
BRANCH  11  14
ATOM     14  N   UNL     1       3.957   5.836  18.011  0.00  0.00    +0.000 N 
ATOM     15  C   UNL     1       5.426   5.908  17.930  0.00  0.00    +0.000 C 
ATOM     16  C   UNL     1       6.074   5.059  19.042  0.00  0.00    +0.000 C 
ATOM     17  N   UNL     1       5.605   3.658  19.050  0.00  0.00    +0.000 NA
ATOM     18  C   UNL     1       4.130   3.639  19.141  0.00  0.00    +0.000 C 
ATOM     19  C   UNL     1       3.428   4.462  18.038  0.00  0.00    +0.000 C 
ATOM     20  H   UNL     1       5.994   3.182  19.861  0.00  0.00    +0.000 HD
ENDBRANCH  11  14
ENDBRANCH   5   8
BRANCH   1  25
ATOM     21  C   UNL     1      -0.669  13.819  21.973  0.00  0.00    +0.000 A 
ATOM     22  C   UNL     1      -1.055  14.365  23.261  0.00  0.00    +0.000 A 
ATOM     23  C   UNL     1      -1.966  13.535  23.884  0.00  0.00    +0.000 A 
ATOM     24  S   UNL     1      -2.512  12.301  22.872  0.00  0.00    +0.000 S 
ATOM     25  C   UNL     1      -1.274  12.582  21.703  0.00  0.00    +0.000 A 
BRANCH  22  26
ATOM     26  C   UNL     1      -0.647  15.592  23.931  0.00  0.00    +0.000 C 
ATOM     27  N   UNL     1      -0.559  16.712  23.158  0.00  0.00    +0.000 N 
ATOM     28  O   UNL     1      -0.394  15.664  25.131  0.00  0.00    +0.000 OA
ATOM     29  H   UNL     1      -0.896  16.713  22.211  0.00  0.00    +0.000 HD
ATOM     30  H   UNL     1      -0.389  17.589  23.632  0.00  0.00    +0.000 HD
ENDBRANCH  22  26
BRANCH  21  32
ATOM     31  C   UNL     1       1.483  14.302  21.077  0.00  0.00    +0.000 C 
ATOM     32  O   UNL     1       0.081  14.544  21.092  0.00  0.00    +0.000 OA
ENDBRANCH  21  32
ENDBRANCH   1  25
TORSDOF 5
ENDMDL
MODEL 9
REMARK VINA RESULT:      -7.3      1.744      2.331
REMARK  Name = 
REMARK  7 active torsions:
REMARK  status: ('A' for Active; 'I' for Inactive)
REMARK    1  A    between atoms: C_1  and  O_2
REMARK    2  A    between atoms: O_2  and  C_3
REMARK    3  A    between atoms: C_4  and  C_5
REMARK    4  A    between atoms: C_10  and  C_11
REMARK    5  A    between atoms: C_15  and  C_16
REMARK    6  A    between atoms: C_19  and  N_20
REMARK    7  A    between atoms: C_28  and  C_29
REMARK                            x       y       z     vdW  Elec       q    Type
REMARK                         _______ _______ _______ _____ _____    ______ ____
ROOT
ATOM      1  C   UNL     1      -1.742  12.058  19.313  0.00  0.00    +0.000 A 
ATOM      2  C   UNL     1      -1.003  13.203  19.617  0.00  0.00    +0.000 A 
ATOM      3  N   UNL     1       0.325  13.228  19.856  0.00  0.00    +0.000 NA
ATOM      4  C   UNL     1       0.975  12.049  19.742  0.00  0.00    +0.000 A 
ATOM      5  C   UNL     1       0.406  10.837  19.328  0.00  0.00    +0.000 A 
ATOM      6  C   UNL     1      -0.999  10.857  19.075  0.00  0.00    +0.000 A 
ATOM      7  C   UNL     1      -1.701   9.635  18.519  0.00  0.00    +0.000 C 
ENDROOT
BRANCH   5   8
ATOM      8  C   UNL     1       1.289   9.657  19.129  0.00  0.00    +0.000 A 
ATOM      9  C   UNL     1       1.459   8.663  20.099  0.00  0.00    +0.000 A 
ATOM     10  C   UNL     1       2.102   7.454  19.797  0.00  0.00    +0.000 A 
ATOM     11  C   UNL     1       2.719   7.222  18.560  0.00  0.00    +0.000 A 
ATOM     12  C   UNL     1       2.671   8.276  17.645  0.00  0.00    +0.000 A 
ATOM     13  C   UNL     1       1.961   9.457  17.912  0.00  0.00    +0.000 A 
BRANCH  11  14
ATOM     14  N   UNL     1       3.295   6.002  18.273  0.00  0.00    +0.000 N 
ATOM     15  C   UNL     1       4.713   5.842  17.906  0.00  0.00    +0.000 C 
ATOM     16  C   UNL     1       5.479   5.090  19.014  0.00  0.00    +0.000 C 
ATOM     17  N   UNL     1       4.865   3.793  19.364  0.00  0.00    +0.000 NA
ATOM     18  C   UNL     1       3.449   4.007  19.732  0.00  0.00    +0.000 C 
ATOM     19  C   UNL     1       2.630   4.743  18.649  0.00  0.00    +0.000 C 
ATOM     20  H   UNL     1       5.359   3.397  20.162  0.00  0.00    +0.000 HD
ENDBRANCH  11  14
ENDBRANCH   5   8
BRANCH   1  25
ATOM     21  C   UNL     1      -4.105  12.529  20.403  0.00  0.00    +0.000 A 
ATOM     22  C   UNL     1      -5.500  12.310  20.067  0.00  0.00    +0.000 A 
ATOM     23  C   UNL     1      -5.614  11.795  18.790  0.00  0.00    +0.000 A 
ATOM     24  S   UNL     1      -4.148  11.811  17.954  0.00  0.00    +0.000 S 
ATOM     25  C   UNL     1      -3.230  12.132  19.380  0.00  0.00    +0.000 A 
BRANCH  22  26
ATOM     26  C   UNL     1      -6.711  12.553  20.838  0.00  0.00    +0.000 C 
ATOM     27  N   UNL     1      -6.677  12.204  22.156  0.00  0.00    +0.000 N 
ATOM     28  O   UNL     1      -7.730  13.054  20.370  0.00  0.00    +0.000 OA
ATOM     29  H   UNL     1      -5.817  11.928  22.595  0.00  0.00    +0.000 HD
ATOM     30  H   UNL     1      -7.468  12.473  22.726  0.00  0.00    +0.000 HD
ENDBRANCH  22  26
BRANCH  21  32
ATOM     31  C   UNL     1      -3.164  12.434  22.587  0.00  0.00    +0.000 C 
ATOM     32  O   UNL     1      -3.746  13.198  21.538  0.00  0.00    +0.000 OA
ENDBRANCH  21  32
ENDBRANCH   1  25
TORSDOF 5
ENDMDL
