MODEL 1
REMARK VINA RESULT:      -7.9      0.000      0.000
REMARK  Name = 
REMARK  2 active torsions:
REMARK  status: ('A' for Active; 'I' for Inactive)
REMARK    1  A    between atoms: C_4  and  C_5
REMARK    2  A    between atoms: C_9  and  C_10
REMARK                            x       y       z     vdW  Elec       q    Type
REMARK                         _______ _______ _______ _____ _____    ______ ____
ROOT
ATOM      1  O   UNL     1       8.725   5.819  13.342  0.00  0.00    +0.000 OA
ATOM      2  C   UNL     1       7.699   5.177  13.534  0.00  0.00    +0.000 A 
ATOM      3  C   UNL     1       7.096   4.284  12.509  0.00  0.00    +0.000 A 
ATOM      4  C   UNL     1       5.976   3.587  12.790  0.00  0.00    +0.000 A 
ATOM      5  N   UNL     1       5.364   3.683  14.036  0.00  0.00    +0.000 N 
ATOM      6  C   UNL     1       5.833   4.508  15.008  0.00  0.00    +0.000 A 
ATOM      7  C   UNL     1       5.430   4.845  16.283  0.00  0.00    +0.000 A 
ATOM      8  C   UNL     1       6.434   5.747  16.720  0.00  0.00    +0.000 A 
ATOM      9  N   UNL     1       7.381   5.977  15.808  0.00  0.00    +0.000 NA
ATOM     10  N   UNL     1       6.992   5.223  14.748  0.00  0.00    +0.000 N 
ATOM     11  H   UNL     1       4.512   3.137  14.161  0.00  0.00    +0.000 HD
ENDROOT
BRANCH   7  12
ATOM     12  C   UNL     1       4.248   4.370  16.987  0.00  0.00    +0.000 A 
ATOM     13  C   UNL     1       3.312   5.291  17.483  0.00  0.00    +0.000 A 
ATOM     14  C   UNL     1       2.141   4.853  18.107  0.00  0.00    +0.000 A 
ATOM     15  C   UNL     1       1.895   3.491  18.255  0.00  0.00    +0.000 A 
ATOM     16  C   UNL     1       2.821   2.565  17.778  0.00  0.00    +0.000 A 
ATOM     17  C   UNL     1       3.983   3.001  17.137  0.00  0.00    +0.000 A 
ENDBRANCH   7  12
BRANCH   4  18
ATOM     18  C   UNL     1       5.358   2.660  11.766  0.00  0.00    +0.000 C 
ATOM     19 CL   UNL     1       3.899   3.397  11.065  0.00  0.00    +0.000 Cl
ENDBRANCH   4  18
TORSDOF 2
ENDMDL
MODEL 2
REMARK VINA RESULT:      -7.8      0.076      1.138
REMARK  Name = 
REMARK  2 active torsions:
REMARK  status: ('A' for Active; 'I' for Inactive)
REMARK    1  A    between atoms: C_4  and  C_5
REMARK    2  A    between atoms: C_9  and  C_10
REMARK                            x       y       z     vdW  Elec       q    Type
REMARK                         _______ _______ _______ _____ _____    ______ ____
ROOT
ATOM      1  O   UNL     1       8.736   5.810  13.327  0.00  0.00    +0.000 OA
ATOM      2  C   UNL     1       7.710   5.168  13.515  0.00  0.00    +0.000 A 
ATOM      3  C   UNL     1       7.114   4.269  12.491  0.00  0.00    +0.000 A 
ATOM      4  C   UNL     1       5.993   3.572  12.769  0.00  0.00    +0.000 A 
ATOM      5  N   UNL     1       5.374   3.673  14.011  0.00  0.00    +0.000 N 
ATOM      6  C   UNL     1       5.837   4.503  14.981  0.00  0.00    +0.000 A 
ATOM      7  C   UNL     1       5.425   4.845  16.253  0.00  0.00    +0.000 A 
ATOM      8  C   UNL     1       6.425   5.750  16.691  0.00  0.00    +0.000 A 
ATOM      9  N   UNL     1       7.378   5.978  15.783  0.00  0.00    +0.000 NA
ATOM     10  N   UNL     1       6.996   5.218  14.725  0.00  0.00    +0.000 N 
ATOM     11  H   UNL     1       4.523   3.125  14.134  0.00  0.00    +0.000 HD
ENDROOT
BRANCH   7  12
ATOM     12  C   UNL     1       4.241   4.371  16.952  0.00  0.00    +0.000 A 
ATOM     13  C   UNL     1       4.049   2.995  17.150  0.00  0.00    +0.000 A 
ATOM     14  C   UNL     1       2.950   2.523  17.874  0.00  0.00    +0.000 A 
ATOM     15  C   UNL     1       2.023   3.419  18.399  0.00  0.00    +0.000 A 
ATOM     16  C   UNL     1       2.195   4.788  18.202  0.00  0.00    +0.000 A 
ATOM     17  C   UNL     1       3.302   5.261  17.494  0.00  0.00    +0.000 A 
ENDBRANCH   7  12
BRANCH   4  18
ATOM     18  C   UNL     1       5.383   2.639  11.746  0.00  0.00    +0.000 C 
ATOM     19 CL   UNL     1       3.902   3.351  11.066  0.00  0.00    +0.000 Cl
ENDBRANCH   4  18
TORSDOF 2
ENDMDL
MODEL 3
REMARK VINA RESULT:      -7.2      4.395      6.851
REMARK  Name = 
REMARK  2 active torsions:
REMARK  status: ('A' for Active; 'I' for Inactive)
REMARK    1  A    between atoms: C_4  and  C_5
REMARK    2  A    between atoms: C_9  and  C_10
REMARK                            x       y       z     vdW  Elec       q    Type
REMARK                         _______ _______ _______ _____ _____    ______ ____
ROOT
ATOM      1  O   UNL     1       0.909   2.874  20.954  0.00  0.00    +0.000 OA
ATOM      2  C   UNL     1       1.574   3.699  20.341  0.00  0.00    +0.000 A 
ATOM      3  C   UNL     1       1.437   5.166  20.543  0.00  0.00    +0.000 A 
ATOM      4  C   UNL     1       2.216   6.023  19.851  0.00  0.00    +0.000 A 
ATOM      5  N   UNL     1       3.162   5.560  18.942  0.00  0.00    +0.000 N 
ATOM      6  C   UNL     1       3.317   4.237  18.674  0.00  0.00    +0.000 A 
ATOM      7  C   UNL     1       4.108   3.500  17.819  0.00  0.00    +0.000 A 
ATOM      8  C   UNL     1       3.753   2.158  18.114  0.00  0.00    +0.000 A 
ATOM      9  N   UNL     1       2.814   2.048  19.057  0.00  0.00    +0.000 NA
ATOM     10  N   UNL     1       2.538   3.336  19.384  0.00  0.00    +0.000 N 
ATOM     11  H   UNL     1       3.698   6.274  18.449  0.00  0.00    +0.000 HD
ENDROOT
BRANCH   7  12
ATOM     12  C   UNL     1       5.071   4.006  16.853  0.00  0.00    +0.000 A 
ATOM     13  C   UNL     1       6.332   4.444  17.286  0.00  0.00    +0.000 A 
ATOM     14  C   UNL     1       7.293   4.876  16.367  0.00  0.00    +0.000 A 
ATOM     15  C   UNL     1       7.003   4.886  15.006  0.00  0.00    +0.000 A 
ATOM     16  C   UNL     1       5.752   4.464  14.562  0.00  0.00    +0.000 A 
ATOM     17  C   UNL     1       4.797   4.016  15.478  0.00  0.00    +0.000 A 
ENDBRANCH   7  12
BRANCH   4  18
ATOM     18  C   UNL     1       2.103   7.518  20.057  0.00  0.00    +0.000 C 
ATOM     19 CL   UNL     1       2.066   8.357  18.489  0.00  0.00    +0.000 Cl
ENDBRANCH   4  18
TORSDOF 2
ENDMDL
MODEL 4
REMARK VINA RESULT:      -7.1      4.432      6.898
REMARK  Name = 
REMARK  2 active torsions:
REMARK  status: ('A' for Active; 'I' for Inactive)
REMARK    1  A    between atoms: C_4  and  C_5
REMARK    2  A    between atoms: C_9  and  C_10
REMARK                            x       y       z     vdW  Elec       q    Type
REMARK                         _______ _______ _______ _____ _____    ______ ____
ROOT
ATOM      1  O   UNL     1       0.849   2.866  21.015  0.00  0.00    +0.000 OA
ATOM      2  C   UNL     1       1.533   3.682  20.409  0.00  0.00    +0.000 A 
ATOM      3  C   UNL     1       1.396   5.151  20.589  0.00  0.00    +0.000 A 
ATOM      4  C   UNL     1       2.195   5.997  19.908  0.00  0.00    +0.000 A 
ATOM      5  N   UNL     1       3.164   5.519  19.030  0.00  0.00    +0.000 N 
ATOM      6  C   UNL     1       3.321   4.193  18.783  0.00  0.00    +0.000 A 
ATOM      7  C   UNL     1       4.132   3.443  17.958  0.00  0.00    +0.000 A 
ATOM      8  C   UNL     1       3.765   2.106  18.261  0.00  0.00    +0.000 A 
ATOM      9  N   UNL     1       2.802   2.010  19.180  0.00  0.00    +0.000 NA
ATOM     10  N   UNL     1       2.521   3.304  19.483  0.00  0.00    +0.000 N 
ATOM     11  H   UNL     1       3.715   6.225  18.543  0.00  0.00    +0.000 HD
ENDROOT
BRANCH   7  12
ATOM     12  C   UNL     1       5.122   3.934  17.012  0.00  0.00    +0.000 A 
ATOM     13  C   UNL     1       4.882   3.832  15.633  0.00  0.00    +0.000 A 
ATOM     14  C   UNL     1       5.792   4.353  14.709  0.00  0.00    +0.000 A 
ATOM     15  C   UNL     1       6.958   4.973  15.150  0.00  0.00    +0.000 A 
ATOM     16  C   UNL     1       7.215   5.072  16.515  0.00  0.00    +0.000 A 
ATOM     17  C   UNL     1       6.298   4.567  17.440  0.00  0.00    +0.000 A 
ENDBRANCH   7  12
BRANCH   4  18
ATOM     18  C   UNL     1       2.082   7.495  20.092  0.00  0.00    +0.000 C 
ATOM     19 CL   UNL     1       2.126   8.316  18.515  0.00  0.00    +0.000 Cl
ENDBRANCH   4  18
TORSDOF 2
ENDMDL
MODEL 5
REMARK VINA RESULT:      -7.1      4.239      5.866
REMARK  Name = 
REMARK  2 active torsions:
REMARK  status: ('A' for Active; 'I' for Inactive)
REMARK    1  A    between atoms: C_4  and  C_5
REMARK    2  A    between atoms: C_9  and  C_10
REMARK                            x       y       z     vdW  Elec       q    Type
REMARK                         _______ _______ _______ _____ _____    ______ ____
ROOT
ATOM      1  O   UNL     1       5.038   3.315  16.403  0.00  0.00    +0.000 OA
ATOM      2  C   UNL     1       4.094   3.754  17.049  0.00  0.00    +0.000 A 
ATOM      3  C   UNL     1       3.037   2.888  17.635  0.00  0.00    +0.000 A 
ATOM      4  C   UNL     1       2.035   3.432  18.356  0.00  0.00    +0.000 A 
ATOM      5  N   UNL     1       1.969   4.806  18.570  0.00  0.00    +0.000 N 
ATOM      6  C   UNL     1       2.875   5.663  18.034  0.00  0.00    +0.000 A 
ATOM      7  C   UNL     1       3.040   7.032  18.029  0.00  0.00    +0.000 A 
ATOM      8  C   UNL     1       4.239   7.218  17.293  0.00  0.00    +0.000 A 
ATOM      9  N   UNL     1       4.781   6.079  16.856  0.00  0.00    +0.000 NA
ATOM     10  N   UNL     1       3.923   5.126  17.303  0.00  0.00    +0.000 N 
ATOM     11  H   UNL     1       1.171   5.137  19.112  0.00  0.00    +0.000 HD
ENDROOT
BRANCH   7  12
ATOM     12  C   UNL     1       2.174   8.027  18.643  0.00  0.00    +0.000 A 
ATOM     13  C   UNL     1       1.559   9.006  17.848  0.00  0.00    +0.000 A 
ATOM     14  C   UNL     1       0.675   9.931  18.409  0.00  0.00    +0.000 A 
ATOM     15  C   UNL     1       0.402   9.897  19.774  0.00  0.00    +0.000 A 
ATOM     16  C   UNL     1       1.013   8.938  20.578  0.00  0.00    +0.000 A 
ATOM     17  C   UNL     1       1.883   8.001  20.015  0.00  0.00    +0.000 A 
ENDBRANCH   7  12
BRANCH   4  18
ATOM     18  C   UNL     1       0.960   2.565  18.974  0.00  0.00    +0.000 C 
ATOM     19 CL   UNL     1       1.020   2.675  20.748  0.00  0.00    +0.000 Cl
ENDBRANCH   4  18
TORSDOF 2
ENDMDL
MODEL 6
REMARK VINA RESULT:      -6.9      4.580      6.129
REMARK  Name = 
REMARK  2 active torsions:
REMARK  status: ('A' for Active; 'I' for Inactive)
REMARK    1  A    between atoms: C_4  and  C_5
REMARK    2  A    between atoms: C_9  and  C_10
REMARK                            x       y       z     vdW  Elec       q    Type
REMARK                         _______ _______ _______ _____ _____    ______ ____
ROOT
ATOM      1  O   UNL     1       4.916   2.633  19.786  0.00  0.00    +0.000 OA
ATOM      2  C   UNL     1       4.822   3.747  19.285  0.00  0.00    +0.000 A 
ATOM      3  C   UNL     1       5.805   4.285  18.307  0.00  0.00    +0.000 A 
ATOM      4  C   UNL     1       5.633   5.512  17.775  0.00  0.00    +0.000 A 
ATOM      5  N   UNL     1       4.538   6.298  18.123  0.00  0.00    +0.000 N 
ATOM      6  C   UNL     1       3.621   5.891  19.038  0.00  0.00    +0.000 A 
ATOM      7  C   UNL     1       2.494   6.448  19.605  0.00  0.00    +0.000 A 
ATOM      8  C   UNL     1       2.014   5.423  20.462  0.00  0.00    +0.000 A 
ATOM      9  N   UNL     1       2.769   4.322  20.454  0.00  0.00    +0.000 NA
ATOM     10  N   UNL     1       3.768   4.627  19.587  0.00  0.00    +0.000 N 
ATOM     11  H   UNL     1       4.491   7.219  17.688  0.00  0.00    +0.000 HD
ENDROOT
BRANCH   7  12
ATOM     12  C   UNL     1       1.949   7.775  19.363  0.00  0.00    +0.000 A 
ATOM     13  C   UNL     1       1.335   8.481  20.409  0.00  0.00    +0.000 A 
ATOM     14  C   UNL     1       0.861   9.781  20.213  0.00  0.00    +0.000 A 
ATOM     15  C   UNL     1       0.984  10.388  18.966  0.00  0.00    +0.000 A 
ATOM     16  C   UNL     1       1.581   9.696  17.915  0.00  0.00    +0.000 A 
ATOM     17  C   UNL     1       2.071   8.403  18.115  0.00  0.00    +0.000 A 
ENDBRANCH   7  12
BRANCH   4  18
ATOM     18  C   UNL     1       6.613   6.069  16.766  0.00  0.00    +0.000 C 
ATOM     19 CL   UNL     1       7.599   7.352  17.504  0.00  0.00    +0.000 Cl
ENDBRANCH   4  18
TORSDOF 2
ENDMDL
MODEL 7
REMARK VINA RESULT:      -6.9      1.918      2.533
REMARK  Name = 
REMARK  2 active torsions:
REMARK  status: ('A' for Active; 'I' for Inactive)
REMARK    1  A    between atoms: C_4  and  C_5
REMARK    2  A    between atoms: C_9  and  C_10
REMARK                            x       y       z     vdW  Elec       q    Type
REMARK                         _______ _______ _______ _____ _____    ______ ____
ROOT
ATOM      1  O   UNL     1       7.905   6.562  16.524  0.00  0.00    +0.000 OA
ATOM      2  C   UNL     1       6.941   5.826  16.352  0.00  0.00    +0.000 A 
ATOM      3  C   UNL     1       6.612   5.211  15.039  0.00  0.00    +0.000 A 
ATOM      4  C   UNL     1       5.548   4.392  14.919  0.00  0.00    +0.000 A 
ATOM      5  N   UNL     1       4.740   4.100  16.015  0.00  0.00    +0.000 N 
ATOM      6  C   UNL     1       4.954   4.655  17.236  0.00  0.00    +0.000 A 
ATOM      7  C   UNL     1       4.319   4.600  18.459  0.00  0.00    +0.000 A 
ATOM      8  C   UNL     1       5.133   5.411  19.291  0.00  0.00    +0.000 A 
ATOM      9  N   UNL     1       6.180   5.946  18.658  0.00  0.00    +0.000 NA
ATOM     10  N   UNL     1       6.051   5.489  17.386  0.00  0.00    +0.000 N 
ATOM     11  H   UNL     1       3.947   3.485  15.836  0.00  0.00    +0.000 HD
ENDROOT
BRANCH   7  12
ATOM     12  C   UNL     1       3.103   3.872  18.788  0.00  0.00    +0.000 A 
ATOM     13  C   UNL     1       2.160   4.443  19.656  0.00  0.00    +0.000 A 
ATOM     14  C   UNL     1       0.957   3.787  19.936  0.00  0.00    +0.000 A 
ATOM     15  C   UNL     1       0.687   2.549  19.361  0.00  0.00    +0.000 A 
ATOM     16  C   UNL     1       1.618   1.964  18.506  0.00  0.00    +0.000 A 
ATOM     17  C   UNL     1       2.813   2.627  18.212  0.00  0.00    +0.000 A 
ENDBRANCH   7  12
BRANCH   4  18
ATOM     18  C   UNL     1       5.208   3.744  13.595  0.00  0.00    +0.000 C 
ATOM     19 CL   UNL     1       6.616   3.778  12.510  0.00  0.00    +0.000 Cl
ENDBRANCH   4  18
TORSDOF 2
ENDMDL
MODEL 8
REMARK VINA RESULT:      -6.9      4.631      6.219
REMARK  Name = 
REMARK  2 active torsions:
REMARK  status: ('A' for Active; 'I' for Inactive)
REMARK    1  A    between atoms: C_4  and  C_5
REMARK    2  A    between atoms: C_9  and  C_10
REMARK                            x       y       z     vdW  Elec       q    Type
REMARK                         _______ _______ _______ _____ _____    ______ ____
ROOT
ATOM      1  O   UNL     1       4.872   2.613  19.746  0.00  0.00    +0.000 OA
ATOM      2  C   UNL     1       4.799   3.749  19.293  0.00  0.00    +0.000 A 
ATOM      3  C   UNL     1       5.805   4.318  18.356  0.00  0.00    +0.000 A 
ATOM      4  C   UNL     1       5.655   5.569  17.875  0.00  0.00    +0.000 A 
ATOM      5  N   UNL     1       4.563   6.351  18.239  0.00  0.00    +0.000 N 
ATOM      6  C   UNL     1       3.626   5.916  19.120  0.00  0.00    +0.000 A 
ATOM      7  C   UNL     1       2.495   6.460  19.692  0.00  0.00    +0.000 A 
ATOM      8  C   UNL     1       1.990   5.405  20.495  0.00  0.00    +0.000 A 
ATOM      9  N   UNL     1       2.733   4.297  20.452  0.00  0.00    +0.000 NA
ATOM     10  N   UNL     1       3.750   4.628  19.615  0.00  0.00    +0.000 N 
ATOM     11  H   UNL     1       4.533   7.291  17.844  0.00  0.00    +0.000 HD
ENDROOT
BRANCH   7  12
ATOM     12  C   UNL     1       1.970   7.803  19.499  0.00  0.00    +0.000 A 
ATOM     13  C   UNL     1       2.009   8.394  18.226  0.00  0.00    +0.000 A 
ATOM     14  C   UNL     1       1.453   9.657  18.007  0.00  0.00    +0.000 A 
ATOM     15  C   UNL     1       0.862  10.352  19.058  0.00  0.00    +0.000 A 
ATOM     16  C   UNL     1       0.825   9.783  20.329  0.00  0.00    +0.000 A 
ATOM     17  C   UNL     1       1.364   8.513  20.546  0.00  0.00    +0.000 A 
ENDBRANCH   7  12
BRANCH   4  18
ATOM     18  C   UNL     1       6.658   6.157  16.908  0.00  0.00    +0.000 C 
ATOM     19 CL   UNL     1       7.729   7.302  17.747  0.00  0.00    +0.000 Cl
ENDBRANCH   4  18
TORSDOF 2
ENDMDL
MODEL 9
REMARK VINA RESULT:      -6.9      1.897      2.739
REMARK  Name = 
REMARK  2 active torsions:
REMARK  status: ('A' for Active; 'I' for Inactive)
REMARK    1  A    between atoms: C_4  and  C_5
REMARK    2  A    between atoms: C_9  and  C_10
REMARK                            x       y       z     vdW  Elec       q    Type
REMARK                         _______ _______ _______ _____ _____    ______ ____
ROOT
ATOM      1  O   UNL     1       7.869   6.565  16.504  0.00  0.00    +0.000 OA
ATOM      2  C   UNL     1       6.905   5.831  16.324  0.00  0.00    +0.000 A 
ATOM      3  C   UNL     1       6.597   5.199  15.013  0.00  0.00    +0.000 A 
ATOM      4  C   UNL     1       5.532   4.382  14.886  0.00  0.00    +0.000 A 
ATOM      5  N   UNL     1       4.704   4.108  15.970  0.00  0.00    +0.000 N 
ATOM      6  C   UNL     1       4.898   4.679  17.187  0.00  0.00    +0.000 A 
ATOM      7  C   UNL     1       4.241   4.642  18.399  0.00  0.00    +0.000 A 
ATOM      8  C   UNL     1       5.043   5.462  19.235  0.00  0.00    +0.000 A 
ATOM      9  N   UNL     1       6.103   5.985  18.614  0.00  0.00    +0.000 NA
ATOM     10  N   UNL     1       5.995   5.510  17.346  0.00  0.00    +0.000 N 
ATOM     11  H   UNL     1       3.912   3.493  15.785  0.00  0.00    +0.000 HD
ENDROOT
BRANCH   7  12
ATOM     12  C   UNL     1       3.016   3.923  18.716  0.00  0.00    +0.000 A 
ATOM     13  C   UNL     1       2.806   2.636  18.197  0.00  0.00    +0.000 A 
ATOM     14  C   UNL     1       1.666   1.905  18.539  0.00  0.00    +0.000 A 
ATOM     15  C   UNL     1       0.715   2.453  19.395  0.00  0.00    +0.000 A 
ATOM     16  C   UNL     1       0.904   3.734  19.910  0.00  0.00    +0.000 A 
ATOM     17  C   UNL     1       2.053   4.459  19.582  0.00  0.00    +0.000 A 
ENDBRANCH   7  12
BRANCH   4  18
ATOM     18  C   UNL     1       5.214   3.717  13.565  0.00  0.00    +0.000 C 
ATOM     19 CL   UNL     1       6.620   3.793  12.479  0.00  0.00    +0.000 Cl
ENDBRANCH   4  18
TORSDOF 2
ENDMDL
