MODEL 1
REMARK VINA RESULT:      -8.3      0.000      0.000
REMARK  Name = 
REMARK  7 active torsions:
REMARK  status: ('A' for Active; 'I' for Inactive)
REMARK    1  A    between atoms: C_1  and  N_2
REMARK    2  A    between atoms: C_3  and  C_4
REMARK    3  A    between atoms: C_4  and  C_5
REMARK    4  A    between atoms: C_5  and  N_6
REMARK    5  A    between atoms: C_7  and  C_9
REMARK    6  A    between atoms: C_17  and  N_18
REMARK    7  A    between atoms: C_19  and  C_21
REMARK                            x       y       z     vdW  Elec       q    Type
REMARK                         _______ _______ _______ _____ _____    ______ ____
ROOT
ATOM      1  C   UNL     1      -0.273  12.076  18.770  0.00  0.00    +0.000 C 
ATOM      2  N   UNL     1      -0.018  11.117  19.818  0.00  0.00    +0.000 N 
ATOM      3  C   UNL     1      -0.442  11.155  21.130  0.00  0.00    +0.000 A 
ATOM      4  N   UNL     1      -0.018  10.089  21.781  0.00  0.00    +0.000 NA
ATOM      5  C   UNL     1       0.694   9.349  20.877  0.00  0.00    +0.000 A 
ATOM      6  C   UNL     1       1.347   8.123  21.055  0.00  0.00    +0.000 A 
ATOM      7  C   UNL     1       2.011   7.533  19.974  0.00  0.00    +0.000 A 
ATOM      8  C   UNL     1       2.035   8.189  18.734  0.00  0.00    +0.000 A 
ATOM      9  C   UNL     1       1.381   9.414  18.534  0.00  0.00    +0.000 A 
ATOM     10  C   UNL     1       0.717   9.966  19.636  0.00  0.00    +0.000 A 
ENDROOT
BRANCH   7  11
ATOM     11  N   UNL     1       2.657   6.278  20.060  0.00  0.00    +0.000 N 
ATOM     12  C   UNL     1       2.040   5.059  20.290  0.00  0.00    +0.000 C 
ATOM     13  O   UNL     1       0.844   4.904  20.523  0.00  0.00    +0.000 OA
ATOM     14  H   UNL     1       3.643   6.271  19.839  0.00  0.00    +0.000 HD
BRANCH  12  15
ATOM     15  C   UNL     1       2.995   3.856  20.236  0.00  0.00    +0.000 C 
ATOM     16  C   UNL     1       2.214   2.527  20.222  0.00  0.00    +0.000 C 
ATOM     17  C   UNL     1       1.502   2.262  18.890  0.00  0.00    +0.000 C 
ATOM     18  C   UNL     1       2.433   2.406  17.691  0.00  0.00    +0.000 C 
ATOM     19  C   UNL     1       3.208   3.721  17.715  0.00  0.00    +0.000 C 
ATOM     20  C   UNL     1       3.951   3.901  19.037  0.00  0.00    +0.000 C 
ENDBRANCH  12  15
ENDBRANCH   7  11
BRANCH   3  21
ATOM     21  C   UNL     1      -1.290  12.228  21.734  0.00  0.00    +0.000 C 
BRANCH  21  22
ATOM     22  C   UNL     1      -1.940  11.768  23.047  0.00  0.00    +0.000 C 
BRANCH  22  23
ATOM     23  N   UNL     1      -3.356  12.082  23.127  0.00  0.00    +0.000 N 
ATOM     24  C   UNL     1      -3.819  13.293  23.604  0.00  0.00    +0.000 C 
ATOM     25  O   UNL     1      -3.062  14.219  23.884  0.00  0.00    +0.000 OA
ATOM     26  H   UNL     1      -4.039  11.343  23.005  0.00  0.00    +0.000 HD
BRANCH  24  27
ATOM     27  C   UNL     1      -5.257  13.383  23.733  0.00  0.00    +0.000 A 
ATOM     28  C   UNL     1      -6.079  14.491  23.833  0.00  0.00    +0.000 A 
ATOM     29  C   UNL     1      -7.404  14.009  23.943  0.00  0.00    +0.000 A 
ATOM     30  C   UNL     1      -7.315  12.637  23.908  0.00  0.00    +0.000 A 
ATOM     31  O   UNL     1      -6.019  12.244  23.772  0.00  0.00    +0.000 OA
ENDBRANCH  24  27
ENDBRANCH  22  23
ENDBRANCH  21  22
ENDBRANCH   3  21
TORSDOF 6
ENDMDL
MODEL 2
REMARK VINA RESULT:      -8.0      3.883     10.645
REMARK  Name = 
REMARK  7 active torsions:
REMARK  status: ('A' for Active; 'I' for Inactive)
REMARK    1  A    between atoms: C_1  and  N_2
REMARK    2  A    between atoms: C_3  and  C_4
REMARK    3  A    between atoms: C_4  and  C_5
REMARK    4  A    between atoms: C_5  and  N_6
REMARK    5  A    between atoms: C_7  and  C_9
REMARK    6  A    between atoms: C_17  and  N_18
REMARK    7  A    between atoms: C_19  and  C_21
REMARK                            x       y       z     vdW  Elec       q    Type
REMARK                         _______ _______ _______ _____ _____    ______ ____
ROOT
ATOM      1  C   UNL     1       1.674   3.518  20.953  0.00  0.00    +0.000 C 
ATOM      2  N   UNL     1       1.899   4.399  19.832  0.00  0.00    +0.000 N 
ATOM      3  C   UNL     1       2.222   4.062  18.534  0.00  0.00    +0.000 A 
ATOM      4  N   UNL     1       2.333   5.146  17.791  0.00  0.00    +0.000 NA
ATOM      5  C   UNL     1       2.079   6.203  18.622  0.00  0.00    +0.000 A 
ATOM      6  C   UNL     1       2.060   7.573  18.331  0.00  0.00    +0.000 A 
ATOM      7  C   UNL     1       1.760   8.489  19.345  0.00  0.00    +0.000 A 
ATOM      8  C   UNL     1       1.506   8.024  20.644  0.00  0.00    +0.000 A 
ATOM      9  C   UNL     1       1.514   6.656  20.955  0.00  0.00    +0.000 A 
ATOM     10  C   UNL     1       1.806   5.771  19.911  0.00  0.00    +0.000 A 
ENDROOT
BRANCH   7  11
ATOM     11  N   UNL     1       1.679   9.883  19.123  0.00  0.00    +0.000 N 
ATOM     12  C   UNL     1       0.560  10.573  18.685  0.00  0.00    +0.000 C 
ATOM     13  O   UNL     1      -0.506  10.058  18.357  0.00  0.00    +0.000 OA
ATOM     14  H   UNL     1       2.484  10.424  19.404  0.00  0.00    +0.000 HD
BRANCH  12  15
ATOM     15  C   UNL     1       0.750  12.098  18.629  0.00  0.00    +0.000 C 
ATOM     16  C   UNL     1      -0.593  12.816  18.392  0.00  0.00    +0.000 C 
ATOM     17  C   UNL     1      -1.515  12.786  19.618  0.00  0.00    +0.000 C 
ATOM     18  C   UNL     1      -0.813  13.258  20.888  0.00  0.00    +0.000 C 
ATOM     19  C   UNL     1       0.518  12.547  21.111  0.00  0.00    +0.000 C 
ATOM     20  C   UNL     1       1.422  12.666  19.886  0.00  0.00    +0.000 C 
ENDBRANCH  12  15
ENDBRANCH   7  11
BRANCH   3  21
ATOM     21  C   UNL     1       2.391   2.668  18.020  0.00  0.00    +0.000 C 
BRANCH  21  22
ATOM     22  C   UNL     1       3.870   2.323  17.788  0.00  0.00    +0.000 C 
BRANCH  22  23
ATOM     23  N   UNL     1       4.775   3.391  18.171  0.00  0.00    +0.000 N 
ATOM     24  C   UNL     1       5.496   4.117  17.242  0.00  0.00    +0.000 C 
ATOM     25  O   UNL     1       5.331   3.980  16.033  0.00  0.00    +0.000 OA
ATOM     26  H   UNL     1       5.035   3.502  19.144  0.00  0.00    +0.000 HD
BRANCH  24  27
ATOM     27  C   UNL     1       6.443   5.054  17.808  0.00  0.00    +0.000 A 
ATOM     28  C   UNL     1       6.916   6.256  17.316  0.00  0.00    +0.000 A 
ATOM     29  C   UNL     1       7.829   6.759  18.271  0.00  0.00    +0.000 A 
ATOM     30  C   UNL     1       7.863   5.835  19.288  0.00  0.00    +0.000 A 
ATOM     31  O   UNL     1       7.021   4.799  19.025  0.00  0.00    +0.000 OA
ENDBRANCH  24  27
ENDBRANCH  22  23
ENDBRANCH  21  22
ENDBRANCH   3  21
TORSDOF 6
ENDMDL
MODEL 3
REMARK VINA RESULT:      -7.9      3.764     10.475
REMARK  Name = 
REMARK  7 active torsions:
REMARK  status: ('A' for Active; 'I' for Inactive)
REMARK    1  A    between atoms: C_1  and  N_2
REMARK    2  A    between atoms: C_3  and  C_4
REMARK    3  A    between atoms: C_4  and  C_5
REMARK    4  A    between atoms: C_5  and  N_6
REMARK    5  A    between atoms: C_7  and  C_9
REMARK    6  A    between atoms: C_17  and  N_18
REMARK    7  A    between atoms: C_19  and  C_21
REMARK                            x       y       z     vdW  Elec       q    Type
REMARK                         _______ _______ _______ _____ _____    ______ ____
ROOT
ATOM      1  C   UNL     1       1.947   3.595  20.763  0.00  0.00    +0.000 C 
ATOM      2  N   UNL     1       2.082   4.510  19.655  0.00  0.00    +0.000 N 
ATOM      3  C   UNL     1       2.349   4.215  18.334  0.00  0.00    +0.000 A 
ATOM      4  N   UNL     1       2.383   5.321  17.615  0.00  0.00    +0.000 NA
ATOM      5  C   UNL     1       2.137   6.348  18.484  0.00  0.00    +0.000 A 
ATOM      6  C   UNL     1       2.055   7.723  18.229  0.00  0.00    +0.000 A 
ATOM      7  C   UNL     1       1.775   8.603  19.281  0.00  0.00    +0.000 A 
ATOM      8  C   UNL     1       1.606   8.099  20.579  0.00  0.00    +0.000 A 
ATOM      9  C   UNL     1       1.678   6.724  20.853  0.00  0.00    +0.000 A 
ATOM     10  C   UNL     1       1.946   5.876  19.774  0.00  0.00    +0.000 A 
ENDROOT
BRANCH   7  11
ATOM     11  N   UNL     1       1.635   9.998  19.099  0.00  0.00    +0.000 N 
ATOM     12  C   UNL     1       0.485  10.653  18.687  0.00  0.00    +0.000 C 
ATOM     13  O   UNL     1      -0.560  10.103  18.349  0.00  0.00    +0.000 OA
ATOM     14  H   UNL     1       2.419  10.565  19.391  0.00  0.00    +0.000 HD
BRANCH  12  15
ATOM     15  C   UNL     1       0.611  12.185  18.673  0.00  0.00    +0.000 C 
ATOM     16  C   UNL     1      -0.760  12.852  18.443  0.00  0.00    +0.000 C 
ATOM     17  C   UNL     1      -1.690  12.750  19.658  0.00  0.00    +0.000 C 
ATOM     18  C   UNL     1      -1.020  13.216  20.947  0.00  0.00    +0.000 C 
ATOM     19  C   UNL     1       0.339  12.557  21.164  0.00  0.00    +0.000 C 
ATOM     20  C   UNL     1       1.247  12.747  19.951  0.00  0.00    +0.000 C 
ENDBRANCH  12  15
ENDBRANCH   7  11
BRANCH   3  21
ATOM     21  C   UNL     1       2.540   2.841  17.776  0.00  0.00    +0.000 C 
BRANCH  21  22
ATOM     22  C   UNL     1       4.023   2.447  17.730  0.00  0.00    +0.000 C 
BRANCH  22  23
ATOM     23  N   UNL     1       4.914   3.582  17.561  0.00  0.00    +0.000 N 
ATOM     24  C   UNL     1       5.582   4.161  18.622  0.00  0.00    +0.000 C 
ATOM     25  O   UNL     1       5.553   3.685  19.754  0.00  0.00    +0.000 OA
ATOM     26  H   UNL     1       4.918   4.087  16.682  0.00  0.00    +0.000 HD
BRANCH  24  27
ATOM     27  C   UNL     1       6.324   5.358  18.289  0.00  0.00    +0.000 A 
ATOM     28  C   UNL     1       7.547   5.811  18.750  0.00  0.00    +0.000 A 
ATOM     29  C   UNL     1       7.799   7.040  18.100  0.00  0.00    +0.000 A 
ATOM     30  C   UNL     1       6.718   7.269  17.283  0.00  0.00    +0.000 A 
ATOM     31  O   UNL     1       5.819   6.253  17.381  0.00  0.00    +0.000 OA
ENDBRANCH  24  27
ENDBRANCH  22  23
ENDBRANCH  21  22
ENDBRANCH   3  21
TORSDOF 6
ENDMDL
MODEL 4
REMARK VINA RESULT:      -7.8      3.739     11.512
REMARK  Name = 
REMARK  7 active torsions:
REMARK  status: ('A' for Active; 'I' for Inactive)
REMARK    1  A    between atoms: C_1  and  N_2
REMARK    2  A    between atoms: C_3  and  C_4
REMARK    3  A    between atoms: C_4  and  C_5
REMARK    4  A    between atoms: C_5  and  N_6
REMARK    5  A    between atoms: C_7  and  C_9
REMARK    6  A    between atoms: C_17  and  N_18
REMARK    7  A    between atoms: C_19  and  C_21
REMARK                            x       y       z     vdW  Elec       q    Type
REMARK                         _______ _______ _______ _____ _____    ______ ____
ROOT
ATOM      1  C   UNL     1       2.684   4.352  20.760  0.00  0.00    +0.000 C 
ATOM      2  N   UNL     1       2.778   5.325  19.698  0.00  0.00    +0.000 N 
ATOM      3  C   UNL     1       3.365   5.180  18.458  0.00  0.00    +0.000 A 
ATOM      4  N   UNL     1       3.237   6.290  17.757  0.00  0.00    +0.000 NA
ATOM      5  C   UNL     1       2.558   7.169  18.556  0.00  0.00    +0.000 A 
ATOM      6  C   UNL     1       2.157   8.483  18.285  0.00  0.00    +0.000 A 
ATOM      7  C   UNL     1       1.452   9.202  19.256  0.00  0.00    +0.000 A 
ATOM      8  C   UNL     1       1.178   8.606  20.496  0.00  0.00    +0.000 A 
ATOM      9  C   UNL     1       1.565   7.288  20.784  0.00  0.00    +0.000 A 
ATOM     10  C   UNL     1       2.257   6.598  19.783  0.00  0.00    +0.000 A 
ENDROOT
BRANCH   7  11
ATOM     11  N   UNL     1       0.977  10.517  19.045  0.00  0.00    +0.000 N 
ATOM     12  C   UNL     1      -0.351  10.889  18.906  0.00  0.00    +0.000 C 
ATOM     13  O   UNL     1      -1.303  10.114  18.874  0.00  0.00    +0.000 OA
ATOM     14  H   UNL     1       1.667  11.253  19.099  0.00  0.00    +0.000 HD
BRANCH  12  15
ATOM     15  C   UNL     1      -0.564  12.407  18.782  0.00  0.00    +0.000 C 
ATOM     16  C   UNL     1      -1.871  12.842  19.472  0.00  0.00    +0.000 C 
ATOM     17  C   UNL     1      -1.790  12.787  21.003  0.00  0.00    +0.000 C 
ATOM     18  C   UNL     1      -0.567  13.517  21.550  0.00  0.00    +0.000 C 
ATOM     19  C   UNL     1       0.722  13.086  20.857  0.00  0.00    +0.000 C 
ATOM     20  C   UNL     1       0.608  13.225  19.340  0.00  0.00    +0.000 C 
ENDBRANCH  12  15
ENDBRANCH   7  11
BRANCH   3  21
ATOM     21  C   UNL     1       4.026   3.937  17.955  0.00  0.00    +0.000 C 
BRANCH  21  22
ATOM     22  C   UNL     1       5.527   4.148  17.713  0.00  0.00    +0.000 C 
BRANCH  22  23
ATOM     23  N   UNL     1       5.923   3.930  16.333  0.00  0.00    +0.000 N 
ATOM     24  C   UNL     1       6.441   4.939  15.544  0.00  0.00    +0.000 C 
ATOM     25  O   UNL     1       6.704   6.052  15.993  0.00  0.00    +0.000 OA
ATOM     26  H   UNL     1       5.652   3.073  15.864  0.00  0.00    +0.000 HD
BRANCH  24  27
ATOM     27  C   UNL     1       6.659   4.575  14.161  0.00  0.00    +0.000 A 
ATOM     28  C   UNL     1       7.552   5.079  13.233  0.00  0.00    +0.000 A 
ATOM     29  C   UNL     1       7.337   4.367  12.030  0.00  0.00    +0.000 A 
ATOM     30  C   UNL     1       6.325   3.474  12.291  0.00  0.00    +0.000 A 
ATOM     31  O   UNL     1       5.910   3.584  13.582  0.00  0.00    +0.000 OA
ENDBRANCH  24  27
ENDBRANCH  22  23
ENDBRANCH  21  22
ENDBRANCH   3  21
TORSDOF 6
ENDMDL
MODEL 5
REMARK VINA RESULT:      -7.8      1.238      1.505
REMARK  Name = 
REMARK  7 active torsions:
REMARK  status: ('A' for Active; 'I' for Inactive)
REMARK    1  A    between atoms: C_1  and  N_2
REMARK    2  A    between atoms: C_3  and  C_4
REMARK    3  A    between atoms: C_4  and  C_5
REMARK    4  A    between atoms: C_5  and  N_6
REMARK    5  A    between atoms: C_7  and  C_9
REMARK    6  A    between atoms: C_17  and  N_18
REMARK    7  A    between atoms: C_19  and  C_21
REMARK                            x       y       z     vdW  Elec       q    Type
REMARK                         _______ _______ _______ _____ _____    ______ ____
ROOT
ATOM      1  C   UNL     1      -0.522  11.826  18.392  0.00  0.00    +0.000 C 
ATOM      2  N   UNL     1      -0.207  10.955  19.498  0.00  0.00    +0.000 N 
ATOM      3  C   UNL     1      -0.641  11.043  20.805  0.00  0.00    +0.000 A 
ATOM      4  N   UNL     1      -0.147  10.053  21.522  0.00  0.00    +0.000 NA
ATOM      5  C   UNL     1       0.622   9.311  20.667  0.00  0.00    +0.000 A 
ATOM      6  C   UNL     1       1.360   8.148  20.922  0.00  0.00    +0.000 A 
ATOM      7  C   UNL     1       2.071   7.541  19.882  0.00  0.00    +0.000 A 
ATOM      8  C   UNL     1       2.056   8.119  18.604  0.00  0.00    +0.000 A 
ATOM      9  C   UNL     1       1.318   9.280  18.326  0.00  0.00    +0.000 A 
ATOM     10  C   UNL     1       0.610   9.850  19.389  0.00  0.00    +0.000 A 
ENDROOT
BRANCH   7  11
ATOM     11  N   UNL     1       2.804   6.344  20.048  0.00  0.00    +0.000 N 
ATOM     12  C   UNL     1       2.274   5.063  20.084  0.00  0.00    +0.000 C 
ATOM     13  O   UNL     1       1.077   4.792  20.048  0.00  0.00    +0.000 OA
ATOM     14  H   UNL     1       3.811   6.435  20.043  0.00  0.00    +0.000 HD
BRANCH  12  15
ATOM     15  C   UNL     1       3.333   3.953  20.181  0.00  0.00    +0.000 C 
ATOM     16  C   UNL     1       2.675   2.578  20.412  0.00  0.00    +0.000 C 
ATOM     17  C   UNL     1       1.953   2.042  19.170  0.00  0.00    +0.000 C 
ATOM     18  C   UNL     1       2.834   2.069  17.924  0.00  0.00    +0.000 C 
ATOM     19  C   UNL     1       3.487   3.430  17.707  0.00  0.00    +0.000 C 
ATOM     20  C   UNL     1       4.247   3.885  18.951  0.00  0.00    +0.000 C 
ENDBRANCH  12  15
ENDBRANCH   7  11
BRANCH   3  21
ATOM     21  C   UNL     1      -1.568  12.089  21.338  0.00  0.00    +0.000 C 
BRANCH  21  22
ATOM     22  C   UNL     1      -1.551  12.134  22.873  0.00  0.00    +0.000 C 
BRANCH  22  23
ATOM     23  N   UNL     1      -2.201  13.312  23.419  0.00  0.00    +0.000 N 
ATOM     24  C   UNL     1      -3.546  13.335  23.733  0.00  0.00    +0.000 C 
ATOM     25  O   UNL     1      -4.250  12.329  23.675  0.00  0.00    +0.000 OA
ATOM     26  H   UNL     1      -1.716  14.202  23.408  0.00  0.00    +0.000 HD
BRANCH  24  27
ATOM     27  C   UNL     1      -4.050  14.627  24.145  0.00  0.00    +0.000 A 
ATOM     28  C   UNL     1      -3.445  15.632  24.878  0.00  0.00    +0.000 A 
ATOM     29  C   UNL     1      -4.389  16.677  24.997  0.00  0.00    +0.000 A 
ATOM     30  C   UNL     1      -5.515  16.251  24.333  0.00  0.00    +0.000 A 
ATOM     31  O   UNL     1      -5.321  15.013  23.805  0.00  0.00    +0.000 OA
ENDBRANCH  24  27
ENDBRANCH  22  23
ENDBRANCH  21  22
ENDBRANCH   3  21
TORSDOF 6
ENDMDL
MODEL 6
REMARK VINA RESULT:      -7.8      3.433     10.708
REMARK  Name = 
REMARK  7 active torsions:
REMARK  status: ('A' for Active; 'I' for Inactive)
REMARK    1  A    between atoms: C_1  and  N_2
REMARK    2  A    between atoms: C_3  and  C_4
REMARK    3  A    between atoms: C_4  and  C_5
REMARK    4  A    between atoms: C_5  and  N_6
REMARK    5  A    between atoms: C_7  and  C_9
REMARK    6  A    between atoms: C_17  and  N_18
REMARK    7  A    between atoms: C_19  and  C_21
REMARK                            x       y       z     vdW  Elec       q    Type
REMARK                         _______ _______ _______ _____ _____    ______ ____
ROOT
ATOM      1  C   UNL     1       2.206   3.255  19.907  0.00  0.00    +0.000 C 
ATOM      2  N   UNL     1       2.455   4.460  19.153  0.00  0.00    +0.000 N 
ATOM      3  C   UNL     1       3.040   4.581  17.909  0.00  0.00    +0.000 A 
ATOM      4  N   UNL     1       3.082   5.848  17.543  0.00  0.00    +0.000 NA
ATOM      5  C   UNL     1       2.518   6.559  18.567  0.00  0.00    +0.000 A 
ATOM      6  C   UNL     1       2.311   7.940  18.678  0.00  0.00    +0.000 A 
ATOM      7  C   UNL     1       1.695   8.454  19.824  0.00  0.00    +0.000 A 
ATOM      8  C   UNL     1       1.316   7.584  20.856  0.00  0.00    +0.000 A 
ATOM      9  C   UNL     1       1.509   6.197  20.762  0.00  0.00    +0.000 A 
ATOM     10  C   UNL     1       2.116   5.720  19.595  0.00  0.00    +0.000 A 
ENDROOT
BRANCH   7  11
ATOM     11  N   UNL     1       1.413   9.829  19.993  0.00  0.00    +0.000 N 
ATOM     12  C   UNL     1       0.330  10.509  19.459  0.00  0.00    +0.000 C 
ATOM     13  O   UNL     1      -0.504  10.025  18.698  0.00  0.00    +0.000 OA
ATOM     14  H   UNL     1       2.007  10.328  20.641  0.00  0.00    +0.000 HD
BRANCH  12  15
ATOM     15  C   UNL     1       0.239  11.980  19.896  0.00  0.00    +0.000 C 
ATOM     16  C   UNL     1      -0.936  12.695  19.200  0.00  0.00    +0.000 C 
ATOM     17  C   UNL     1      -2.306  12.255  19.731  0.00  0.00    +0.000 C 
ATOM     18  C   UNL     1      -2.394  12.328  21.253  0.00  0.00    +0.000 C 
ATOM     19  C   UNL     1      -1.224  11.625  21.934  0.00  0.00    +0.000 C 
ATOM     20  C   UNL     1       0.115  12.148  21.416  0.00  0.00    +0.000 C 
ENDBRANCH  12  15
ENDBRANCH   7  11
BRANCH   3  21
ATOM     21  C   UNL     1       3.529   3.445  17.069  0.00  0.00    +0.000 C 
BRANCH  21  22
ATOM     22  C   UNL     1       5.063   3.375  17.044  0.00  0.00    +0.000 C 
BRANCH  22  23
ATOM     23  N   UNL     1       5.701   4.602  17.486  0.00  0.00    +0.000 N 
ATOM     24  C   UNL     1       6.656   5.252  16.729  0.00  0.00    +0.000 C 
ATOM     25  O   UNL     1       6.942   4.896  15.589  0.00  0.00    +0.000 OA
ATOM     26  H   UNL     1       5.590   4.906  18.447  0.00  0.00    +0.000 HD
BRANCH  24  27
ATOM     27  C   UNL     1       7.276   6.387  17.380  0.00  0.00    +0.000 A 
ATOM     28  C   UNL     1       7.873   6.489  18.623  0.00  0.00    +0.000 A 
ATOM     29  C   UNL     1       8.307   7.827  18.759  0.00  0.00    +0.000 A 
ATOM     30  C   UNL     1       7.949   8.465  17.596  0.00  0.00    +0.000 A 
ATOM     31  O   UNL     1       7.329   7.601  16.747  0.00  0.00    +0.000 OA
ENDBRANCH  24  27
ENDBRANCH  22  23
ENDBRANCH  21  22
ENDBRANCH   3  21
TORSDOF 6
ENDMDL
MODEL 7
REMARK VINA RESULT:      -7.7      3.181      4.661
REMARK  Name = 
REMARK  7 active torsions:
REMARK  status: ('A' for Active; 'I' for Inactive)
REMARK    1  A    between atoms: C_1  and  N_2
REMARK    2  A    between atoms: C_3  and  C_4
REMARK    3  A    between atoms: C_4  and  C_5
REMARK    4  A    between atoms: C_5  and  N_6
REMARK    5  A    between atoms: C_7  and  C_9
REMARK    6  A    between atoms: C_17  and  N_18
REMARK    7  A    between atoms: C_19  and  C_21
REMARK                            x       y       z     vdW  Elec       q    Type
REMARK                         _______ _______ _______ _____ _____    ______ ____
ROOT
ATOM      1  C   UNL     1      -0.504  11.838  18.550  0.00  0.00    +0.000 C 
ATOM      2  N   UNL     1      -0.104  10.940  19.607  0.00  0.00    +0.000 N 
ATOM      3  C   UNL     1      -0.412  11.011  20.949  0.00  0.00    +0.000 A 
ATOM      4  N   UNL     1       0.128   9.998  21.599  0.00  0.00    +0.000 NA
ATOM      5  C   UNL     1       0.799   9.259  20.663  0.00  0.00    +0.000 A 
ATOM      6  C   UNL     1       1.534   8.078  20.827  0.00  0.00    +0.000 A 
ATOM      7  C   UNL     1       2.133   7.479  19.713  0.00  0.00    +0.000 A 
ATOM      8  C   UNL     1       2.009   8.082  18.453  0.00  0.00    +0.000 A 
ATOM      9  C   UNL     1       1.271   9.262  18.266  0.00  0.00    +0.000 A 
ATOM     10  C   UNL     1       0.677   9.823  19.402  0.00  0.00    +0.000 A 
ENDROOT
BRANCH   7  11
ATOM     11  N   UNL     1       2.854   6.266  19.788  0.00  0.00    +0.000 N 
ATOM     12  C   UNL     1       2.328   5.024  20.107  0.00  0.00    +0.000 C 
ATOM     13  O   UNL     1       1.166   4.814  20.443  0.00  0.00    +0.000 OA
ATOM     14  H   UNL     1       3.818   6.304  19.487  0.00  0.00    +0.000 HD
BRANCH  12  15
ATOM     15  C   UNL     1       3.344   3.874  20.015  0.00  0.00    +0.000 C 
ATOM     16  C   UNL     1       2.652   2.508  20.188  0.00  0.00    +0.000 C 
ATOM     17  C   UNL     1       1.802   2.107  18.975  0.00  0.00    +0.000 C 
ATOM     18  C   UNL     1       2.572   2.213  17.662  0.00  0.00    +0.000 C 
ATOM     19  C   UNL     1       3.260   3.565  17.502  0.00  0.00    +0.000 C 
ATOM     20  C   UNL     1       4.144   3.883  18.706  0.00  0.00    +0.000 C 
ENDBRANCH  12  15
ENDBRANCH   7  11
BRANCH   3  21
ATOM     21  C   UNL     1      -1.264  12.061  21.586  0.00  0.00    +0.000 C 
BRANCH  21  22
ATOM     22  C   UNL     1      -0.420  13.212  22.153  0.00  0.00    +0.000 C 
BRANCH  22  23
ATOM     23  N   UNL     1       0.104  14.098  21.129  0.00  0.00    +0.000 N 
ATOM     24  C   UNL     1       1.436  14.098  20.763  0.00  0.00    +0.000 C 
ATOM     25  O   UNL     1       2.235  13.274  21.199  0.00  0.00    +0.000 OA
ATOM     26  H   UNL     1      -0.466  14.866  20.792  0.00  0.00    +0.000 HD
BRANCH  24  27
ATOM     27  C   UNL     1       1.805  15.133  19.820  0.00  0.00    +0.000 A 
ATOM     28  C   UNL     1       1.107  16.250  19.399  0.00  0.00    +0.000 A 
ATOM     29  C   UNL     1       1.930  16.918  18.464  0.00  0.00    +0.000 A 
ATOM     30  C   UNL     1       3.079  16.170  18.365  0.00  0.00    +0.000 A 
ATOM     31  O   UNL     1       3.020  15.088  19.188  0.00  0.00    +0.000 OA
ENDBRANCH  24  27
ENDBRANCH  22  23
ENDBRANCH  21  22
ENDBRANCH   3  21
TORSDOF 6
ENDMDL
MODEL 8
REMARK VINA RESULT:      -7.7      1.116      1.637
REMARK  Name = 
REMARK  7 active torsions:
REMARK  status: ('A' for Active; 'I' for Inactive)
REMARK    1  A    between atoms: C_1  and  N_2
REMARK    2  A    between atoms: C_3  and  C_4
REMARK    3  A    between atoms: C_4  and  C_5
REMARK    4  A    between atoms: C_5  and  N_6
REMARK    5  A    between atoms: C_7  and  C_9
REMARK    6  A    between atoms: C_17  and  N_18
REMARK    7  A    between atoms: C_19  and  C_21
REMARK                            x       y       z     vdW  Elec       q    Type
REMARK                         _______ _______ _______ _____ _____    ______ ____
ROOT
ATOM      1  C   UNL     1      -0.150  12.161  18.497  0.00  0.00    +0.000 C 
ATOM      2  N   UNL     1       0.147  11.157  19.491  0.00  0.00    +0.000 N 
ATOM      3  C   UNL     1      -0.232  11.132  20.817  0.00  0.00    +0.000 A 
ATOM      4  N   UNL     1       0.221  10.042  21.404  0.00  0.00    +0.000 NA
ATOM      5  C   UNL     1       0.906   9.349  20.443  0.00  0.00    +0.000 A 
ATOM      6  C   UNL     1       1.573   8.122  20.543  0.00  0.00    +0.000 A 
ATOM      7  C   UNL     1       2.204   7.587  19.414  0.00  0.00    +0.000 A 
ATOM      8  C   UNL     1       2.180   8.298  18.206  0.00  0.00    +0.000 A 
ATOM      9  C   UNL     1       1.512   9.527  18.084  0.00  0.00    +0.000 A 
ATOM     10  C   UNL     1       0.883  10.022  19.231  0.00  0.00    +0.000 A 
ENDROOT
BRANCH   7  11
ATOM     11  N   UNL     1       2.861   6.335  19.422  0.00  0.00    +0.000 N 
ATOM     12  C   UNL     1       2.600   5.274  18.569  0.00  0.00    +0.000 C 
ATOM     13  O   UNL     1       1.707   5.246  17.727  0.00  0.00    +0.000 OA
ATOM     14  H   UNL     1       3.652   6.253  20.045  0.00  0.00    +0.000 HD
BRANCH  12  15
ATOM     15  C   UNL     1       3.544   4.076  18.758  0.00  0.00    +0.000 C 
ATOM     16  C   UNL     1       3.787   3.345  17.423  0.00  0.00    +0.000 C 
ATOM     17  C   UNL     1       4.679   4.137  16.457  0.00  0.00    +0.000 C 
ATOM     18  C   UNL     1       5.974   4.608  17.112  0.00  0.00    +0.000 C 
ATOM     19  C   UNL     1       5.725   5.324  18.436  0.00  0.00    +0.000 C 
ATOM     20  C   UNL     1       4.891   4.464  19.383  0.00  0.00    +0.000 C 
ENDBRANCH  12  15
ENDBRANCH   7  11
BRANCH   3  21
ATOM     21  C   UNL     1      -1.067  12.170  21.497  0.00  0.00    +0.000 C 
BRANCH  21  22
ATOM     22  C   UNL     1      -1.742  11.619  22.762  0.00  0.00    +0.000 C 
BRANCH  22  23
ATOM     23  N   UNL     1      -3.127  12.030  22.899  0.00  0.00    +0.000 N 
ATOM     24  C   UNL     1      -3.500  13.135  23.640  0.00  0.00    +0.000 C 
ATOM     25  O   UNL     1      -2.676  13.900  24.135  0.00  0.00    +0.000 OA
ATOM     26  H   UNL     1      -3.867  11.404  22.602  0.00  0.00    +0.000 HD
BRANCH  24  27
ATOM     27  C   UNL     1      -4.929  13.322  23.772  0.00  0.00    +0.000 A 
ATOM     28  C   UNL     1      -5.692  14.473  23.698  0.00  0.00    +0.000 A 
ATOM     29  C   UNL     1      -7.036  14.086  23.907  0.00  0.00    +0.000 A 
ATOM     30  C   UNL     1      -7.016  12.725  24.099  0.00  0.00    +0.000 A 
ATOM     31  O   UNL     1      -5.745  12.247  24.012  0.00  0.00    +0.000 OA
ENDBRANCH  24  27
ENDBRANCH  22  23
ENDBRANCH  21  22
ENDBRANCH   3  21
TORSDOF 6
ENDMDL
MODEL 9
REMARK VINA RESULT:      -7.7      4.062     11.594
REMARK  Name = 
REMARK  7 active torsions:
REMARK  status: ('A' for Active; 'I' for Inactive)
REMARK    1  A    between atoms: C_1  and  N_2
REMARK    2  A    between atoms: C_3  and  C_4
REMARK    3  A    between atoms: C_4  and  C_5
REMARK    4  A    between atoms: C_5  and  N_6
REMARK    5  A    between atoms: C_7  and  C_9
REMARK    6  A    between atoms: C_17  and  N_18
REMARK    7  A    between atoms: C_19  and  C_21
REMARK                            x       y       z     vdW  Elec       q    Type
REMARK                         _______ _______ _______ _____ _____    ______ ____
ROOT
ATOM      1  C   UNL     1       2.407   5.071  20.956  0.00  0.00    +0.000 C 
ATOM      2  N   UNL     1       2.472   5.978  19.835  0.00  0.00    +0.000 N 
ATOM      3  C   UNL     1       3.027   5.759  18.591  0.00  0.00    +0.000 A 
ATOM      4  N   UNL     1       2.879   6.824  17.827  0.00  0.00    +0.000 NA
ATOM      5  C   UNL     1       2.219   7.749  18.589  0.00  0.00    +0.000 A 
ATOM      6  C   UNL     1       1.808   9.045  18.249  0.00  0.00    +0.000 A 
ATOM      7  C   UNL     1       1.126   9.821  19.193  0.00  0.00    +0.000 A 
ATOM      8  C   UNL     1       0.885   9.300  20.473  0.00  0.00    +0.000 A 
ATOM      9  C   UNL     1       1.282   8.002  20.830  0.00  0.00    +0.000 A 
ATOM     10  C   UNL     1       1.950   7.253  19.855  0.00  0.00    +0.000 A 
ENDROOT
BRANCH   7  11
ATOM     11  N   UNL     1       0.643  11.119  18.915  0.00  0.00    +0.000 N 
ATOM     12  C   UNL     1       1.359  12.299  19.041  0.00  0.00    +0.000 C 
ATOM     13  O   UNL     1       2.501  12.389  19.484  0.00  0.00    +0.000 OA
ATOM     14  H   UNL     1      -0.276  11.171  18.497  0.00  0.00    +0.000 HD
BRANCH  12  15
ATOM     15  C   UNL     1       0.593  13.547  18.574  0.00  0.00    +0.000 C 
ATOM     16  C   UNL     1      -0.929  13.302  18.590  0.00  0.00    +0.000 C 
ATOM     17  C   UNL     1      -1.513  13.241  20.006  0.00  0.00    +0.000 C 
ATOM     18  C   UNL     1      -1.103  14.438  20.859  0.00  0.00    +0.000 C 
ATOM     19  C   UNL     1       0.403  14.678  20.833  0.00  0.00    +0.000 C 
ATOM     20  C   UNL     1       0.920  14.797  19.401  0.00  0.00    +0.000 C 
ENDBRANCH  12  15
ENDBRANCH   7  11
BRANCH   3  21
ATOM     21  C   UNL     1       3.678   4.488  18.147  0.00  0.00    +0.000 C 
BRANCH  21  22
ATOM     22  C   UNL     1       5.184   4.672  17.909  0.00  0.00    +0.000 C 
BRANCH  22  23
ATOM     23  N   UNL     1       5.577   4.460  16.528  0.00  0.00    +0.000 N 
ATOM     24  C   UNL     1       6.743   4.984  16.003  0.00  0.00    +0.000 C 
ATOM     25  O   UNL     1       7.572   5.563  16.699  0.00  0.00    +0.000 OA
ATOM     26  H   UNL     1       4.907   4.077  15.870  0.00  0.00    +0.000 HD
BRANCH  24  27
ATOM     27  C   UNL     1       6.910   4.781  14.579  0.00  0.00    +0.000 A 
ATOM     28  C   UNL     1       6.260   3.919  13.715  0.00  0.00    +0.000 A 
ATOM     29  C   UNL     1       6.818   4.128  12.433  0.00  0.00    +0.000 A 
ATOM     30  C   UNL     1       7.777   5.101  12.588  0.00  0.00    +0.000 A 
ATOM     31  O   UNL     1       7.837   5.512  13.884  0.00  0.00    +0.000 OA
ENDBRANCH  24  27
ENDBRANCH  22  23
ENDBRANCH  21  22
ENDBRANCH   3  21
TORSDOF 6
ENDMDL
