MODEL 1
REMARK VINA RESULT:      -9.1      0.000      0.000
REMARK  Name = 
REMARK  4 active torsions:
REMARK  status: ('A' for Active; 'I' for Inactive)
REMARK    1  A    between atoms: C_1  and  C_2
REMARK    2  A    between atoms: C_5  and  C_6
REMARK    3  A    between atoms: C_9  and  C_10
REMARK    4  A    between atoms: C_11  and  C_12
REMARK                            x       y       z     vdW  Elec       q    Type
REMARK                         _______ _______ _______ _____ _____    ______ ____
ROOT
ATOM      1  C   UNL     1       2.314   7.755  18.808  0.00  0.00    +0.000 A 
ATOM      2  C   UNL     1       1.972   8.184  20.094  0.00  0.00    +0.000 A 
ATOM      3  C   UNL     1       1.003   9.170  20.269  0.00  0.00    +0.000 A 
ATOM      4  C   UNL     1       0.503   9.827  19.130  0.00  0.00    +0.000 A 
ATOM      5  C   UNL     1       1.342   9.832  18.069  0.00  0.00    +0.000 A 
ATOM      6  C   UNL     1       2.068   8.687  17.780  0.00  0.00    +0.000 A 
ATOM      7  N   UNL     1       1.896  11.158  18.166  0.00  0.00    +0.000 N 
ATOM      8  C   UNL     1       1.103  11.879  19.179  0.00  0.00    +0.000 C 
ATOM      9  O   UNL     1       1.445  12.866  19.853  0.00  0.00    +0.000 OA
ATOM     10  C   UNL     1      -0.252  11.163  19.109  0.00  0.00    +0.000 C 
ATOM     11  C   UNL     1      -1.568  10.754  19.749  0.00  0.00    +0.000 C 
ATOM     12  C   UNL     1      -2.271   9.935  18.615  0.00  0.00    +0.000 C 
ATOM     13  O   UNL     1      -2.935  10.866  17.768  0.00  0.00    +0.000 OA
ATOM     14  C   UNL     1      -1.988  11.634  17.045  0.00  0.00    +0.000 C 
ATOM     15  C   UNL     1      -0.785  12.070  17.880  0.00  0.00    +0.000 C 
ATOM     16  H   UNL     1       1.978  11.616  17.268  0.00  0.00    +0.000 HD
ENDROOT
BRANCH   1  22
ATOM     17  C   UNL     1       4.379   4.953  17.233  0.00  0.00    +0.000 A 
ATOM     18  C   UNL     1       3.932   3.837  17.935  0.00  0.00    +0.000 A 
ATOM     19  C   UNL     1       2.985   3.979  18.942  0.00  0.00    +0.000 A 
ATOM     20  C   UNL     1       2.445   5.239  19.254  0.00  0.00    +0.000 A 
ATOM     21  C   UNL     1       1.345   5.259  20.289  0.00  0.00    +0.000 C 
ATOM     22  C   UNL     1       2.893   6.403  18.566  0.00  0.00    +0.000 A 
ATOM     23  C   UNL     1       3.867   6.221  17.559  0.00  0.00    +0.000 A 
BRANCH  17  28
ATOM     24  C   UNL     1       6.224   3.628  12.814  0.00  0.00    +0.000 C 
ATOM     25  C   UNL     1       6.187   4.190  14.179  0.00  0.00    +0.000 A 
ATOM     26  C   UNL     1       7.122   4.852  14.940  0.00  0.00    +0.000 A 
ATOM     27  N   UNL     1       6.595   5.223  16.148  0.00  0.00    +0.000 NA
ATOM     28  C   UNL     1       5.355   4.772  16.163  0.00  0.00    +0.000 A 
ATOM     29  N   UNL     1       5.075   4.132  14.978  0.00  0.00    +0.000 N 
ATOM     30  H   UNL     1       4.181   3.727  14.741  0.00  0.00    +0.000 HD
ENDBRANCH  17  28
ENDBRANCH   1  22
TORSDOF 2
ENDMDL
MODEL 2
REMARK VINA RESULT:      -8.9      3.499      8.065
REMARK  Name = 
REMARK  4 active torsions:
REMARK  status: ('A' for Active; 'I' for Inactive)
REMARK    1  A    between atoms: C_1  and  C_2
REMARK    2  A    between atoms: C_5  and  C_6
REMARK    3  A    between atoms: C_9  and  C_10
REMARK    4  A    between atoms: C_11  and  C_12
REMARK                            x       y       z     vdW  Elec       q    Type
REMARK                         _______ _______ _______ _____ _____    ______ ____
ROOT
ATOM      1  C   UNL     1       1.878   8.050  19.098  0.00  0.00    +0.000 A 
ATOM      2  C   UNL     1       2.706   8.131  17.976  0.00  0.00    +0.000 A 
ATOM      3  C   UNL     1       3.341   6.990  17.488  0.00  0.00    +0.000 A 
ATOM      4  C   UNL     1       3.256   5.804  18.240  0.00  0.00    +0.000 A 
ATOM      5  C   UNL     1       3.040   5.990  19.561  0.00  0.00    +0.000 A 
ATOM      6  C   UNL     1       2.149   6.972  19.966  0.00  0.00    +0.000 A 
ATOM      7  N   UNL     1       4.371   5.817  20.083  0.00  0.00    +0.000 N 
ATOM      8  C   UNL     1       5.198   5.297  18.977  0.00  0.00    +0.000 C 
ATOM      9  O   UNL     1       6.432   5.372  18.850  0.00  0.00    +0.000 OA
ATOM     10  C   UNL     1       4.165   4.575  18.103  0.00  0.00    +0.000 C 
ATOM     11  C   UNL     1       3.715   4.038  16.755  0.00  0.00    +0.000 C 
ATOM     12  C   UNL     1       2.317   3.409  17.075  0.00  0.00    +0.000 C 
ATOM     13  O   UNL     1       2.546   2.092  17.559  0.00  0.00    +0.000 OA
ATOM     14  C   UNL     1       3.158   2.137  18.837  0.00  0.00    +0.000 C 
ATOM     15  C   UNL     1       4.244   3.205  18.961  0.00  0.00    +0.000 C 
ATOM     16  H   UNL     1       4.391   5.275  20.937  0.00  0.00    +0.000 HD
ENDROOT
BRANCH   1  22
ATOM     17  C   UNL     1      -1.126  10.320  18.458  0.00  0.00    +0.000 A 
ATOM     18  C   UNL     1      -1.216  11.023  19.656  0.00  0.00    +0.000 A 
ATOM     19  C   UNL     1      -0.331  10.753  20.692  0.00  0.00    +0.000 A 
ATOM     20  C   UNL     1       0.681   9.787  20.545  0.00  0.00    +0.000 A 
ATOM     21  C   UNL     1       1.653   9.654  21.693  0.00  0.00    +0.000 C 
ATOM     22  C   UNL     1       0.789   9.040  19.338  0.00  0.00    +0.000 A 
ATOM     23  C   UNL     1      -0.137   9.333  18.312  0.00  0.00    +0.000 A 
BRANCH  17  28
ATOM     24  C   UNL     1      -3.323  10.085  14.007  0.00  0.00    +0.000 C 
ATOM     25  C   UNL     1      -3.050  10.536  15.386  0.00  0.00    +0.000 A 
ATOM     26  C   UNL     1      -3.674  11.443  16.212  0.00  0.00    +0.000 A 
ATOM     27  N   UNL     1      -3.066  11.486  17.438  0.00  0.00    +0.000 NA
ATOM     28  C   UNL     1      -2.052  10.643  17.377  0.00  0.00    +0.000 A 
ATOM     29  N   UNL     1      -2.010  10.051  16.136  0.00  0.00    +0.000 N 
ATOM     30  H   UNL     1      -1.339   9.349  15.857  0.00  0.00    +0.000 HD
ENDBRANCH  17  28
ENDBRANCH   1  22
TORSDOF 2
ENDMDL
MODEL 3
REMARK VINA RESULT:      -8.6      1.198      2.614
REMARK  Name = 
REMARK  4 active torsions:
REMARK  status: ('A' for Active; 'I' for Inactive)
REMARK    1  A    between atoms: C_1  and  C_2
REMARK    2  A    between atoms: C_5  and  C_6
REMARK    3  A    between atoms: C_9  and  C_10
REMARK    4  A    between atoms: C_11  and  C_12
REMARK                            x       y       z     vdW  Elec       q    Type
REMARK                         _______ _______ _______ _____ _____    ______ ____
ROOT
ATOM      1  C   UNL     1       2.040   7.825  18.853  0.00  0.00    +0.000 A 
ATOM      2  C   UNL     1       1.489   8.407  17.707  0.00  0.00    +0.000 A 
ATOM      3  C   UNL     1       1.115   9.750  17.713  0.00  0.00    +0.000 A 
ATOM      4  C   UNL     1       1.155  10.451  18.932  0.00  0.00    +0.000 A 
ATOM      5  C   UNL     1       1.039   9.673  20.032  0.00  0.00    +0.000 A 
ATOM      6  C   UNL     1       1.697   8.453  20.067  0.00  0.00    +0.000 A 
ATOM      7  N   UNL     1      -0.349   9.872  20.361  0.00  0.00    +0.000 N 
ATOM      8  C   UNL     1      -0.835  10.974  19.510  0.00  0.00    +0.000 C 
ATOM      9  O   UNL     1      -2.007  11.215  19.172  0.00  0.00    +0.000 OA
ATOM     10  C   UNL     1       0.445  11.775  19.243  0.00  0.00    +0.000 C 
ATOM     11  C   UNL     1       1.251  12.736  18.386  0.00  0.00    +0.000 C 
ATOM     12  C   UNL     1       2.598  12.866  19.174  0.00  0.00    +0.000 C 
ATOM     13  O   UNL     1       2.412  13.861  20.172  0.00  0.00    +0.000 OA
ATOM     14  C   UNL     1       1.520  13.395  21.170  0.00  0.00    +0.000 C 
ATOM     15  C   UNL     1       0.323  12.625  20.614  0.00  0.00    +0.000 C 
ATOM     16  H   UNL     1      -0.506   9.984  21.354  0.00  0.00    +0.000 HD
ENDROOT
BRANCH   1  22
ATOM     17  C   UNL     1       4.599   5.329  17.508  0.00  0.00    +0.000 A 
ATOM     18  C   UNL     1       4.534   4.312  18.456  0.00  0.00    +0.000 A 
ATOM     19  C   UNL     1       3.689   4.432  19.553  0.00  0.00    +0.000 A 
ATOM     20  C   UNL     1       2.871   5.565  19.714  0.00  0.00    +0.000 A 
ATOM     21  C   UNL     1       1.914   5.540  20.882  0.00  0.00    +0.000 C 
ATOM     22  C   UNL     1       2.926   6.630  18.771  0.00  0.00    +0.000 A 
ATOM     23  C   UNL     1       3.807   6.477  17.677  0.00  0.00    +0.000 A 
BRANCH  17  28
ATOM     24  C   UNL     1       6.210   3.681  13.106  0.00  0.00    +0.000 C 
ATOM     25  C   UNL     1       6.200   4.437  14.374  0.00  0.00    +0.000 A 
ATOM     26  C   UNL     1       7.054   5.376  14.907  0.00  0.00    +0.000 A 
ATOM     27  N   UNL     1       6.589   5.830  16.113  0.00  0.00    +0.000 NA
ATOM     28  C   UNL     1       5.476   5.164  16.353  0.00  0.00    +0.000 A 
ATOM     29  N   UNL     1       5.212   4.302  15.314  0.00  0.00    +0.000 N 
ATOM     30  H   UNL     1       4.400   3.704  15.256  0.00  0.00    +0.000 HD
ENDBRANCH  17  28
ENDBRANCH   1  22
TORSDOF 2
ENDMDL
MODEL 4
REMARK VINA RESULT:      -8.3      3.658      8.114
REMARK  Name = 
REMARK  4 active torsions:
REMARK  status: ('A' for Active; 'I' for Inactive)
REMARK    1  A    between atoms: C_1  and  C_2
REMARK    2  A    between atoms: C_5  and  C_6
REMARK    3  A    between atoms: C_9  and  C_10
REMARK    4  A    between atoms: C_11  and  C_12
REMARK                            x       y       z     vdW  Elec       q    Type
REMARK                         _______ _______ _______ _____ _____    ______ ____
ROOT
ATOM      1  C   UNL     1       1.798   8.310  19.417  0.00  0.00    +0.000 A 
ATOM      2  C   UNL     1       2.139   8.080  18.081  0.00  0.00    +0.000 A 
ATOM      3  C   UNL     1       2.366   6.781  17.629  0.00  0.00    +0.000 A 
ATOM      4  C   UNL     1       2.402   5.740  18.575  0.00  0.00    +0.000 A 
ATOM      5  C   UNL     1       2.734   6.128  19.827  0.00  0.00    +0.000 A 
ATOM      6  C   UNL     1       2.218   7.315  20.323  0.00  0.00    +0.000 A 
ATOM      7  N   UNL     1       4.123   5.750  19.870  0.00  0.00    +0.000 N 
ATOM      8  C   UNL     1       4.382   4.938  18.666  0.00  0.00    +0.000 C 
ATOM      9  O   UNL     1       5.471   4.740  18.101  0.00  0.00    +0.000 OA
ATOM     10  C   UNL     1       3.000   4.342  18.366  0.00  0.00    +0.000 C 
ATOM     11  C   UNL     1       1.998   3.748  17.391  0.00  0.00    +0.000 C 
ATOM     12  C   UNL     1       0.752   3.466  18.295  0.00  0.00    +0.000 C 
ATOM     13  O   UNL     1       0.952   2.200  18.910  0.00  0.00    +0.000 OA
ATOM     14  C   UNL     1       2.004   2.275  19.858  0.00  0.00    +0.000 C 
ATOM     15  C   UNL     1       3.199   3.102  19.386  0.00  0.00    +0.000 C 
ATOM     16  H   UNL     1       4.387   5.325  20.749  0.00  0.00    +0.000 HD
ENDROOT
BRANCH   1  22
ATOM     17  C   UNL     1       0.789  11.978  19.759  0.00  0.00    +0.000 A 
ATOM     18  C   UNL     1      -0.249  11.906  20.683  0.00  0.00    +0.000 A 
ATOM     19  C   UNL     1      -0.656  10.675  21.182  0.00  0.00    +0.000 A 
ATOM     20  C   UNL     1      -0.015   9.487  20.785  0.00  0.00    +0.000 A 
ATOM     21  C   UNL     1      -0.465   8.220  21.473  0.00  0.00    +0.000 C 
ATOM     22  C   UNL     1       1.039   9.525  19.829  0.00  0.00    +0.000 A 
ATOM     23  C   UNL     1       1.415  10.794  19.334  0.00  0.00    +0.000 A 
BRANCH  17  28
ATOM     24  C   UNL     1       3.642  15.419  17.587  0.00  0.00    +0.000 C 
ATOM     25  C   UNL     1       2.482  14.834  18.289  0.00  0.00    +0.000 A 
ATOM     26  C   UNL     1       1.275  15.358  18.691  0.00  0.00    +0.000 A 
ATOM     27  N   UNL     1       0.495  14.395  19.275  0.00  0.00    +0.000 NA
ATOM     28  C   UNL     1       1.212  13.288  19.271  0.00  0.00    +0.000 A 
ATOM     29  N   UNL     1       2.432  13.521  18.681  0.00  0.00    +0.000 N 
ATOM     30  H   UNL     1       3.145  12.821  18.537  0.00  0.00    +0.000 HD
ENDBRANCH  17  28
ENDBRANCH   1  22
TORSDOF 2
ENDMDL
MODEL 5
REMARK VINA RESULT:      -8.2      3.274      5.263
REMARK  Name = 
REMARK  4 active torsions:
REMARK  status: ('A' for Active; 'I' for Inactive)
REMARK    1  A    between atoms: C_1  and  C_2
REMARK    2  A    between atoms: C_5  and  C_6
REMARK    3  A    between atoms: C_9  and  C_10
REMARK    4  A    between atoms: C_11  and  C_12
REMARK                            x       y       z     vdW  Elec       q    Type
REMARK                         _______ _______ _______ _____ _____    ______ ____
ROOT
ATOM      1  C   UNL     1       0.371   9.823  20.170  0.00  0.00    +0.000 A 
ATOM      2  C   UNL     1      -0.896  10.136  19.670  0.00  0.00    +0.000 A 
ATOM      3  C   UNL     1      -1.528  11.319  20.052  0.00  0.00    +0.000 A 
ATOM      4  C   UNL     1      -0.936  12.098  21.063  0.00  0.00    +0.000 A 
ATOM      5  C   UNL     1      -0.140  11.409  21.912  0.00  0.00    +0.000 A 
ATOM      6  C   UNL     1       0.695  10.425  21.403  0.00  0.00    +0.000 A 
ATOM      7  N   UNL     1      -1.023  11.240  23.037  0.00  0.00    +0.000 N 
ATOM      8  C   UNL     1      -2.200  12.094  22.787  0.00  0.00    +0.000 C 
ATOM      9  O   UNL     1      -3.342  11.973  23.263  0.00  0.00    +0.000 OA
ATOM     10  C   UNL     1      -1.625  13.194  21.886  0.00  0.00    +0.000 C 
ATOM     11  C   UNL     1      -1.808  14.270  20.829  0.00  0.00    +0.000 C 
ATOM     12  C   UNL     1      -0.358  14.830  20.642  0.00  0.00    +0.000 C 
ATOM     13  O   UNL     1      -0.148  15.810  21.649  0.00  0.00    +0.000 OA
ATOM     14  C   UNL     1      -0.074  15.196  22.925  0.00  0.00    +0.000 C 
ATOM     15  C   UNL     1      -1.100  14.084  23.132  0.00  0.00    +0.000 C 
ATOM     16  H   UNL     1      -0.559  11.383  23.925  0.00  0.00    +0.000 HD
ENDROOT
BRANCH   1  22
ATOM     17  C   UNL     1       2.427   6.730  19.277  0.00  0.00    +0.000 A 
ATOM     18  C   UNL     1       3.159   7.178  18.182  0.00  0.00    +0.000 A 
ATOM     19  C   UNL     1       2.978   8.469  17.701  0.00  0.00    +0.000 A 
ATOM     20  C   UNL     1       2.074   9.351  18.321  0.00  0.00    +0.000 A 
ATOM     21  C   UNL     1       2.038  10.761  17.783  0.00  0.00    +0.000 C 
ATOM     22  C   UNL     1       1.297   8.917  19.433  0.00  0.00    +0.000 A 
ATOM     23  C   UNL     1       1.500   7.594  19.885  0.00  0.00    +0.000 A 
BRANCH  17  28
ATOM     24  C   UNL     1       1.686   2.553  21.865  0.00  0.00    +0.000 C 
ATOM     25  C   UNL     1       2.325   3.498  20.927  0.00  0.00    +0.000 A 
ATOM     26  C   UNL     1       3.406   3.385  20.083  0.00  0.00    +0.000 A 
ATOM     27  N   UNL     1       3.589   4.538  19.368  0.00  0.00    +0.000 NA
ATOM     28  C   UNL     1       2.657   5.378  19.777  0.00  0.00    +0.000 A 
ATOM     29  N   UNL     1       1.872   4.776  20.733  0.00  0.00    +0.000 N 
ATOM     30  H   UNL     1       1.075   5.209  21.178  0.00  0.00    +0.000 HD
ENDBRANCH  17  28
ENDBRANCH   1  22
TORSDOF 2
ENDMDL
MODEL 6
REMARK VINA RESULT:      -8.1      3.507      8.342
REMARK  Name = 
REMARK  4 active torsions:
REMARK  status: ('A' for Active; 'I' for Inactive)
REMARK    1  A    between atoms: C_1  and  C_2
REMARK    2  A    between atoms: C_5  and  C_6
REMARK    3  A    between atoms: C_9  and  C_10
REMARK    4  A    between atoms: C_11  and  C_12
REMARK                            x       y       z     vdW  Elec       q    Type
REMARK                         _______ _______ _______ _____ _____    ______ ____
ROOT
ATOM      1  C   UNL     1       1.827   8.011  19.307  0.00  0.00    +0.000 A 
ATOM      2  C   UNL     1       2.620   8.127  18.162  0.00  0.00    +0.000 A 
ATOM      3  C   UNL     1       3.211   6.995  17.600  0.00  0.00    +0.000 A 
ATOM      4  C   UNL     1       3.121   5.777  18.299  0.00  0.00    +0.000 A 
ATOM      5  C   UNL     1       2.952   5.905  19.634  0.00  0.00    +0.000 A 
ATOM      6  C   UNL     1       2.100   6.887  20.114  0.00  0.00    +0.000 A 
ATOM      7  N   UNL     1       4.295   5.677  20.102  0.00  0.00    +0.000 N 
ATOM      8  C   UNL     1       5.072   5.190  18.947  0.00  0.00    +0.000 C 
ATOM      9  O   UNL     1       6.303   5.243  18.781  0.00  0.00    +0.000 OA
ATOM     10  C   UNL     1       3.994   4.535  18.075  0.00  0.00    +0.000 C 
ATOM     11  C   UNL     1       3.487   4.073  16.719  0.00  0.00    +0.000 C 
ATOM     12  C   UNL     1       2.085   3.463  17.056  0.00  0.00    +0.000 C 
ATOM     13  O   UNL     1       2.297   2.119  17.470  0.00  0.00    +0.000 OA
ATOM     14  C   UNL     1       2.951   2.089  18.727  0.00  0.00    +0.000 C 
ATOM     15  C   UNL     1       4.067   3.124  18.864  0.00  0.00    +0.000 C 
ATOM     16  H   UNL     1       4.329   5.094  20.929  0.00  0.00    +0.000 HD
ENDROOT
BRANCH   1  22
ATOM     17  C   UNL     1      -1.178  10.331  18.892  0.00  0.00    +0.000 A 
ATOM     18  C   UNL     1      -1.178  11.022  20.100  0.00  0.00    +0.000 A 
ATOM     19  C   UNL     1      -0.230  10.727  21.072  0.00  0.00    +0.000 A 
ATOM     20  C   UNL     1       0.756   9.749  20.848  0.00  0.00    +0.000 A 
ATOM     21  C   UNL     1       1.800   9.589  21.927  0.00  0.00    +0.000 C 
ATOM     22  C   UNL     1       0.772   9.013  19.629  0.00  0.00    +0.000 A 
ATOM     23  C   UNL     1      -0.216   9.332  18.670  0.00  0.00    +0.000 A 
BRANCH  17  28
ATOM     24  C   UNL     1      -5.373  12.138  16.934  0.00  0.00    +0.000 C 
ATOM     25  C   UNL     1      -4.044  11.497  16.992  0.00  0.00    +0.000 A 
ATOM     26  C   UNL     1      -3.189  11.036  16.018  0.00  0.00    +0.000 A 
ATOM     27  N   UNL     1      -2.032  10.555  16.572  0.00  0.00    +0.000 NA
ATOM     28  C   UNL     1      -2.170  10.679  17.878  0.00  0.00    +0.000 A 
ATOM     29  N   UNL     1      -3.389  11.246  18.169  0.00  0.00    +0.000 N 
ATOM     30  H   UNL     1      -3.712  11.467  19.100  0.00  0.00    +0.000 HD
ENDBRANCH  17  28
ENDBRANCH   1  22
TORSDOF 2
ENDMDL
MODEL 7
REMARK VINA RESULT:      -7.8      3.656      6.097
REMARK  Name = 
REMARK  4 active torsions:
REMARK  status: ('A' for Active; 'I' for Inactive)
REMARK    1  A    between atoms: C_1  and  C_2
REMARK    2  A    between atoms: C_5  and  C_6
REMARK    3  A    between atoms: C_9  and  C_10
REMARK    4  A    between atoms: C_11  and  C_12
REMARK                            x       y       z     vdW  Elec       q    Type
REMARK                         _______ _______ _______ _____ _____    ______ ____
ROOT
ATOM      1  C   UNL     1      -0.395  10.910  20.442  0.00  0.00    +0.000 A 
ATOM      2  C   UNL     1      -1.602  11.373  19.911  0.00  0.00    +0.000 A 
ATOM      3  C   UNL     1      -2.284  12.422  20.528  0.00  0.00    +0.000 A 
ATOM      4  C   UNL     1      -1.814  12.886  21.770  0.00  0.00    +0.000 A 
ATOM      5  C   UNL     1      -1.111  11.977  22.482  0.00  0.00    +0.000 A 
ATOM      6  C   UNL     1      -0.215  11.151  21.820  0.00  0.00    +0.000 A 
ATOM      7  N   UNL     1      -2.110  11.529  23.416  0.00  0.00    +0.000 N 
ATOM      8  C   UNL     1      -3.261  12.442  23.281  0.00  0.00    +0.000 C 
ATOM      9  O   UNL     1      -4.447  12.221  23.578  0.00  0.00    +0.000 OA
ATOM     10  C   UNL     1      -2.600  13.733  22.780  0.00  0.00    +0.000 C 
ATOM     11  C   UNL     1      -2.676  15.058  22.040  0.00  0.00    +0.000 C 
ATOM     12  C   UNL     1      -1.220  15.617  22.170  0.00  0.00    +0.000 C 
ATOM     13  O   UNL     1      -1.132  16.285  23.423  0.00  0.00    +0.000 OA
ATOM     14  C   UNL     1      -1.193  15.347  24.484  0.00  0.00    +0.000 C 
ATOM     15  C   UNL     1      -2.225  14.241  24.269  0.00  0.00    +0.000 C 
ATOM     16  H   UNL     1      -1.749  11.417  24.355  0.00  0.00    +0.000 HD
ENDROOT
BRANCH   1  22
ATOM     17  C   UNL     1       1.904   8.176  19.090  0.00  0.00    +0.000 A 
ATOM     18  C   UNL     1       2.635   8.865  18.127  0.00  0.00    +0.000 A 
ATOM     19  C   UNL     1       2.375  10.208  17.882  0.00  0.00    +0.000 A 
ATOM     20  C   UNL     1       1.393  10.900  18.613  0.00  0.00    +0.000 A 
ATOM     21  C   UNL     1       1.271  12.380  18.339  0.00  0.00    +0.000 C 
ATOM     22  C   UNL     1       0.616  10.219  19.593  0.00  0.00    +0.000 A 
ATOM     23  C   UNL     1       0.899   8.851  19.804  0.00  0.00    +0.000 A 
BRANCH  17  28
ATOM     24  C   UNL     1       2.176   3.854  21.526  0.00  0.00    +0.000 C 
ATOM     25  C   UNL     1       2.332   4.828  20.428  0.00  0.00    +0.000 A 
ATOM     26  C   UNL     1       2.799   4.713  19.138  0.00  0.00    +0.000 A 
ATOM     27  N   UNL     1       2.704   5.908  18.476  0.00  0.00    +0.000 NA
ATOM     28  C   UNL     1       2.216   6.773  19.345  0.00  0.00    +0.000 A 
ATOM     29  N   UNL     1       1.982   6.148  20.547  0.00  0.00    +0.000 N 
ATOM     30  H   UNL     1       1.583   6.596  21.360  0.00  0.00    +0.000 HD
ENDBRANCH  17  28
ENDBRANCH   1  22
TORSDOF 2
ENDMDL
MODEL 8
REMARK VINA RESULT:      -7.7      4.060      6.871
REMARK  Name = 
REMARK  4 active torsions:
REMARK  status: ('A' for Active; 'I' for Inactive)
REMARK    1  A    between atoms: C_1  and  C_2
REMARK    2  A    between atoms: C_5  and  C_6
REMARK    3  A    between atoms: C_9  and  C_10
REMARK    4  A    between atoms: C_11  and  C_12
REMARK                            x       y       z     vdW  Elec       q    Type
REMARK                         _______ _______ _______ _____ _____    ______ ____
ROOT
ATOM      1  C   UNL     1      -1.031  11.790  20.665  0.00  0.00    +0.000 A 
ATOM      2  C   UNL     1      -2.229  12.282  20.139  0.00  0.00    +0.000 A 
ATOM      3  C   UNL     1      -3.006  13.173  20.879  0.00  0.00    +0.000 A 
ATOM      4  C   UNL     1      -2.640  13.433  22.212  0.00  0.00    +0.000 A 
ATOM      5  C   UNL     1      -1.928  12.447  22.803  0.00  0.00    +0.000 A 
ATOM      6  C   UNL     1      -0.948  11.793  22.072  0.00  0.00    +0.000 A 
ATOM      7  N   UNL     1      -2.954  11.796  23.575  0.00  0.00    +0.000 N 
ATOM      8  C   UNL     1      -4.146  12.664  23.520  0.00  0.00    +0.000 C 
ATOM      9  O   UNL     1      -5.333  12.338  23.693  0.00  0.00    +0.000 OA
ATOM     10  C   UNL     1      -3.533  14.052  23.296  0.00  0.00    +0.000 C 
ATOM     11  C   UNL     1      -3.640  15.481  22.793  0.00  0.00    +0.000 C 
ATOM     12  C   UNL     1      -2.229  16.076  23.117  0.00  0.00    +0.000 C 
ATOM     13  O   UNL     1      -2.256  16.516  24.469  0.00  0.00    +0.000 OA
ATOM     14  C   UNL     1      -2.326  15.405  25.346  0.00  0.00    +0.000 C 
ATOM     15  C   UNL     1      -3.277  14.307  24.873  0.00  0.00    +0.000 C 
ATOM     16  H   UNL     1      -2.644  11.537  24.503  0.00  0.00    +0.000 HD
ENDROOT
BRANCH   1  22
ATOM     17  C   UNL     1       1.525   9.456  19.050  0.00  0.00    +0.000 A 
ATOM     18  C   UNL     1       2.248  10.333  18.246  0.00  0.00    +0.000 A 
ATOM     19  C   UNL     1       1.901  11.677  18.192  0.00  0.00    +0.000 A 
ATOM     20  C   UNL     1       0.836  12.181  18.961  0.00  0.00    +0.000 A 
ATOM     21  C   UNL     1       0.618  13.674  18.908  0.00  0.00    +0.000 C 
ATOM     22  C   UNL     1       0.067  11.306  19.781  0.00  0.00    +0.000 A 
ATOM     23  C   UNL     1       0.441   9.944  19.799  0.00  0.00    +0.000 A 
BRANCH  17  28
ATOM     24  C   UNL     1       2.289   4.924  20.939  0.00  0.00    +0.000 C 
ATOM     25  C   UNL     1       2.263   6.016  19.946  0.00  0.00    +0.000 A 
ATOM     26  C   UNL     1       2.572   6.064  18.606  0.00  0.00    +0.000 A 
ATOM     27  N   UNL     1       2.343   7.315  18.097  0.00  0.00    +0.000 NA
ATOM     28  C   UNL     1       1.928   8.054  19.108  0.00  0.00    +0.000 A 
ATOM     29  N   UNL     1       1.873   7.293  20.253  0.00  0.00    +0.000 N 
ATOM     30  H   UNL     1       1.558   7.629  21.152  0.00  0.00    +0.000 HD
ENDBRANCH  17  28
ENDBRANCH   1  22
TORSDOF 2
ENDMDL
MODEL 9
REMARK VINA RESULT:      -7.6      4.101      7.486
REMARK  Name = 
REMARK  4 active torsions:
REMARK  status: ('A' for Active; 'I' for Inactive)
REMARK    1  A    between atoms: C_1  and  C_2
REMARK    2  A    between atoms: C_5  and  C_6
REMARK    3  A    between atoms: C_9  and  C_10
REMARK    4  A    between atoms: C_11  and  C_12
REMARK                            x       y       z     vdW  Elec       q    Type
REMARK                         _______ _______ _______ _____ _____    ______ ____
ROOT
ATOM      1  C   UNL     1      -2.825  11.966  19.227  0.00  0.00    +0.000 A 
ATOM      2  C   UNL     1      -3.644  11.296  18.313  0.00  0.00    +0.000 A 
ATOM      3  C   UNL     1      -4.980  11.665  18.168  0.00  0.00    +0.000 A 
ATOM      4  C   UNL     1      -5.517  12.605  19.066  0.00  0.00    +0.000 A 
ATOM      5  C   UNL     1      -4.886  12.666  20.261  0.00  0.00    +0.000 A 
ATOM      6  C   UNL     1      -3.503  12.586  20.297  0.00  0.00    +0.000 A 
ATOM      7  N   UNL     1      -5.779  11.888  21.081  0.00  0.00    +0.000 N 
ATOM      8  C   UNL     1      -6.997  11.654  20.282  0.00  0.00    +0.000 C 
ATOM      9  O   UNL     1      -7.831  10.742  20.415  0.00  0.00    +0.000 OA
ATOM     10  C   UNL     1      -7.006  12.860  19.333  0.00  0.00    +0.000 C 
ATOM     11  C   UNL     1      -7.421  13.513  18.026  0.00  0.00    +0.000 C 
ATOM     12  C   UNL     1      -6.795  14.943  18.132  0.00  0.00    +0.000 C 
ATOM     13  O   UNL     1      -7.708  15.753  18.862  0.00  0.00    +0.000 OA
ATOM     14  C   UNL     1      -7.754  15.340  20.218  0.00  0.00    +0.000 C 
ATOM     15  C   UNL     1      -7.751  13.823  20.399  0.00  0.00    +0.000 C 
ATOM     16  H   UNL     1      -5.927  12.294  21.995  0.00  0.00    +0.000 HD
ENDROOT
BRANCH   1  22
ATOM     17  C   UNL     1       0.781  10.798  18.758  0.00  0.00    +0.000 A 
ATOM     18  C   UNL     1       1.489  11.990  18.884  0.00  0.00    +0.000 A 
ATOM     19  C   UNL     1       0.811  13.185  19.091  0.00  0.00    +0.000 A 
ATOM     20  C   UNL     1      -0.591  13.212  19.201  0.00  0.00    +0.000 A 
ATOM     21  C   UNL     1      -1.212  14.548  19.534  0.00  0.00    +0.000 C 
ATOM     22  C   UNL     1      -1.345  12.012  19.059  0.00  0.00    +0.000 A 
ATOM     23  C   UNL     1      -0.622  10.819  18.836  0.00  0.00    +0.000 A 
BRANCH  17  28
ATOM     24  C   UNL     1       2.538   6.252  19.727  0.00  0.00    +0.000 C 
ATOM     25  C   UNL     1       2.303   7.510  18.990  0.00  0.00    +0.000 A 
ATOM     26  C   UNL     1       2.677   7.941  17.738  0.00  0.00    +0.000 A 
ATOM     27  N   UNL     1       2.174   9.189  17.481  0.00  0.00    +0.000 NA
ATOM     28  C   UNL     1       1.520   9.553  18.567  0.00  0.00    +0.000 A 
ATOM     29  N   UNL     1       1.584   8.554  19.510  0.00  0.00    +0.000 N 
ATOM     30  H   UNL     1       1.136   8.588  20.415  0.00  0.00    +0.000 HD
ENDBRANCH  17  28
ENDBRANCH   1  22
TORSDOF 2
ENDMDL
