MODEL 1
REMARK VINA RESULT:      -8.4      0.000      0.000
REMARK  Name = 
REMARK  2 active torsions:
REMARK  status: ('A' for Active; 'I' for Inactive)
REMARK    1  A    between atoms: C_2  and  C_3
REMARK    2  A    between atoms: C_7  and  C_8
REMARK                            x       y       z     vdW  Elec       q    Type
REMARK                         _______ _______ _______ _____ _____    ______ ____
ROOT
ATOM      1  C   UNL     1       2.022   7.620  18.550  0.00  0.00    +0.000 C 
ATOM      2  C   UNL     1       2.259   6.990  19.923  0.00  0.00    +0.000 C 
ATOM      3  C   UNL     1       2.458   5.582  19.585  0.00  0.00    +0.000 C 
ATOM      4  O   UNL     1       1.659   4.674  19.733  0.00  0.00    +0.000 OA
ATOM      5  C   UNL     1       3.712   5.444  18.909  0.00  0.00    +0.000 A 
ATOM      6  C   UNL     1       4.715   4.723  19.528  0.00  0.00    +0.000 A 
ATOM      7  C   UNL     1       5.947   4.662  18.924  0.00  0.00    +0.000 A 
ATOM      8  C   UNL     1       6.060   5.057  17.594  0.00  0.00    +0.000 A 
ATOM      9  C   UNL     1       7.183   4.575  16.913  0.00  0.00    +0.000 A 
ATOM     10  C   UNL     1       7.234   4.629  15.532  0.00  0.00    +0.000 A 
ATOM     11  C   UNL     1       6.205   5.257  14.841  0.00  0.00    +0.000 A 
ATOM     12  C   UNL     1       5.147   5.901  15.535  0.00  0.00    +0.000 A 
ATOM     13  C   UNL     1       5.019   5.804  16.948  0.00  0.00    +0.000 A 
ATOM     14  C   UNL     1       3.916   6.221  17.768  0.00  0.00    +0.000 A 
ATOM     15  O   UNL     1       3.155   7.397  17.593  0.00  0.00    +0.000 OA
ENDROOT
BRANCH   1  20
ATOM     16  C   UNL     1       0.572  10.417  20.806  0.00  0.00    +0.000 A 
ATOM     17  C   UNL     1       0.780  11.563  20.033  0.00  0.00    +0.000 A 
ATOM     18  C   UNL     1       1.349  11.456  18.752  0.00  0.00    +0.000 A 
ATOM     19  C   UNL     1       1.710  10.204  18.205  0.00  0.00    +0.000 A 
ATOM     20  C   UNL     1       1.491   9.031  18.930  0.00  0.00    +0.000 A 
ATOM     21  C   UNL     1       0.919   9.175  20.238  0.00  0.00    +0.000 A 
BRANCH  16  23
ATOM     22  N   UNL     1      -0.447  10.576  23.199  0.00  0.00    +0.000 NA
ATOM     23  C   UNL     1       0.001  10.498  22.140  0.00  0.00    +0.000 C 
ENDBRANCH  16  23
ENDBRANCH   1  20
TORSDOF 2
ENDMDL
MODEL 2
REMARK VINA RESULT:      -7.9      5.472      8.088
REMARK  Name = 
REMARK  2 active torsions:
REMARK  status: ('A' for Active; 'I' for Inactive)
REMARK    1  A    between atoms: C_2  and  C_3
REMARK    2  A    between atoms: C_7  and  C_8
REMARK                            x       y       z     vdW  Elec       q    Type
REMARK                         _______ _______ _______ _____ _____    ______ ____
ROOT
ATOM      1  C   UNL     1       5.885   4.934  15.869  0.00  0.00    +0.000 C 
ATOM      2  C   UNL     1       6.978   4.518  16.854  0.00  0.00    +0.000 C 
ATOM      3  C   UNL     1       6.457   5.023  18.122  0.00  0.00    +0.000 C 
ATOM      4  O   UNL     1       6.830   6.016  18.723  0.00  0.00    +0.000 OA
ATOM      5  C   UNL     1       5.322   4.239  18.500  0.00  0.00    +0.000 A 
ATOM      6  C   UNL     1       5.411   3.461  19.638  0.00  0.00    +0.000 A 
ATOM      7  C   UNL     1       4.356   2.640  19.955  0.00  0.00    +0.000 A 
ATOM      8  C   UNL     1       3.138   2.836  19.310  0.00  0.00    +0.000 A 
ATOM      9  C   UNL     1       2.018   2.302  19.956  0.00  0.00    +0.000 A 
ATOM     10  C   UNL     1       0.747   2.705  19.591  0.00  0.00    +0.000 A 
ATOM     11  C   UNL     1       0.595   3.565  18.511  0.00  0.00    +0.000 A 
ATOM     12  C   UNL     1       1.715   3.976  17.741  0.00  0.00    +0.000 A 
ATOM     13  C   UNL     1       3.042   3.646  18.129  0.00  0.00    +0.000 A 
ATOM     14  C   UNL     1       4.275   4.142  17.582  0.00  0.00    +0.000 A 
ATOM     15  O   UNL     1       4.535   4.381  16.215  0.00  0.00    +0.000 OA
ENDROOT
BRANCH   1  20
ATOM     16  C   UNL     1       6.469   3.373  12.372  0.00  0.00    +0.000 A 
ATOM     17  C   UNL     1       7.397   4.251  11.802  0.00  0.00    +0.000 A 
ATOM     18  C   UNL     1       7.889   5.337  12.548  0.00  0.00    +0.000 A 
ATOM     19  C   UNL     1       7.480   5.566  13.881  0.00  0.00    +0.000 A 
ATOM     20  C   UNL     1       6.578   4.696  14.498  0.00  0.00    +0.000 A 
ATOM     21  C   UNL     1       6.087   3.604  13.708  0.00  0.00    +0.000 A 
BRANCH  16  23
ATOM     22  N   UNL     1       5.517   1.358  11.021  0.00  0.00    +0.000 NA
ATOM     23  C   UNL     1       5.931   2.251  11.620  0.00  0.00    +0.000 C 
ENDBRANCH  16  23
ENDBRANCH   1  20
TORSDOF 2
ENDMDL
MODEL 3
REMARK VINA RESULT:      -7.7      2.940      4.441
REMARK  Name = 
REMARK  2 active torsions:
REMARK  status: ('A' for Active; 'I' for Inactive)
REMARK    1  A    between atoms: C_2  and  C_3
REMARK    2  A    between atoms: C_7  and  C_8
REMARK                            x       y       z     vdW  Elec       q    Type
REMARK                         _______ _______ _______ _____ _____    ______ ____
ROOT
ATOM      1  C   UNL     1       1.857   8.543  19.462  0.00  0.00    +0.000 C 
ATOM      2  C   UNL     1       1.939   8.350  17.948  0.00  0.00    +0.000 C 
ATOM      3  C   UNL     1       3.028   7.385  17.819  0.00  0.00    +0.000 C 
ATOM      4  O   UNL     1       4.171   7.614  17.464  0.00  0.00    +0.000 OA
ATOM      5  C   UNL     1       2.582   6.119  18.315  0.00  0.00    +0.000 A 
ATOM      6  C   UNL     1       2.468   5.069  17.424  0.00  0.00    +0.000 A 
ATOM      7  C   UNL     1       1.957   3.877  17.877  0.00  0.00    +0.000 A 
ATOM      8  C   UNL     1       1.858   3.670  19.250  0.00  0.00    +0.000 A 
ATOM      9  C   UNL     1       1.762   2.335  19.656  0.00  0.00    +0.000 A 
ATOM     10  C   UNL     1       1.983   1.993  20.977  0.00  0.00    +0.000 A 
ATOM     11  C   UNL     1       2.201   2.999  21.909  0.00  0.00    +0.000 A 
ATOM     12  C   UNL     1       2.129   4.367  21.536  0.00  0.00    +0.000 A 
ATOM     13  C   UNL     1       1.979   4.759  20.178  0.00  0.00    +0.000 A 
ATOM     14  C   UNL     1       2.086   6.078  19.618  0.00  0.00    +0.000 A 
ATOM     15  O   UNL     1       1.606   7.267  20.209  0.00  0.00    +0.000 OA
ENDROOT
BRANCH   1  20
ATOM     16  C   UNL     1      -1.033  10.966  18.575  0.00  0.00    +0.000 A 
ATOM     17  C   UNL     1      -1.102  11.779  19.710  0.00  0.00    +0.000 A 
ATOM     18  C   UNL     1      -0.192  11.595  20.766  0.00  0.00    +0.000 A 
ATOM     19  C   UNL     1       0.818  10.607  20.709  0.00  0.00    +0.000 A 
ATOM     20  C   UNL     1       0.942   9.794  19.580  0.00  0.00    +0.000 A 
ATOM     21  C   UNL     1      -0.008  10.000  18.525  0.00  0.00    +0.000 A 
BRANCH  16  23
ATOM     22  N   UNL     1      -2.709  11.235  16.598  0.00  0.00    +0.000 NA
ATOM     23  C   UNL     1      -1.971  11.122  17.476  0.00  0.00    +0.000 C 
ENDBRANCH  16  23
ENDBRANCH   1  20
TORSDOF 2
ENDMDL
MODEL 4
REMARK VINA RESULT:      -7.6      3.786      7.836
REMARK  Name = 
REMARK  2 active torsions:
REMARK  status: ('A' for Active; 'I' for Inactive)
REMARK    1  A    between atoms: C_2  and  C_3
REMARK    2  A    between atoms: C_7  and  C_8
REMARK                            x       y       z     vdW  Elec       q    Type
REMARK                         _______ _______ _______ _____ _____    ______ ____
ROOT
ATOM      1  C   UNL     1       6.439   5.319  15.652  0.00  0.00    +0.000 C 
ATOM      2  C   UNL     1       6.764   4.092  16.505  0.00  0.00    +0.000 C 
ATOM      3  C   UNL     1       6.857   4.666  17.845  0.00  0.00    +0.000 C 
ATOM      4  O   UNL     1       7.875   4.897  18.474  0.00  0.00    +0.000 OA
ATOM      5  C   UNL     1       5.548   5.057  18.271  0.00  0.00    +0.000 A 
ATOM      6  C   UNL     1       4.981   4.394  19.342  0.00  0.00    +0.000 A 
ATOM      7  C   UNL     1       3.691   4.706  19.698  0.00  0.00    +0.000 A 
ATOM      8  C   UNL     1       3.114   5.862  19.180  0.00  0.00    +0.000 A 
ATOM      9  C   UNL     1       2.015   6.359  19.887  0.00  0.00    +0.000 A 
ATOM     10  C   UNL     1       1.572   7.649  19.665  0.00  0.00    +0.000 A 
ATOM     11  C   UNL     1       2.166   8.406  18.662  0.00  0.00    +0.000 A 
ATOM     12  C   UNL     1       3.167   7.848  17.824  0.00  0.00    +0.000 A 
ATOM     13  C   UNL     1       3.702   6.553  18.068  0.00  0.00    +0.000 A 
ATOM     14  C   UNL     1       4.839   5.932  17.446  0.00  0.00    +0.000 A 
ATOM     15  O   UNL     1       5.185   6.022  16.081  0.00  0.00    +0.000 OA
ENDROOT
BRANCH   1  20
ATOM     16  C   UNL     1       5.517   3.796  12.210  0.00  0.00    +0.000 A 
ATOM     17  C   UNL     1       6.671   4.036  11.458  0.00  0.00    +0.000 A 
ATOM     18  C   UNL     1       7.786   4.651  12.054  0.00  0.00    +0.000 A 
ATOM     19  C   UNL     1       7.784   5.028  13.416  0.00  0.00    +0.000 A 
ATOM     20  C   UNL     1       6.664   4.779  14.212  0.00  0.00    +0.000 A 
ATOM     21  C   UNL     1       5.539   4.160  13.571  0.00  0.00    +0.000 A 
BRANCH  16  23
ATOM     22  N   UNL     1       3.415   2.694  11.136  0.00  0.00    +0.000 NA
ATOM     23  C   UNL     1       4.344   3.177  11.617  0.00  0.00    +0.000 C 
ENDBRANCH  16  23
ENDBRANCH   1  20
TORSDOF 2
ENDMDL
MODEL 5
REMARK VINA RESULT:      -7.6      1.364      1.881
REMARK  Name = 
REMARK  2 active torsions:
REMARK  status: ('A' for Active; 'I' for Inactive)
REMARK    1  A    between atoms: C_2  and  C_3
REMARK    2  A    between atoms: C_7  and  C_8
REMARK                            x       y       z     vdW  Elec       q    Type
REMARK                         _______ _______ _______ _____ _____    ______ ____
ROOT
ATOM      1  C   UNL     1       1.842   7.247  19.381  0.00  0.00    +0.000 C 
ATOM      2  C   UNL     1       1.969   6.206  20.495  0.00  0.00    +0.000 C 
ATOM      3  C   UNL     1       2.074   4.960  19.740  0.00  0.00    +0.000 C 
ATOM      4  O   UNL     1       1.201   4.123  19.584  0.00  0.00    +0.000 OA
ATOM      5  C   UNL     1       3.341   4.927  19.077  0.00  0.00    +0.000 A 
ATOM      6  C   UNL     1       4.258   3.967  19.461  0.00  0.00    +0.000 A 
ATOM      7  C   UNL     1       5.507   3.988  18.889  0.00  0.00    +0.000 A 
ATOM      8  C   UNL     1       5.709   4.762  17.750  0.00  0.00    +0.000 A 
ATOM      9  C   UNL     1       6.820   4.417  16.974  0.00  0.00    +0.000 A 
ATOM     10  C   UNL     1       6.937   4.888  15.680  0.00  0.00    +0.000 A 
ATOM     11  C   UNL     1       5.991   5.786  15.199  0.00  0.00    +0.000 A 
ATOM     12  C   UNL     1       4.956   6.274  16.039  0.00  0.00    +0.000 A 
ATOM     13  C   UNL     1       4.758   5.759  17.349  0.00  0.00    +0.000 A 
ATOM     14  C   UNL     1       3.655   5.998  18.239  0.00  0.00    +0.000 A 
ATOM     15  O   UNL     1       2.996   7.232  18.423  0.00  0.00    +0.000 OA
ENDROOT
BRANCH   1  20
ATOM     16  C   UNL     1       0.370  10.785  19.950  0.00  0.00    +0.000 A 
ATOM     17  C   UNL     1       0.206  10.822  21.338  0.00  0.00    +0.000 A 
ATOM     18  C   UNL     1       0.608   9.728  22.125  0.00  0.00    +0.000 A 
ATOM     19  C   UNL     1       1.195   8.579  21.550  0.00  0.00    +0.000 A 
ATOM     20  C   UNL     1       1.405   8.512  20.170  0.00  0.00    +0.000 A 
ATOM     21  C   UNL     1       0.975   9.641  19.395  0.00  0.00    +0.000 A 
BRANCH  16  23
ATOM     22  N   UNL     1      -0.397  12.772  18.448  0.00  0.00    +0.000 NA
ATOM     23  C   UNL     1      -0.050  11.894  19.110  0.00  0.00    +0.000 C 
ENDBRANCH  16  23
ENDBRANCH   1  20
TORSDOF 2
ENDMDL
MODEL 6
REMARK VINA RESULT:      -7.6      1.668      1.727
REMARK  Name = 
REMARK  2 active torsions:
REMARK  status: ('A' for Active; 'I' for Inactive)
REMARK    1  A    between atoms: C_2  and  C_3
REMARK    2  A    between atoms: C_7  and  C_8
REMARK                            x       y       z     vdW  Elec       q    Type
REMARK                         _______ _______ _______ _____ _____    ______ ____
ROOT
ATOM      1  C   UNL     1       2.033   8.043  18.008  0.00  0.00    +0.000 C 
ATOM      2  C   UNL     1       2.214   7.657  19.477  0.00  0.00    +0.000 C 
ATOM      3  C   UNL     1       2.403   6.211  19.394  0.00  0.00    +0.000 C 
ATOM      4  O   UNL     1       1.586   5.349  19.667  0.00  0.00    +0.000 OA
ATOM      5  C   UNL     1       3.678   5.947  18.799  0.00  0.00    +0.000 A 
ATOM      6  C   UNL     1       4.648   5.336  19.569  0.00  0.00    +0.000 A 
ATOM      7  C   UNL     1       5.899   5.161  19.030  0.00  0.00    +0.000 A 
ATOM      8  C   UNL     1       6.065   5.320  17.657  0.00  0.00    +0.000 A 
ATOM      9  C   UNL     1       7.203   4.718  17.111  0.00  0.00    +0.000 A 
ATOM     10  C   UNL     1       7.303   4.532  15.745  0.00  0.00    +0.000 A 
ATOM     11  C   UNL     1       6.308   5.040  14.919  0.00  0.00    +0.000 A 
ATOM     12  C   UNL     1       5.236   5.803  15.452  0.00  0.00    +0.000 A 
ATOM     13  C   UNL     1       5.057   5.952  16.854  0.00  0.00    +0.000 A 
ATOM     14  C   UNL     1       3.932   6.515  17.549  0.00  0.00    +0.000 A 
ATOM     15  O   UNL     1       3.196   7.649  17.146  0.00  0.00    +0.000 OA
ENDROOT
BRANCH   1  20
ATOM     16  C   UNL     1      -0.546  10.905  18.422  0.00  0.00    +0.000 A 
ATOM     17  C   UNL     1       0.271  12.009  18.683  0.00  0.00    +0.000 A 
ATOM     18  C   UNL     1       1.670  11.866  18.686  0.00  0.00    +0.000 A 
ATOM     19  C   UNL     1       2.288  10.624  18.416  0.00  0.00    +0.000 A 
ATOM     20  C   UNL     1       1.510   9.502  18.119  0.00  0.00    +0.000 A 
ATOM     21  C   UNL     1       0.086   9.679  18.134  0.00  0.00    +0.000 A 
BRANCH  16  23
ATOM     22  N   UNL     1      -3.143  11.119  18.423  0.00  0.00    +0.000 NA
ATOM     23  C   UNL     1      -1.994  11.019  18.428  0.00  0.00    +0.000 C 
ENDBRANCH  16  23
ENDBRANCH   1  20
TORSDOF 2
ENDMDL
MODEL 7
REMARK VINA RESULT:      -7.6      2.430      3.926
REMARK  Name = 
REMARK  2 active torsions:
REMARK  status: ('A' for Active; 'I' for Inactive)
REMARK    1  A    between atoms: C_2  and  C_3
REMARK    2  A    between atoms: C_7  and  C_8
REMARK                            x       y       z     vdW  Elec       q    Type
REMARK                         _______ _______ _______ _____ _____    ______ ____
ROOT
ATOM      1  C   UNL     1       2.014   8.417  19.394  0.00  0.00    +0.000 C 
ATOM      2  C   UNL     1       2.127   8.213  17.882  0.00  0.00    +0.000 C 
ATOM      3  C   UNL     1       3.196   7.221  17.785  0.00  0.00    +0.000 C 
ATOM      4  O   UNL     1       4.352   7.421  17.457  0.00  0.00    +0.000 OA
ATOM      5  C   UNL     1       2.707   5.969  18.276  0.00  0.00    +0.000 A 
ATOM      6  C   UNL     1       2.589   4.917  17.387  0.00  0.00    +0.000 A 
ATOM      7  C   UNL     1       2.039   3.741  17.834  0.00  0.00    +0.000 A 
ATOM      8  C   UNL     1       1.902   3.544  19.206  0.00  0.00    +0.000 A 
ATOM      9  C   UNL     1       1.764   2.213  19.615  0.00  0.00    +0.000 A 
ATOM     10  C   UNL     1       1.944   1.873  20.942  0.00  0.00    +0.000 A 
ATOM     11  C   UNL     1       2.164   2.879  21.875  0.00  0.00    +0.000 A 
ATOM     12  C   UNL     1       2.134   4.246  21.494  0.00  0.00    +0.000 A 
ATOM     13  C   UNL     1       2.027   4.634  20.130  0.00  0.00    +0.000 A 
ATOM     14  C   UNL     1       2.179   5.947  19.567  0.00  0.00    +0.000 A 
ATOM     15  O   UNL     1       1.714   7.150  20.140  0.00  0.00    +0.000 OA
ENDROOT
BRANCH   1  20
ATOM     16  C   UNL     1      -0.192  11.139  21.047  0.00  0.00    +0.000 A 
ATOM     17  C   UNL     1      -0.250  12.121  20.054  0.00  0.00    +0.000 A 
ATOM     18  C   UNL     1       0.380  11.910  18.815  0.00  0.00    +0.000 A 
ATOM     19  C   UNL     1       1.071  10.710  18.531  0.00  0.00    +0.000 A 
ATOM     20  C   UNL     1       1.127   9.689  19.483  0.00  0.00    +0.000 A 
ATOM     21  C   UNL     1       0.483   9.941  20.740  0.00  0.00    +0.000 A 
BRANCH  16  23
ATOM     22  N   UNL     1      -1.308  11.500  23.373  0.00  0.00    +0.000 NA
ATOM     23  C   UNL     1      -0.821  11.336  22.342  0.00  0.00    +0.000 C 
ENDBRANCH  16  23
ENDBRANCH   1  20
TORSDOF 2
ENDMDL
MODEL 8
REMARK VINA RESULT:      -7.5      3.886      8.183
REMARK  Name = 
REMARK  2 active torsions:
REMARK  status: ('A' for Active; 'I' for Inactive)
REMARK    1  A    between atoms: C_2  and  C_3
REMARK    2  A    between atoms: C_7  and  C_8
REMARK                            x       y       z     vdW  Elec       q    Type
REMARK                         _______ _______ _______ _____ _____    ______ ____
ROOT
ATOM      1  C   UNL     1       1.470   9.258  18.120  0.00  0.00    +0.000 C 
ATOM      2  C   UNL     1       1.577   9.932  19.488  0.00  0.00    +0.000 C 
ATOM      3  C   UNL     1       1.124  11.291  19.198  0.00  0.00    +0.000 C 
ATOM      4  O   UNL     1       1.820  12.285  19.082  0.00  0.00    +0.000 OA
ATOM      5  C   UNL     1      -0.281  11.260  18.927  0.00  0.00    +0.000 A 
ATOM      6  C   UNL     1      -1.132  11.902  19.805  0.00  0.00    +0.000 A 
ATOM      7  C   UNL     1      -2.486  11.801  19.597  0.00  0.00    +0.000 A 
ATOM      8  C   UNL     1      -2.942  11.325  18.370  0.00  0.00    +0.000 A 
ATOM      9  C   UNL     1      -4.263  11.650  18.049  0.00  0.00    +0.000 A 
ATOM     10  C   UNL     1      -4.714  11.517  16.749  0.00  0.00    +0.000 A 
ATOM     11  C   UNL     1      -3.870  10.965  15.792  0.00  0.00    +0.000 A 
ATOM     12  C   UNL     1      -2.587  10.475  16.149  0.00  0.00    +0.000 A 
ATOM     13  C   UNL     1      -2.058  10.660  17.456  0.00  0.00    +0.000 A 
ATOM     14  C   UNL     1      -0.721  10.405  17.915  0.00  0.00    +0.000 A 
ATOM     15  O   UNL     1       0.086   9.309  17.543  0.00  0.00    +0.000 OA
ENDROOT
BRANCH   1  20
ATOM     16  C   UNL     1       4.209   6.573  17.581  0.00  0.00    +0.000 A 
ATOM     17  C   UNL     1       4.080   5.778  18.724  0.00  0.00    +0.000 A 
ATOM     18  C   UNL     1       3.078   6.062  19.670  0.00  0.00    +0.000 A 
ATOM     19  C   UNL     1       2.175   7.134  19.492  0.00  0.00    +0.000 A 
ATOM     20  C   UNL     1       2.249   7.934  18.349  0.00  0.00    +0.000 A 
ATOM     21  C   UNL     1       3.288   7.624  17.409  0.00  0.00    +0.000 A 
BRANCH  16  23
ATOM     22  N   UNL     1       6.072   6.120  15.815  0.00  0.00    +0.000 NA
ATOM     23  C   UNL     1       5.245   6.313  16.595  0.00  0.00    +0.000 C 
ENDBRANCH  16  23
ENDBRANCH   1  20
TORSDOF 2
ENDMDL
MODEL 9
REMARK VINA RESULT:      -7.5      3.508      7.464
REMARK  Name = 
REMARK  2 active torsions:
REMARK  status: ('A' for Active; 'I' for Inactive)
REMARK    1  A    between atoms: C_2  and  C_3
REMARK    2  A    between atoms: C_7  and  C_8
REMARK                            x       y       z     vdW  Elec       q    Type
REMARK                         _______ _______ _______ _____ _____    ______ ____
ROOT
ATOM      1  C   UNL     1       1.924   8.123  20.323  0.00  0.00    +0.000 C 
ATOM      2  C   UNL     1       0.890   7.913  21.430  0.00  0.00    +0.000 C 
ATOM      3  C   UNL     1       0.985   9.164  22.180  0.00  0.00    +0.000 C 
ATOM      4  O   UNL     1       1.535   9.332  23.255  0.00  0.00    +0.000 OA
ATOM      5  C   UNL     1       0.443  10.222  21.383  0.00  0.00    +0.000 A 
ATOM      6  C   UNL     1      -0.707  10.849  21.821  0.00  0.00    +0.000 A 
ATOM      7  C   UNL     1      -1.279  11.804  21.016  0.00  0.00    +0.000 A 
ATOM      8  C   UNL     1      -0.538  12.317  19.955  0.00  0.00    +0.000 A 
ATOM      9  C   UNL     1      -0.966  13.553  19.459  0.00  0.00    +0.000 A 
ATOM     10  C   UNL     1      -0.137  14.300  18.644  0.00  0.00    +0.000 A 
ATOM     11  C   UNL     1       1.081  13.763  18.244  0.00  0.00    +0.000 A 
ATOM     12  C   UNL     1       1.447  12.439  18.603  0.00  0.00    +0.000 A 
ATOM     13  C   UNL     1       0.658  11.668  19.500  0.00  0.00    +0.000 A 
ATOM     14  C   UNL     1       0.985  10.409  20.111  0.00  0.00    +0.000 A 
ATOM     15  O   UNL     1       1.655   9.337  19.484  0.00  0.00    +0.000 OA
ENDROOT
BRANCH   1  20
ATOM     16  C   UNL     1       1.810   4.251  20.249  0.00  0.00    +0.000 A 
ATOM     17  C   UNL     1       1.889   3.975  18.881  0.00  0.00    +0.000 A 
ATOM     18  C   UNL     1       2.028   5.025  17.957  0.00  0.00    +0.000 A 
ATOM     19  C   UNL     1       2.104   6.373  18.374  0.00  0.00    +0.000 A 
ATOM     20  C   UNL     1       2.060   6.691  19.733  0.00  0.00    +0.000 A 
ATOM     21  C   UNL     1       1.908   5.598  20.650  0.00  0.00    +0.000 A 
BRANCH  16  23
ATOM     22  N   UNL     1       1.532   2.350  22.010  0.00  0.00    +0.000 NA
ATOM     23  C   UNL     1       1.650   3.187  21.226  0.00  0.00    +0.000 C 
ENDBRANCH  16  23
ENDBRANCH   1  20
TORSDOF 2
ENDMDL
