MODEL 1
REMARK VINA RESULT:      -7.6      0.000      0.000
REMARK  Name = 
REMARK  4 active torsions:
REMARK  status: ('A' for Active; 'I' for Inactive)
REMARK    1  A    between atoms: N_1  and  C_2
REMARK    2  A    between atoms: N_10  and  C_11
REMARK    3  A    between atoms: C_16  and  O_17
REMARK    4  A    between atoms: C_18  and  O_19
REMARK                            x       y       z     vdW  Elec       q    Type
REMARK                         _______ _______ _______ _____ _____    ______ ____
ROOT
ATOM      1  C   UNL     1       1.680   3.030  19.851  0.00  0.00    +0.000 A 
ATOM      2  N   UNL     1       2.009   1.921  19.148  0.00  0.00    +0.000 NA
ATOM      3  C   UNL     1       2.957   2.023  18.194  0.00  0.00    +0.000 A 
ATOM      4  N   UNL     1       3.655   3.115  17.815  0.00  0.00    +0.000 NA
ATOM      5  C   UNL     1       3.281   4.189  18.534  0.00  0.00    +0.000 A 
ATOM      6  C   UNL     1       2.318   4.241  19.528  0.00  0.00    +0.000 A 
ATOM      7  N   UNL     1       2.190   5.524  20.020  0.00  0.00    +0.000 NA
ATOM      8  C   UNL     1       3.088   6.227  19.362  0.00  0.00    +0.000 A 
ATOM      9  N   UNL     1       3.802   5.451  18.485  0.00  0.00    +0.000 N 
ENDROOT
BRANCH   9  10
ATOM     10  C   UNL     1       4.928   5.907  17.705  0.00  0.00    +0.000 C 
ATOM     11  O   UNL     1       4.778   5.472  16.334  0.00  0.00    +0.000 OA
ATOM     12  C   UNL     1       6.086   5.436  15.852  0.00  0.00    +0.000 C 
ATOM     13  C   UNL     1       6.353   5.035  14.610  0.00  0.00    +0.000 C 
ATOM     14  F   UNL     1       7.614   4.942  14.149  0.00  0.00    +0.000 F 
ATOM     15  C   UNL     1       7.108   5.785  16.899  0.00  0.00    +0.000 C 
ATOM     16  C   UNL     1       6.329   5.460  18.163  0.00  0.00    +0.000 C 
BRANCH  15  17
ATOM     17  O   UNL     1       7.374   7.186  16.875  0.00  0.00    +0.000 OA
ATOM     18  H   UNL     1       8.200   7.347  17.366  0.00  0.00    +0.000 HD
ENDBRANCH  15  17
BRANCH  16  19
ATOM     19  O   UNL     1       6.491   4.073  18.481  0.00  0.00    +0.000 OA
ATOM     20  H   UNL     1       5.625   3.619  18.391  0.00  0.00    +0.000 HD
ENDBRANCH  16  19
ENDBRANCH   9  10
BRANCH   1  21
ATOM     21  N   UNL     1       0.737   2.910  20.860  0.00  0.00    +0.000 N 
ATOM     22  H   UNL     1       0.559   1.948  21.115  0.00  0.00    +0.000 HD
ATOM     23  H   UNL     1      -0.058   3.529  20.746  0.00  0.00    +0.000 HD
ENDBRANCH   1  21
TORSDOF 4
ENDMDL
MODEL 2
REMARK VINA RESULT:      -7.3      1.764      2.937
REMARK  Name = 
REMARK  4 active torsions:
REMARK  status: ('A' for Active; 'I' for Inactive)
REMARK    1  A    between atoms: N_1  and  C_2
REMARK    2  A    between atoms: N_10  and  C_11
REMARK    3  A    between atoms: C_16  and  O_17
REMARK    4  A    between atoms: C_18  and  O_19
REMARK                            x       y       z     vdW  Elec       q    Type
REMARK                         _______ _______ _______ _____ _____    ______ ____
ROOT
ATOM      1  C   UNL     1       1.238   3.478  19.799  0.00  0.00    +0.000 A 
ATOM      2  N   UNL     1       1.296   4.547  20.628  0.00  0.00    +0.000 NA
ATOM      3  C   UNL     1       2.385   5.342  20.575  0.00  0.00    +0.000 A 
ATOM      4  N   UNL     1       3.475   5.223  19.788  0.00  0.00    +0.000 NA
ATOM      5  C   UNL     1       3.372   4.141  18.996  0.00  0.00    +0.000 A 
ATOM      6  C   UNL     1       2.330   3.230  18.949  0.00  0.00    +0.000 A 
ATOM      7  N   UNL     1       2.591   2.233  18.031  0.00  0.00    +0.000 NA
ATOM      8  C   UNL     1       3.752   2.559  17.503  0.00  0.00    +0.000 A 
ATOM      9  N   UNL     1       4.241   3.729  18.024  0.00  0.00    +0.000 N 
ENDROOT
BRANCH   9  10
ATOM     10  C   UNL     1       5.433   4.403  17.570  0.00  0.00    +0.000 C 
ATOM     11  O   UNL     1       6.320   4.632  18.689  0.00  0.00    +0.000 OA
ATOM     12  C   UNL     1       7.085   5.727  18.290  0.00  0.00    +0.000 C 
ATOM     13  C   UNL     1       8.002   6.260  19.096  0.00  0.00    +0.000 C 
ATOM     14  F   UNL     1       8.708   7.351  18.745  0.00  0.00    +0.000 F 
ATOM     15  C   UNL     1       6.681   6.265  16.944  0.00  0.00    +0.000 C 
ATOM     16  C   UNL     1       5.250   5.759  16.863  0.00  0.00    +0.000 C 
BRANCH  15  17
ATOM     17  O   UNL     1       7.445   5.638  15.917  0.00  0.00    +0.000 OA
ATOM     18  H   UNL     1       6.931   4.885  15.572  0.00  0.00    +0.000 HD
ENDBRANCH  15  17
BRANCH  16  19
ATOM     19  O   UNL     1       4.373   6.700  17.492  0.00  0.00    +0.000 OA
ATOM     20  H   UNL     1       3.995   6.295  18.303  0.00  0.00    +0.000 HD
ENDBRANCH  16  19
ENDBRANCH   9  10
BRANCH   1  21
ATOM     21  N   UNL     1       0.097   2.691  19.827  0.00  0.00    +0.000 N 
ATOM     22  H   UNL     1      -0.753   3.237  19.874  0.00  0.00    +0.000 HD
ATOM     23  H   UNL     1       0.180   1.881  20.431  0.00  0.00    +0.000 HD
ENDBRANCH   1  21
TORSDOF 4
ENDMDL
MODEL 3
REMARK VINA RESULT:      -7.3      0.944      2.015
REMARK  Name = 
REMARK  4 active torsions:
REMARK  status: ('A' for Active; 'I' for Inactive)
REMARK    1  A    between atoms: N_1  and  C_2
REMARK    2  A    between atoms: N_10  and  C_11
REMARK    3  A    between atoms: C_16  and  O_17
REMARK    4  A    between atoms: C_18  and  O_19
REMARK                            x       y       z     vdW  Elec       q    Type
REMARK                         _______ _______ _______ _____ _____    ______ ____
ROOT
ATOM      1  C   UNL     1       1.240   3.669  19.965  0.00  0.00    +0.000 A 
ATOM      2  N   UNL     1       1.155   4.816  20.678  0.00  0.00    +0.000 NA
ATOM      3  C   UNL     1       2.035   5.805  20.412  0.00  0.00    +0.000 A 
ATOM      4  N   UNL     1       3.033   5.819  19.504  0.00  0.00    +0.000 NA
ATOM      5  C   UNL     1       3.081   4.654  18.833  0.00  0.00    +0.000 A 
ATOM      6  C   UNL     1       2.261   3.551  19.005  0.00  0.00    +0.000 A 
ATOM      7  N   UNL     1       2.631   2.529  18.155  0.00  0.00    +0.000 NA
ATOM      8  C   UNL     1       3.630   3.020  17.453  0.00  0.00    +0.000 A 
ATOM      9  N   UNL     1       3.908   4.318  17.798  0.00  0.00    +0.000 N 
ENDROOT
BRANCH   9  10
ATOM     10  C   UNL     1       4.870   5.164  17.133  0.00  0.00    +0.000 C 
ATOM     11  O   UNL     1       5.046   4.720  15.768  0.00  0.00    +0.000 OA
ATOM     12  C   UNL     1       6.322   5.172  15.434  0.00  0.00    +0.000 C 
ATOM     13  C   UNL     1       6.857   4.911  14.242  0.00  0.00    +0.000 C 
ATOM     14  F   UNL     1       8.109   5.292  13.926  0.00  0.00    +0.000 F 
ATOM     15  C   UNL     1       7.020   5.859  16.576  0.00  0.00    +0.000 C 
ATOM     16  C   UNL     1       6.275   5.256  17.756  0.00  0.00    +0.000 C 
BRANCH  15  17
ATOM     17  O   UNL     1       6.756   7.260  16.538  0.00  0.00    +0.000 OA
ATOM     18  H   UNL     1       7.395   7.705  17.125  0.00  0.00    +0.000 HD
ENDBRANCH  15  17
BRANCH  16  19
ATOM     19  O   UNL     1       6.896   4.022  18.133  0.00  0.00    +0.000 OA
ATOM     20  H   UNL     1       7.821   4.013  17.802  0.00  0.00    +0.000 HD
ENDBRANCH  16  19
ENDBRANCH   9  10
BRANCH   1  21
ATOM     21  N   UNL     1       0.306   2.675  20.211  0.00  0.00    +0.000 N 
ATOM     22  H   UNL     1       0.506   1.819  19.711  0.00  0.00    +0.000 HD
ATOM     23  H   UNL     1      -0.650   3.012  20.221  0.00  0.00    +0.000 HD
ENDBRANCH   1  21
TORSDOF 4
ENDMDL
MODEL 4
REMARK VINA RESULT:      -7.2      3.672      5.986
REMARK  Name = 
REMARK  4 active torsions:
REMARK  status: ('A' for Active; 'I' for Inactive)
REMARK    1  A    between atoms: N_1  and  C_2
REMARK    2  A    between atoms: N_10  and  C_11
REMARK    3  A    between atoms: C_16  and  O_17
REMARK    4  A    between atoms: C_18  and  O_19
REMARK                            x       y       z     vdW  Elec       q    Type
REMARK                         _______ _______ _______ _____ _____    ______ ____
ROOT
ATOM      1  C   UNL     1       6.970   6.006  16.343  0.00  0.00    +0.000 A 
ATOM      2  N   UNL     1       6.605   5.523  15.132  0.00  0.00    +0.000 NA
ATOM      3  C   UNL     1       5.596   4.628  15.075  0.00  0.00    +0.000 A 
ATOM      4  N   UNL     1       4.866   4.119  16.090  0.00  0.00    +0.000 NA
ATOM      5  C   UNL     1       5.277   4.621  17.268  0.00  0.00    +0.000 A 
ATOM      6  C   UNL     1       6.302   5.527  17.484  0.00  0.00    +0.000 A 
ATOM      7  N   UNL     1       6.450   5.787  18.831  0.00  0.00    +0.000 NA
ATOM      8  C   UNL     1       5.505   5.081  19.415  0.00  0.00    +0.000 A 
ATOM      9  N   UNL     1       4.742   4.395  18.506  0.00  0.00    +0.000 N 
ENDROOT
BRANCH   9  10
ATOM     10  C   UNL     1       3.565   3.625  18.826  0.00  0.00    +0.000 C 
ATOM     11  O   UNL     1       2.956   4.145  20.029  0.00  0.00    +0.000 OA
ATOM     12  C   UNL     1       2.252   3.057  20.543  0.00  0.00    +0.000 C 
ATOM     13  C   UNL     1       1.582   3.148  21.692  0.00  0.00    +0.000 C 
ATOM     14  F   UNL     1       0.945   2.090  22.228  0.00  0.00    +0.000 F 
ATOM     15  C   UNL     1       2.430   1.805  19.730  0.00  0.00    +0.000 C 
ATOM     16  C   UNL     1       3.750   2.111  19.039  0.00  0.00    +0.000 C 
BRANCH  15  17
ATOM     17  O   UNL     1       1.408   1.715  18.739  0.00  0.00    +0.000 OA
ATOM     18  H   UNL     1       1.808   1.909  17.871  0.00  0.00    +0.000 HD
ENDBRANCH  15  17
BRANCH  16  19
ATOM     19  O   UNL     1       4.835   1.707  19.882  0.00  0.00    +0.000 OA
ATOM     20  H   UNL     1       4.938   0.732  19.828  0.00  0.00    +0.000 HD
ENDBRANCH  16  19
ENDBRANCH   9  10
BRANCH   1  21
ATOM     21  N   UNL     1       7.977   6.957  16.391  0.00  0.00    +0.000 N 
ATOM     22  H   UNL     1       8.016   7.527  15.557  0.00  0.00    +0.000 HD
ATOM     23  H   UNL     1       8.848   6.604  16.770  0.00  0.00    +0.000 HD
ENDBRANCH   1  21
TORSDOF 4
ENDMDL
MODEL 5
REMARK VINA RESULT:      -7.2      1.684      2.873
REMARK  Name = 
REMARK  4 active torsions:
REMARK  status: ('A' for Active; 'I' for Inactive)
REMARK    1  A    between atoms: N_1  and  C_2
REMARK    2  A    between atoms: N_10  and  C_11
REMARK    3  A    between atoms: C_16  and  O_17
REMARK    4  A    between atoms: C_18  and  O_19
REMARK                            x       y       z     vdW  Elec       q    Type
REMARK                         _______ _______ _______ _____ _____    ______ ____
ROOT
ATOM      1  C   UNL     1       1.700   3.873  20.576  0.00  0.00    +0.000 A 
ATOM      2  N   UNL     1       1.418   5.196  20.552  0.00  0.00    +0.000 NA
ATOM      3  C   UNL     1       2.315   6.034  19.992  0.00  0.00    +0.000 A 
ATOM      4  N   UNL     1       3.506   5.737  19.430  0.00  0.00    +0.000 NA
ATOM      5  C   UNL     1       3.743   4.414  19.492  0.00  0.00    +0.000 A 
ATOM      6  C   UNL     1       2.929   3.440  20.047  0.00  0.00    +0.000 A 
ATOM      7  N   UNL     1       3.518   2.196  19.949  0.00  0.00    +0.000 NA
ATOM      8  C   UNL     1       4.649   2.409  19.311  0.00  0.00    +0.000 A 
ATOM      9  N   UNL     1       4.806   3.729  18.975  0.00  0.00    +0.000 N 
ENDROOT
BRANCH   9  10
ATOM     10  C   UNL     1       5.885   4.257  18.175  0.00  0.00    +0.000 C 
ATOM     11  O   UNL     1       6.495   5.376  18.858  0.00  0.00    +0.000 OA
ATOM     12  C   UNL     1       7.063   6.125  17.828  0.00  0.00    +0.000 C 
ATOM     13  C   UNL     1       7.691   7.274  18.074  0.00  0.00    +0.000 C 
ATOM     14  F   UNL     1       8.195   8.034  17.084  0.00  0.00    +0.000 F 
ATOM     15  C   UNL     1       6.790   5.550  16.465  0.00  0.00    +0.000 C 
ATOM     16  C   UNL     1       5.538   4.738  16.754  0.00  0.00    +0.000 C 
BRANCH  15  17
ATOM     17  O   UNL     1       7.837   4.656  16.092  0.00  0.00    +0.000 OA
ATOM     18  H   UNL     1       7.482   4.028  15.437  0.00  0.00    +0.000 HD
ENDBRANCH  15  17
BRANCH  16  19
ATOM     19  O   UNL     1       4.384   5.575  16.621  0.00  0.00    +0.000 OA
ATOM     20  H   UNL     1       4.626   6.378  16.110  0.00  0.00    +0.000 HD
ENDBRANCH  16  19
ENDBRANCH   9  10
BRANCH   1  21
ATOM     21  N   UNL     1       0.755   3.012  21.114  0.00  0.00    +0.000 N 
ATOM     22  H   UNL     1       0.560   3.205  22.087  0.00  0.00    +0.000 HD
ATOM     23  H   UNL     1       0.884   2.046  20.834  0.00  0.00    +0.000 HD
ENDBRANCH   1  21
TORSDOF 4
ENDMDL
MODEL 6
REMARK VINA RESULT:      -7.1      3.587      5.898
REMARK  Name = 
REMARK  4 active torsions:
REMARK  status: ('A' for Active; 'I' for Inactive)
REMARK    1  A    between atoms: N_1  and  C_2
REMARK    2  A    between atoms: N_10  and  C_11
REMARK    3  A    between atoms: C_16  and  O_17
REMARK    4  A    between atoms: C_18  and  O_19
REMARK                            x       y       z     vdW  Elec       q    Type
REMARK                         _______ _______ _______ _____ _____    ______ ____
ROOT
ATOM      1  C   UNL     1       7.351   6.842  17.808  0.00  0.00    +0.000 A 
ATOM      2  N   UNL     1       7.989   6.372  18.905  0.00  0.00    +0.000 NA
ATOM      3  C   UNL     1       7.333   5.508  19.708  0.00  0.00    +0.000 A 
ATOM      4  N   UNL     1       6.080   5.024  19.577  0.00  0.00    +0.000 NA
ATOM      5  C   UNL     1       5.488   5.531  18.481  0.00  0.00    +0.000 A 
ATOM      6  C   UNL     1       6.025   6.433  17.577  0.00  0.00    +0.000 A 
ATOM      7  N   UNL     1       5.109   6.745  16.594  0.00  0.00    +0.000 NA
ATOM      8  C   UNL     1       4.051   6.014  16.876  0.00  0.00    +0.000 A 
ATOM      9  N   UNL     1       4.251   5.230  17.983  0.00  0.00    +0.000 N 
ENDROOT
BRANCH   9  10
ATOM     10  C   UNL     1       3.323   4.241  18.476  0.00  0.00    +0.000 C 
ATOM     11  O   UNL     1       2.874   4.612  19.799  0.00  0.00    +0.000 OA
ATOM     12  C   UNL     1       2.499   3.399  20.375  0.00  0.00    +0.000 C 
ATOM     13  C   UNL     1       2.061   3.337  21.631  0.00  0.00    +0.000 C 
ATOM     14  F   UNL     1       1.749   2.166  22.218  0.00  0.00    +0.000 F 
ATOM     15  C   UNL     1       2.747   2.220  19.474  0.00  0.00    +0.000 C 
ATOM     16  C   UNL     1       3.825   2.788  18.567  0.00  0.00    +0.000 C 
BRANCH  15  17
ATOM     17  O   UNL     1       1.587   1.951  18.689  0.00  0.00    +0.000 OA
ATOM     18  H   UNL     1       1.853   1.925  17.752  0.00  0.00    +0.000 HD
ENDBRANCH  15  17
BRANCH  16  19
ATOM     19  O   UNL     1       5.110   2.587  19.167  0.00  0.00    +0.000 OA
ATOM     20  H   UNL     1       4.991   2.376  20.119  0.00  0.00    +0.000 HD
ENDBRANCH  16  19
ENDBRANCH   9  10
BRANCH   1  21
ATOM     21  N   UNL     1       8.044   7.695  16.963  0.00  0.00    +0.000 N 
ATOM     22  H   UNL     1       7.657   7.718  16.029  0.00  0.00    +0.000 HD
ATOM     23  H   UNL     1       9.051   7.630  17.062  0.00  0.00    +0.000 HD
ENDBRANCH   1  21
TORSDOF 4
ENDMDL
MODEL 7
REMARK VINA RESULT:      -7.1      3.647      6.078
REMARK  Name = 
REMARK  4 active torsions:
REMARK  status: ('A' for Active; 'I' for Inactive)
REMARK    1  A    between atoms: N_1  and  C_2
REMARK    2  A    between atoms: N_10  and  C_11
REMARK    3  A    between atoms: C_16  and  O_17
REMARK    4  A    between atoms: C_18  and  O_19
REMARK                            x       y       z     vdW  Elec       q    Type
REMARK                         _______ _______ _______ _____ _____    ______ ____
ROOT
ATOM      1  C   UNL     1       7.626   5.137  13.654  0.00  0.00    +0.000 A 
ATOM      2  N   UNL     1       7.074   4.342  12.708  0.00  0.00    +0.000 NA
ATOM      3  C   UNL     1       5.939   3.678  13.010  0.00  0.00    +0.000 A 
ATOM      4  N   UNL     1       5.243   3.685  14.166  0.00  0.00    +0.000 NA
ATOM      5  C   UNL     1       5.840   4.479  15.074  0.00  0.00    +0.000 A 
ATOM      6  C   UNL     1       7.008   5.206  14.915  0.00  0.00    +0.000 A 
ATOM      7  N   UNL     1       7.326   5.880  16.076  0.00  0.00    +0.000 NA
ATOM      8  C   UNL     1       6.346   5.598  16.908  0.00  0.00    +0.000 A 
ATOM      9  N   UNL     1       5.401   4.789  16.330  0.00  0.00    +0.000 N 
ENDROOT
BRANCH   9  10
ATOM     10  C   UNL     1       4.156   4.399  16.948  0.00  0.00    +0.000 C 
ATOM     11  O   UNL     1       3.634   5.498  17.728  0.00  0.00    +0.000 OA
ATOM     12  C   UNL     1       2.831   4.877  18.683  0.00  0.00    +0.000 C 
ATOM     13  C   UNL     1       2.203   5.583  19.622  0.00  0.00    +0.000 C 
ATOM     14  F   UNL     1       1.470   4.991  20.583  0.00  0.00    +0.000 F 
ATOM     15  C   UNL     1       2.857   3.376  18.585  0.00  0.00    +0.000 C 
ATOM     16  C   UNL     1       4.185   3.170  17.874  0.00  0.00    +0.000 C 
BRANCH  15  17
ATOM     17  O   UNL     1       1.809   2.923  17.731  0.00  0.00    +0.000 OA
ATOM     18  H   UNL     1       1.556   3.658  17.144  0.00  0.00    +0.000 HD
ENDBRANCH  15  17
BRANCH  16  19
ATOM     19  O   UNL     1       5.241   3.115  18.840  0.00  0.00    +0.000 OA
ATOM     20  H   UNL     1       5.149   2.293  19.370  0.00  0.00    +0.000 HD
ENDBRANCH  16  19
ENDBRANCH   9  10
BRANCH   1  21
ATOM     21  N   UNL     1       8.767   5.852  13.324  0.00  0.00    +0.000 N 
ATOM     22  H   UNL     1       8.565   6.685  12.787  0.00  0.00    +0.000 HD
ATOM     23  H   UNL     1       9.538   5.265  13.024  0.00  0.00    +0.000 HD
ENDBRANCH   1  21
TORSDOF 4
ENDMDL
MODEL 8
REMARK VINA RESULT:      -7.0      3.614      6.147
REMARK  Name = 
REMARK  4 active torsions:
REMARK  status: ('A' for Active; 'I' for Inactive)
REMARK    1  A    between atoms: N_1  and  C_2
REMARK    2  A    between atoms: N_10  and  C_11
REMARK    3  A    between atoms: C_16  and  O_17
REMARK    4  A    between atoms: C_18  and  O_19
REMARK                            x       y       z     vdW  Elec       q    Type
REMARK                         _______ _______ _______ _____ _____    ______ ____
ROOT
ATOM      1  C   UNL     1       7.040   5.439  15.827  0.00  0.00    +0.000 A 
ATOM      2  N   UNL     1       7.525   6.583  16.363  0.00  0.00    +0.000 NA
ATOM      3  C   UNL     1       6.918   7.087  17.458  0.00  0.00    +0.000 A 
ATOM      4  N   UNL     1       5.850   6.601  18.125  0.00  0.00    +0.000 NA
ATOM      5  C   UNL     1       5.401   5.473  17.545  0.00  0.00    +0.000 A 
ATOM      6  C   UNL     1       5.908   4.850  16.417  0.00  0.00    +0.000 A 
ATOM      7  N   UNL     1       5.167   3.729  16.103  0.00  0.00    +0.000 NA
ATOM      8  C   UNL     1       4.254   3.653  17.047  0.00  0.00    +0.000 A 
ATOM      9  N   UNL     1       4.385   4.663  17.967  0.00  0.00    +0.000 N 
ENDROOT
BRANCH   9  10
ATOM     10  C   UNL     1       3.607   4.786  19.176  0.00  0.00    +0.000 C 
ATOM     11  O   UNL     1       3.657   3.545  19.916  0.00  0.00    +0.000 OA
ATOM     12  C   UNL     1       2.490   3.565  20.678  0.00  0.00    +0.000 C 
ATOM     13  C   UNL     1       2.167   2.546  21.473  0.00  0.00    +0.000 C 
ATOM     14  F   UNL     1       1.016   2.527  22.171  0.00  0.00    +0.000 F 
ATOM     15  C   UNL     1       1.636   4.775  20.413  0.00  0.00    +0.000 C 
ATOM     16  C   UNL     1       2.120   5.154  19.023  0.00  0.00    +0.000 C 
BRANCH  15  17
ATOM     17  O   UNL     1       1.979   5.824  21.316  0.00  0.00    +0.000 OA
ATOM     18  H   UNL     1       2.704   5.509  21.887  0.00  0.00    +0.000 HD
ENDBRANCH  15  17
BRANCH  16  19
ATOM     19  O   UNL     1       1.374   4.424  18.042  0.00  0.00    +0.000 OA
ATOM     20  H   UNL     1       1.935   3.704  17.681  0.00  0.00    +0.000 HD
ENDBRANCH  16  19
ENDBRANCH   9  10
BRANCH   1  21
ATOM     21  N   UNL     1       7.695   4.902  14.729  0.00  0.00    +0.000 N 
ATOM     22  H   UNL     1       7.168   4.162  14.284  0.00  0.00    +0.000 HD
ATOM     23  H   UNL     1       8.687   4.759  14.881  0.00  0.00    +0.000 HD
ENDBRANCH   1  21
TORSDOF 4
ENDMDL
MODEL 9
REMARK VINA RESULT:      -6.9      1.549      1.713
REMARK  Name = 
REMARK  4 active torsions:
REMARK  status: ('A' for Active; 'I' for Inactive)
REMARK    1  A    between atoms: N_1  and  C_2
REMARK    2  A    between atoms: N_10  and  C_11
REMARK    3  A    between atoms: C_16  and  O_17
REMARK    4  A    between atoms: C_18  and  O_19
REMARK                            x       y       z     vdW  Elec       q    Type
REMARK                         _______ _______ _______ _____ _____    ______ ____
ROOT
ATOM      1  C   UNL     1       2.575   2.699  21.249  0.00  0.00    +0.000 A 
ATOM      2  N   UNL     1       3.744   2.028  21.373  0.00  0.00    +0.000 NA
ATOM      3  C   UNL     1       4.694   2.214  20.433  0.00  0.00    +0.000 A 
ATOM      4  N   UNL     1       4.649   3.000  19.337  0.00  0.00    +0.000 NA
ATOM      5  C   UNL     1       3.464   3.632  19.254  0.00  0.00    +0.000 A 
ATOM      6  C   UNL     1       2.395   3.529  20.129  0.00  0.00    +0.000 A 
ATOM      7  N   UNL     1       1.337   4.306  19.701  0.00  0.00    +0.000 NA
ATOM      8  C   UNL     1       1.774   4.898  18.610  0.00  0.00    +0.000 A 
ATOM      9  N   UNL     1       3.071   4.555  18.326  0.00  0.00    +0.000 N 
ENDROOT
BRANCH   9  10
ATOM     10  C   UNL     1       3.864   5.123  17.263  0.00  0.00    +0.000 C 
ATOM     11  O   UNL     1       4.455   4.064  16.477  0.00  0.00    +0.000 OA
ATOM     12  C   UNL     1       5.583   4.658  15.913  0.00  0.00    +0.000 C 
ATOM     13  C   UNL     1       6.417   3.963  15.141  0.00  0.00    +0.000 C 
ATOM     14  F   UNL     1       7.540   4.508  14.636  0.00  0.00    +0.000 F 
ATOM     15  C   UNL     1       5.782   6.081  16.359  0.00  0.00    +0.000 C 
ATOM     16  C   UNL     1       5.009   6.070  17.667  0.00  0.00    +0.000 C 
BRANCH  15  17
ATOM     17  O   UNL     1       5.134   6.973  15.454  0.00  0.00    +0.000 OA
ATOM     18  H   UNL     1       4.702   6.441  14.761  0.00  0.00    +0.000 HD
ENDBRANCH  15  17
BRANCH  16  19
ATOM     19  O   UNL     1       5.866   5.629  18.726  0.00  0.00    +0.000 OA
ATOM     20  H   UNL     1       5.319   5.233  19.439  0.00  0.00    +0.000 HD
ENDBRANCH  16  19
ENDBRANCH   9  10
BRANCH   1  21
ATOM     21  N   UNL     1       1.619   2.538  22.241  0.00  0.00    +0.000 N 
ATOM     22  H   UNL     1       0.686   2.763  21.924  0.00  0.00    +0.000 HD
ATOM     23  H   UNL     1       1.915   2.887  23.146  0.00  0.00    +0.000 HD
ENDBRANCH   1  21
TORSDOF 4
ENDMDL
