MODEL 1
REMARK VINA RESULT:      -7.7      0.000      0.000
REMARK  Name = 
REMARK  6 active torsions:
REMARK  status: ('A' for Active; 'I' for Inactive)
REMARK    1  A    between atoms: N_2  and  C_4
REMARK    2  A    between atoms: C_10  and  C_11
REMARK    3  A    between atoms: C_11  and  O_12
REMARK    4  A    between atoms: O_12  and  C_13
REMARK    5  A    between atoms: C_16  and  O_17
REMARK    6  A    between atoms: O_17  and  C_18
REMARK                            x       y       z     vdW  Elec       q    Type
REMARK                         _______ _______ _______ _____ _____    ______ ____
ROOT
ATOM      1  C   UNL     1       2.344   5.271  18.952  0.00  0.00    +0.000 C 
ENDROOT
BRANCH   1   8
ATOM      2  C   UNL     1       6.406   4.695  15.277  0.00  0.00    +0.000 A 
ATOM      3  C   UNL     1       6.996   4.829  16.522  0.00  0.00    +0.000 A 
ATOM      4  N   UNL     1       5.961   4.674  17.398  0.00  0.00    +0.000 N 
ATOM      5  C   UNL     1       4.823   4.454  16.689  0.00  0.00    +0.000 A 
ATOM      6  N   UNL     1       5.050   4.461  15.396  0.00  0.00    +0.000 NA
ATOM      7  O   UNL     1       3.624   4.277  17.211  0.00  0.00    +0.000 OA
ATOM      8  C   UNL     1       3.469   4.272  18.629  0.00  0.00    +0.000 C 
ATOM      9  C   UNL     1       4.705   4.521  19.518  0.00  0.00    +0.000 C 
ATOM     10  C   UNL     1       6.027   4.781  18.824  0.00  0.00    +0.000 C 
BRANCH   2  12
ATOM     11  O   UNL     1       7.960   5.619  13.880  0.00  0.00    +0.000 OA
ATOM     12  N   UNL     1       7.054   4.778  13.990  0.00  0.00    +0.000 N 
ATOM     13  O   UNL     1       6.663   4.021  13.092  0.00  0.00    +0.000 OA
ENDBRANCH   2  12
ENDBRANCH   1   8
BRANCH   1  14
ATOM     14  O   UNL     1       2.887   6.450  19.547  0.00  0.00    +0.000 OA
BRANCH  14  15
ATOM     15  C   UNL     1       2.221   7.614  19.279  0.00  0.00    +0.000 A 
ATOM     16  C   UNL     1       1.568   8.188  20.368  0.00  0.00    +0.000 A 
ATOM     17  C   UNL     1       0.852   9.376  20.210  0.00  0.00    +0.000 A 
ATOM     18  C   UNL     1       0.804  10.021  18.971  0.00  0.00    +0.000 A 
ATOM     19  C   UNL     1       1.440   9.437  17.879  0.00  0.00    +0.000 A 
ATOM     20  C   UNL     1       2.166   8.249  18.039  0.00  0.00    +0.000 A 
BRANCH  18  21
ATOM     21  O   UNL     1       0.077  11.171  18.952  0.00  0.00    +0.000 OA
BRANCH  21  22
ATOM     22  C   UNL     1      -1.290  11.130  18.572  0.00  0.00    +0.000 C 
ATOM     23  F   UNL     1      -2.148  11.511  19.541  0.00  0.00    +0.000 F 
ATOM     24  F   UNL     1      -1.479  11.913  17.488  0.00  0.00    +0.000 F 
ATOM     25  F   UNL     1      -1.597   9.859  18.231  0.00  0.00    +0.000 F 
ENDBRANCH  21  22
ENDBRANCH  18  21
ENDBRANCH  14  15
ENDBRANCH   1  14
TORSDOF 6
ENDMDL
MODEL 2
REMARK VINA RESULT:      -7.6      1.461      1.928
REMARK  Name = 
REMARK  6 active torsions:
REMARK  status: ('A' for Active; 'I' for Inactive)
REMARK    1  A    between atoms: N_2  and  C_4
REMARK    2  A    between atoms: C_10  and  C_11
REMARK    3  A    between atoms: C_11  and  O_12
REMARK    4  A    between atoms: O_12  and  C_13
REMARK    5  A    between atoms: C_16  and  O_17
REMARK    6  A    between atoms: O_17  and  C_18
REMARK                            x       y       z     vdW  Elec       q    Type
REMARK                         _______ _______ _______ _____ _____    ______ ____
ROOT
ATOM      1  C   UNL     1       2.482   4.929  18.536  0.00  0.00    +0.000 C 
ENDROOT
BRANCH   1   8
ATOM      2  C   UNL     1       6.641   4.714  14.931  0.00  0.00    +0.000 A 
ATOM      3  C   UNL     1       7.197   4.883  16.187  0.00  0.00    +0.000 A 
ATOM      4  N   UNL     1       6.162   4.638  17.043  0.00  0.00    +0.000 N 
ATOM      5  C   UNL     1       5.059   4.334  16.312  0.00  0.00    +0.000 A 
ATOM      6  N   UNL     1       5.307   4.371  15.024  0.00  0.00    +0.000 NA
ATOM      7  O   UNL     1       3.869   4.057  16.811  0.00  0.00    +0.000 OA
ATOM      8  C   UNL     1       3.690   4.027  18.226  0.00  0.00    +0.000 C 
ATOM      9  C   UNL     1       4.886   4.366  19.139  0.00  0.00    +0.000 C 
ATOM     10  C   UNL     1       6.195   4.737  18.471  0.00  0.00    +0.000 C 
BRANCH   2  12
ATOM     11  O   UNL     1       8.257   5.653  13.616  0.00  0.00    +0.000 OA
ATOM     12  N   UNL     1       7.303   4.861  13.657  0.00  0.00    +0.000 N 
ATOM     13  O   UNL     1       6.877   4.200  12.701  0.00  0.00    +0.000 OA
ENDBRANCH   2  12
ENDBRANCH   1   8
BRANCH   1  14
ATOM     14  O   UNL     1       2.816   5.863  19.564  0.00  0.00    +0.000 OA
BRANCH  14  15
ATOM     15  C   UNL     1       2.276   7.112  19.433  0.00  0.00    +0.000 A 
ATOM     16  C   UNL     1       2.368   7.666  18.158  0.00  0.00    +0.000 A 
ATOM     17  C   UNL     1       1.853   8.940  17.909  0.00  0.00    +0.000 A 
ATOM     18  C   UNL     1       1.214   9.663  18.920  0.00  0.00    +0.000 A 
ATOM     19  C   UNL     1       1.141   9.117  20.198  0.00  0.00    +0.000 A 
ATOM     20  C   UNL     1       1.649   7.835  20.447  0.00  0.00    +0.000 A 
BRANCH  18  21
ATOM     21  O   UNL     1       0.754  10.887  18.546  0.00  0.00    +0.000 OA
BRANCH  21  22
ATOM     22  C   UNL     1       1.606  12.019  18.651  0.00  0.00    +0.000 C 
ATOM     23  F   UNL     1       2.792  11.882  18.023  0.00  0.00    +0.000 F 
ATOM     24  F   UNL     1       0.973  13.105  18.160  0.00  0.00    +0.000 F 
ATOM     25  F   UNL     1       1.861  12.237  19.961  0.00  0.00    +0.000 F 
ENDBRANCH  21  22
ENDBRANCH  18  21
ENDBRANCH  14  15
ENDBRANCH   1  14
TORSDOF 6
ENDMDL
MODEL 3
REMARK VINA RESULT:      -7.6      1.861      2.398
REMARK  Name = 
REMARK  6 active torsions:
REMARK  status: ('A' for Active; 'I' for Inactive)
REMARK    1  A    between atoms: N_2  and  C_4
REMARK    2  A    between atoms: C_10  and  C_11
REMARK    3  A    between atoms: C_11  and  O_12
REMARK    4  A    between atoms: O_12  and  C_13
REMARK    5  A    between atoms: C_16  and  O_17
REMARK    6  A    between atoms: O_17  and  C_18
REMARK                            x       y       z     vdW  Elec       q    Type
REMARK                         _______ _______ _______ _____ _____    ______ ____
ROOT
ATOM      1  C   UNL     1       2.330   5.075  18.512  0.00  0.00    +0.000 C 
ENDROOT
BRANCH   1   8
ATOM      2  C   UNL     1       6.556   4.748  14.995  0.00  0.00    +0.000 A 
ATOM      3  C   UNL     1       7.088   4.962  16.254  0.00  0.00    +0.000 A 
ATOM      4  N   UNL     1       6.038   4.744  17.098  0.00  0.00    +0.000 N 
ATOM      5  C   UNL     1       4.949   4.410  16.358  0.00  0.00    +0.000 A 
ATOM      6  N   UNL     1       5.221   4.403  15.074  0.00  0.00    +0.000 NA
ATOM      7  O   UNL     1       3.751   4.147  16.844  0.00  0.00    +0.000 OA
ATOM      8  C   UNL     1       3.546   4.166  18.256  0.00  0.00    +0.000 C 
ATOM      9  C   UNL     1       4.723   4.541  19.179  0.00  0.00    +0.000 C 
ATOM     10  C   UNL     1       6.044   4.893  18.523  0.00  0.00    +0.000 C 
BRANCH   2  12
ATOM     11  O   UNL     1       6.830   4.119  12.815  0.00  0.00    +0.000 OA
ATOM     12  N   UNL     1       7.241   4.852  13.728  0.00  0.00    +0.000 N 
ATOM     13  O   UNL     1       8.183   5.650  13.641  0.00  0.00    +0.000 OA
ENDBRANCH   2  12
ENDBRANCH   1   8
BRANCH   1  14
ATOM     14  O   UNL     1       2.628   6.417  18.124  0.00  0.00    +0.000 OA
BRANCH  14  15
ATOM     15  C   UNL     1       2.103   7.397  18.919  0.00  0.00    +0.000 A 
ATOM     16  C   UNL     1       2.063   7.100  20.279  0.00  0.00    +0.000 A 
ATOM     17  C   UNL     1       1.543   8.026  21.185  0.00  0.00    +0.000 A 
ATOM     18  C   UNL     1       1.086   9.272  20.748  0.00  0.00    +0.000 A 
ATOM     19  C   UNL     1       1.107   9.561  19.386  0.00  0.00    +0.000 A 
ATOM     20  C   UNL     1       1.636   8.635  18.478  0.00  0.00    +0.000 A 
BRANCH  18  21
ATOM     21  O   UNL     1       0.608  10.084  21.730  0.00  0.00    +0.000 OA
BRANCH  21  22
ATOM     22  C   UNL     1      -0.352   9.583  22.649  0.00  0.00    +0.000 C 
ATOM     23  F   UNL     1      -0.970   8.454  22.245  0.00  0.00    +0.000 F 
ATOM     24  F   UNL     1       0.243   9.353  23.839  0.00  0.00    +0.000 F 
ATOM     25  F   UNL     1      -1.301  10.528  22.828  0.00  0.00    +0.000 F 
ENDBRANCH  21  22
ENDBRANCH  18  21
ENDBRANCH  14  15
ENDBRANCH   1  14
TORSDOF 6
ENDMDL
MODEL 4
REMARK VINA RESULT:      -7.6      0.341      1.018
REMARK  Name = 
REMARK  6 active torsions:
REMARK  status: ('A' for Active; 'I' for Inactive)
REMARK    1  A    between atoms: N_2  and  C_4
REMARK    2  A    between atoms: C_10  and  C_11
REMARK    3  A    between atoms: C_11  and  O_12
REMARK    4  A    between atoms: O_12  and  C_13
REMARK    5  A    between atoms: C_16  and  O_17
REMARK    6  A    between atoms: O_17  and  C_18
REMARK                            x       y       z     vdW  Elec       q    Type
REMARK                         _______ _______ _______ _____ _____    ______ ____
ROOT
ATOM      1  C   UNL     1       2.453   5.461  18.724  0.00  0.00    +0.000 C 
ENDROOT
BRANCH   1   8
ATOM      2  C   UNL     1       6.540   4.834  15.086  0.00  0.00    +0.000 A 
ATOM      3  C   UNL     1       7.119   5.158  16.300  0.00  0.00    +0.000 A 
ATOM      4  N   UNL     1       6.105   5.012  17.201  0.00  0.00    +0.000 N 
ATOM      5  C   UNL     1       4.989   4.615  16.535  0.00  0.00    +0.000 A 
ATOM      6  N   UNL     1       5.211   4.496  15.248  0.00  0.00    +0.000 NA
ATOM      7  O   UNL     1       3.812   4.394  17.089  0.00  0.00    +0.000 OA
ATOM      8  C   UNL     1       3.662   4.535  18.501  0.00  0.00    +0.000 C 
ATOM      9  C   UNL     1       4.873   4.990  19.341  0.00  0.00    +0.000 C 
ATOM     10  C   UNL     1       6.165   5.285  18.605  0.00  0.00    +0.000 C 
BRANCH   2  12
ATOM     11  O   UNL     1       8.115   5.622  13.630  0.00  0.00    +0.000 OA
ATOM     12  N   UNL     1       7.175   4.828  13.789  0.00  0.00    +0.000 N 
ATOM     13  O   UNL     1       6.740   4.047  12.933  0.00  0.00    +0.000 OA
ENDBRANCH   2  12
ENDBRANCH   1   8
BRANCH   1  14
ATOM     14  O   UNL     1       2.793   6.503  19.640  0.00  0.00    +0.000 OA
BRANCH  14  15
ATOM     15  C   UNL     1       2.086   7.665  19.509  0.00  0.00    +0.000 A 
ATOM     16  C   UNL     1       2.003   8.166  18.212  0.00  0.00    +0.000 A 
ATOM     17  C   UNL     1       1.308   9.351  17.960  0.00  0.00    +0.000 A 
ATOM     18  C   UNL     1       0.662  10.033  18.995  0.00  0.00    +0.000 A 
ATOM     19  C   UNL     1       0.762   9.543  20.294  0.00  0.00    +0.000 A 
ATOM     20  C   UNL     1       1.451   8.350  20.546  0.00  0.00    +0.000 A 
BRANCH  18  21
ATOM     21  O   UNL     1       0.017  11.170  18.616  0.00  0.00    +0.000 OA
BRANCH  21  22
ATOM     22  C   UNL     1      -1.394  11.155  18.455  0.00  0.00    +0.000 C 
ATOM     23  F   UNL     1      -2.058  11.968  19.302  0.00  0.00    +0.000 F 
ATOM     24  F   UNL     1      -1.705  11.497  17.186  0.00  0.00    +0.000 F 
ATOM     25  F   UNL     1      -1.832   9.895  18.671  0.00  0.00    +0.000 F 
ENDBRANCH  21  22
ENDBRANCH  18  21
ENDBRANCH  14  15
ENDBRANCH   1  14
TORSDOF 6
ENDMDL
MODEL 5
REMARK VINA RESULT:      -7.5      1.440      1.765
REMARK  Name = 
REMARK  6 active torsions:
REMARK  status: ('A' for Active; 'I' for Inactive)
REMARK    1  A    between atoms: N_2  and  C_4
REMARK    2  A    between atoms: C_10  and  C_11
REMARK    3  A    between atoms: C_11  and  O_12
REMARK    4  A    between atoms: O_12  and  C_13
REMARK    5  A    between atoms: C_16  and  O_17
REMARK    6  A    between atoms: O_17  and  C_18
REMARK                            x       y       z     vdW  Elec       q    Type
REMARK                         _______ _______ _______ _____ _____    ______ ____
ROOT
ATOM      1  C   UNL     1       2.291   5.333  18.895  0.00  0.00    +0.000 C 
ENDROOT
BRANCH   1   8
ATOM      2  C   UNL     1       6.428   4.817  15.295  0.00  0.00    +0.000 A 
ATOM      3  C   UNL     1       6.985   5.171  16.511  0.00  0.00    +0.000 A 
ATOM      4  N   UNL     1       5.969   4.998  17.405  0.00  0.00    +0.000 N 
ATOM      5  C   UNL     1       4.873   4.557  16.734  0.00  0.00    +0.000 A 
ATOM      6  N   UNL     1       5.110   4.436  15.449  0.00  0.00    +0.000 NA
ATOM      7  O   UNL     1       3.699   4.300  17.280  0.00  0.00    +0.000 OA
ATOM      8  C   UNL     1       3.533   4.447  18.689  0.00  0.00    +0.000 C 
ATOM      9  C   UNL     1       4.720   4.950  19.535  0.00  0.00    +0.000 C 
ATOM     10  C   UNL     1       6.008   5.283  18.808  0.00  0.00    +0.000 C 
BRANCH   2  12
ATOM     11  O   UNL     1       6.620   4.040  13.155  0.00  0.00    +0.000 OA
ATOM     12  N   UNL     1       7.074   4.823  14.004  0.00  0.00    +0.000 N 
ATOM     13  O   UNL     1       8.026   5.594  13.834  0.00  0.00    +0.000 OA
ENDBRANCH   2  12
ENDBRANCH   1   8
BRANCH   1  14
ATOM     14  O   UNL     1       2.599   6.417  19.772  0.00  0.00    +0.000 OA
BRANCH  14  15
ATOM     15  C   UNL     1       2.137   7.644  19.387  0.00  0.00    +0.000 A 
ATOM     16  C   UNL     1       1.447   8.354  20.368  0.00  0.00    +0.000 A 
ATOM     17  C   UNL     1       0.927   9.618  20.084  0.00  0.00    +0.000 A 
ATOM     18  C   UNL     1       1.116  10.202  18.828  0.00  0.00    +0.000 A 
ATOM     19  C   UNL     1       1.787   9.485  17.842  0.00  0.00    +0.000 A 
ATOM     20  C   UNL     1       2.317   8.220  18.129  0.00  0.00    +0.000 A 
BRANCH  18  21
ATOM     21  O   UNL     1       0.563  11.437  18.683  0.00  0.00    +0.000 OA
BRANCH  21  22
ATOM     22  C   UNL     1       1.391  12.589  18.765  0.00  0.00    +0.000 C 
ATOM     23  F   UNL     1       2.279  12.707  17.757  0.00  0.00    +0.000 F 
ATOM     24  F   UNL     1       0.617  13.695  18.799  0.00  0.00    +0.000 F 
ATOM     25  F   UNL     1       2.089  12.528  19.920  0.00  0.00    +0.000 F 
ENDBRANCH  21  22
ENDBRANCH  18  21
ENDBRANCH  14  15
ENDBRANCH   1  14
TORSDOF 6
ENDMDL
MODEL 6
REMARK VINA RESULT:      -7.4      2.279      3.193
REMARK  Name = 
REMARK  6 active torsions:
REMARK  status: ('A' for Active; 'I' for Inactive)
REMARK    1  A    between atoms: N_2  and  C_4
REMARK    2  A    between atoms: C_10  and  C_11
REMARK    3  A    between atoms: C_11  and  O_12
REMARK    4  A    between atoms: O_12  and  C_13
REMARK    5  A    between atoms: C_16  and  O_17
REMARK    6  A    between atoms: O_17  and  C_18
REMARK                            x       y       z     vdW  Elec       q    Type
REMARK                         _______ _______ _______ _____ _____    ______ ____
ROOT
ATOM      1  C   UNL     1       1.770   1.998  18.578  0.00  0.00    +0.000 C 
ENDROOT
BRANCH   1   8
ATOM      2  C   UNL     1       6.119   4.775  16.651  0.00  0.00    +0.000 A 
ATOM      3  C   UNL     1       6.243   4.725  18.028  0.00  0.00    +0.000 A 
ATOM      4  N   UNL     1       5.319   3.796  18.411  0.00  0.00    +0.000 N 
ATOM      5  C   UNL     1       4.693   3.325  17.301  0.00  0.00    +0.000 A 
ATOM      6  N   UNL     1       5.148   3.896  16.210  0.00  0.00    +0.000 NA
ATOM      7  O   UNL     1       3.728   2.426  17.296  0.00  0.00    +0.000 OA
ATOM      8  C   UNL     1       3.301   1.847  18.529  0.00  0.00    +0.000 C 
ATOM      9  C   UNL     1       3.949   2.324  19.844  0.00  0.00    +0.000 C 
ATOM     10  C   UNL     1       5.002   3.410  19.753  0.00  0.00    +0.000 C 
BRANCH   2  12
ATOM     11  O   UNL     1       6.665   5.415  14.526  0.00  0.00    +0.000 OA
ATOM     12  N   UNL     1       6.865   5.606  15.736  0.00  0.00    +0.000 N 
ATOM     13  O   UNL     1       7.646   6.439  16.213  0.00  0.00    +0.000 OA
ENDBRANCH   2  12
ENDBRANCH   1   8
BRANCH   1  14
ATOM     14  O   UNL     1       1.369   3.182  17.887  0.00  0.00    +0.000 OA
BRANCH  14  15
ATOM     15  C   UNL     1       1.565   4.358  18.557  0.00  0.00    +0.000 A 
ATOM     16  C   UNL     1       1.165   4.354  19.892  0.00  0.00    +0.000 A 
ATOM     17  C   UNL     1       1.314   5.502  20.672  0.00  0.00    +0.000 A 
ATOM     18  C   UNL     1       1.892   6.657  20.139  0.00  0.00    +0.000 A 
ATOM     19  C   UNL     1       2.273   6.667  18.800  0.00  0.00    +0.000 A 
ATOM     20  C   UNL     1       2.132   5.513  18.019  0.00  0.00    +0.000 A 
BRANCH  18  21
ATOM     21  O   UNL     1       1.984   7.703  21.004  0.00  0.00    +0.000 OA
BRANCH  21  22
ATOM     22  C   UNL     1       0.949   8.676  21.040  0.00  0.00    +0.000 C 
ATOM     23  F   UNL     1       0.698   9.264  19.852  0.00  0.00    +0.000 F 
ATOM     24  F   UNL     1      -0.187   8.105  21.495  0.00  0.00    +0.000 F 
ATOM     25  F   UNL     1       1.310   9.647  21.909  0.00  0.00    +0.000 F 
ENDBRANCH  21  22
ENDBRANCH  18  21
ENDBRANCH  14  15
ENDBRANCH   1  14
TORSDOF 6
ENDMDL
MODEL 7
REMARK VINA RESULT:      -7.4      0.651      1.376
REMARK  Name = 
REMARK  6 active torsions:
REMARK  status: ('A' for Active; 'I' for Inactive)
REMARK    1  A    between atoms: N_2  and  C_4
REMARK    2  A    between atoms: C_10  and  C_11
REMARK    3  A    between atoms: C_11  and  O_12
REMARK    4  A    between atoms: O_12  and  C_13
REMARK    5  A    between atoms: C_16  and  O_17
REMARK    6  A    between atoms: O_17  and  C_18
REMARK                            x       y       z     vdW  Elec       q    Type
REMARK                         _______ _______ _______ _____ _____    ______ ____
ROOT
ATOM      1  C   UNL     1       3.326   5.470  19.371  0.00  0.00    +0.000 C 
ENDROOT
BRANCH   1   8
ATOM      2  C   UNL     1       6.522   4.585  14.973  0.00  0.00    +0.000 A 
ATOM      3  C   UNL     1       7.353   4.962  16.013  0.00  0.00    +0.000 A 
ATOM      4  N   UNL     1       6.557   4.880  17.119  0.00  0.00    +0.000 N 
ATOM      5  C   UNL     1       5.321   4.468  16.734  0.00  0.00    +0.000 A 
ATOM      6  N   UNL     1       5.257   4.279  15.437  0.00  0.00    +0.000 NA
ATOM      7  O   UNL     1       4.291   4.296  17.540  0.00  0.00    +0.000 OA
ATOM      8  C   UNL     1       4.452   4.513  18.942  0.00  0.00    +0.000 C 
ATOM      9  C   UNL     1       5.819   4.990  19.473  0.00  0.00    +0.000 C 
ATOM     10  C   UNL     1       6.922   5.224  18.461  0.00  0.00    +0.000 C 
BRANCH   2  12
ATOM     11  O   UNL     1       7.652   5.355  13.142  0.00  0.00    +0.000 OA
ATOM     12  N   UNL     1       6.860   4.502  13.572  0.00  0.00    +0.000 N 
ATOM     13  O   UNL     1       6.339   3.601  12.901  0.00  0.00    +0.000 OA
ENDBRANCH   2  12
ENDBRANCH   1   8
BRANCH   1  14
ATOM     14  O   UNL     1       3.137   6.483  18.381  0.00  0.00    +0.000 OA
BRANCH  14  15
ATOM     15  C   UNL     1       2.401   7.566  18.772  0.00  0.00    +0.000 A 
ATOM     16  C   UNL     1       2.168   8.515  17.779  0.00  0.00    +0.000 A 
ATOM     17  C   UNL     1       1.431   9.666  18.067  0.00  0.00    +0.000 A 
ATOM     18  C   UNL     1       0.891   9.867  19.340  0.00  0.00    +0.000 A 
ATOM     19  C   UNL     1       1.140   8.929  20.337  0.00  0.00    +0.000 A 
ATOM     20  C   UNL     1       1.872   7.770  20.047  0.00  0.00    +0.000 A 
BRANCH  18  21
ATOM     21  O   UNL     1       0.190  11.025  19.488  0.00  0.00    +0.000 OA
BRANCH  21  22
ATOM     22  C   UNL     1      -1.155  11.092  19.038  0.00  0.00    +0.000 C 
ATOM     23  F   UNL     1      -1.712   9.892  18.772  0.00  0.00    +0.000 F 
ATOM     24  F   UNL     1      -1.906  11.728  19.963  0.00  0.00    +0.000 F 
ATOM     25  F   UNL     1      -1.186  11.818  17.899  0.00  0.00    +0.000 F 
ENDBRANCH  21  22
ENDBRANCH  18  21
ENDBRANCH  14  15
ENDBRANCH   1  14
TORSDOF 6
ENDMDL
MODEL 8
REMARK VINA RESULT:      -7.3      1.413      1.643
REMARK  Name = 
REMARK  6 active torsions:
REMARK  status: ('A' for Active; 'I' for Inactive)
REMARK    1  A    between atoms: N_2  and  C_4
REMARK    2  A    between atoms: C_10  and  C_11
REMARK    3  A    between atoms: C_11  and  O_12
REMARK    4  A    between atoms: O_12  and  C_13
REMARK    5  A    between atoms: C_16  and  O_17
REMARK    6  A    between atoms: O_17  and  C_18
REMARK                            x       y       z     vdW  Elec       q    Type
REMARK                         _______ _______ _______ _____ _____    ______ ____
ROOT
ATOM      1  C   UNL     1       2.547   5.475  18.723  0.00  0.00    +0.000 C 
ENDROOT
BRANCH   1   8
ATOM      2  C   UNL     1       6.565   4.742  15.027  0.00  0.00    +0.000 A 
ATOM      3  C   UNL     1       7.168   4.880  16.265  0.00  0.00    +0.000 A 
ATOM      4  N   UNL     1       6.136   4.764  17.151  0.00  0.00    +0.000 N 
ATOM      5  C   UNL     1       4.988   4.562  16.454  0.00  0.00    +0.000 A 
ATOM      6  N   UNL     1       5.204   4.544  15.160  0.00  0.00    +0.000 NA
ATOM      7  O   UNL     1       3.789   4.423  16.987  0.00  0.00    +0.000 OA
ATOM      8  C   UNL     1       3.645   4.444  18.407  0.00  0.00    +0.000 C 
ATOM      9  C   UNL     1       4.893   4.675  19.282  0.00  0.00    +0.000 C 
ATOM     10  C   UNL     1       6.216   4.891  18.575  0.00  0.00    +0.000 C 
BRANCH   2  12
ATOM     11  O   UNL     1       8.145   5.591  13.611  0.00  0.00    +0.000 OA
ATOM     12  N   UNL     1       7.205   4.790  13.734  0.00  0.00    +0.000 N 
ATOM     13  O   UNL     1       6.775   4.044  12.845  0.00  0.00    +0.000 OA
ENDBRANCH   2  12
ENDBRANCH   1   8
BRANCH   1  14
ATOM     14  O   UNL     1       3.002   6.791  18.406  0.00  0.00    +0.000 OA
BRANCH  14  15
ATOM     15  C   UNL     1       2.198   7.815  18.822  0.00  0.00    +0.000 A 
ATOM     16  C   UNL     1       1.844   7.782  20.169  0.00  0.00    +0.000 A 
ATOM     17  C   UNL     1       1.022   8.776  20.704  0.00  0.00    +0.000 A 
ATOM     18  C   UNL     1       0.569   9.832  19.908  0.00  0.00    +0.000 A 
ATOM     19  C   UNL     1       0.906   9.854  18.557  0.00  0.00    +0.000 A 
ATOM     20  C   UNL     1       1.738   8.861  18.022  0.00  0.00    +0.000 A 
BRANCH  18  21
ATOM     21  O   UNL     1      -0.220  10.736  20.550  0.00  0.00    +0.000 OA
BRANCH  21  22
ATOM     22  C   UNL     1       0.311  12.005  20.900  0.00  0.00    +0.000 C 
ATOM     23  F   UNL     1       1.659  12.065  20.891  0.00  0.00    +0.000 F 
ATOM     24  F   UNL     1      -0.174  12.942  20.058  0.00  0.00    +0.000 F 
ATOM     25  F   UNL     1      -0.104  12.308  22.151  0.00  0.00    +0.000 F 
ENDBRANCH  21  22
ENDBRANCH  18  21
ENDBRANCH  14  15
ENDBRANCH   1  14
TORSDOF 6
ENDMDL
MODEL 9
REMARK VINA RESULT:      -7.2      1.416      1.553
REMARK  Name = 
REMARK  6 active torsions:
REMARK  status: ('A' for Active; 'I' for Inactive)
REMARK    1  A    between atoms: N_2  and  C_4
REMARK    2  A    between atoms: C_10  and  C_11
REMARK    3  A    between atoms: C_11  and  O_12
REMARK    4  A    between atoms: O_12  and  C_13
REMARK    5  A    between atoms: C_16  and  O_17
REMARK    6  A    between atoms: O_17  and  C_18
REMARK                            x       y       z     vdW  Elec       q    Type
REMARK                         _______ _______ _______ _____ _____    ______ ____
ROOT
ATOM      1  C   UNL     1       2.400   5.507  18.698  0.00  0.00    +0.000 C 
ENDROOT
BRANCH   1   8
ATOM      2  C   UNL     1       6.528   4.887  15.104  0.00  0.00    +0.000 A 
ATOM      3  C   UNL     1       7.084   5.315  16.296  0.00  0.00    +0.000 A 
ATOM      4  N   UNL     1       6.076   5.169  17.204  0.00  0.00    +0.000 N 
ATOM      5  C   UNL     1       4.986   4.671  16.564  0.00  0.00    +0.000 A 
ATOM      6  N   UNL     1       5.218   4.487  15.285  0.00  0.00    +0.000 NA
ATOM      7  O   UNL     1       3.821   4.419  17.130  0.00  0.00    +0.000 OA
ATOM      8  C   UNL     1       3.659   4.637  18.531  0.00  0.00    +0.000 C 
ATOM      9  C   UNL     1       4.840   5.207  19.341  0.00  0.00    +0.000 C 
ATOM     10  C   UNL     1       6.117   5.528  18.589  0.00  0.00    +0.000 C 
BRANCH   2  12
ATOM     11  O   UNL     1       8.113   5.620  13.630  0.00  0.00    +0.000 OA
ATOM     12  N   UNL     1       7.166   4.838  13.809  0.00  0.00    +0.000 N 
ATOM     13  O   UNL     1       6.728   4.035  12.975  0.00  0.00    +0.000 OA
ENDBRANCH   2  12
ENDBRANCH   1   8
BRANCH   1  14
ATOM     14  O   UNL     1       2.612   6.490  19.712  0.00  0.00    +0.000 OA
BRANCH  14  15
ATOM     15  C   UNL     1       2.061   7.719  19.474  0.00  0.00    +0.000 A 
ATOM     16  C   UNL     1       1.362   8.273  20.544  0.00  0.00    +0.000 A 
ATOM     17  C   UNL     1       0.754   9.522  20.413  0.00  0.00    +0.000 A 
ATOM     18  C   UNL     1       0.862  10.248  19.224  0.00  0.00    +0.000 A 
ATOM     19  C   UNL     1       1.543   9.685  18.148  0.00  0.00    +0.000 A 
ATOM     20  C   UNL     1       2.161   8.435  18.281  0.00  0.00    +0.000 A 
BRANCH  18  21
ATOM     21  O   UNL     1       0.228  11.452  19.228  0.00  0.00    +0.000 OA
BRANCH  21  22
ATOM     22  C   UNL     1       0.994  12.647  19.280  0.00  0.00    +0.000 C 
ATOM     23  F   UNL     1       0.352  13.694  19.838  0.00  0.00    +0.000 F 
ATOM     24  F   UNL     1       2.135  12.419  19.965  0.00  0.00    +0.000 F 
ATOM     25  F   UNL     1       1.323  12.995  18.016  0.00  0.00    +0.000 F 
ENDBRANCH  21  22
ENDBRANCH  18  21
ENDBRANCH  14  15
ENDBRANCH   1  14
TORSDOF 6
ENDMDL
