MODEL 1
REMARK VINA RESULT:      -9.9      0.000      0.000
REMARK  Name = 
REMARK  10 active torsions:
REMARK  status: ('A' for Active; 'I' for Inactive)
REMARK    1  A    between atoms: C_1  and  C_2
REMARK    2  A    between atoms: C_3  and  C_4
REMARK    3  A    between atoms: C_5  and  C_6
REMARK    4  A    between atoms: C_6  and  C_7
REMARK    5  A    between atoms: C_8  and  C_9
REMARK    6  A    between atoms: C_10  and  C_11
REMARK    7  A    between atoms: C_11  and  C_12
REMARK    8  A    between atoms: C_13  and  C_14
REMARK    9  A    between atoms: C_26  and  C_27
REMARK   10  A    between atoms: C_26  and  C_28
REMARK                            x       y       z     vdW  Elec       q    Type
REMARK                         _______ _______ _______ _____ _____    ______ ____
ROOT
ATOM      1  C   UNL     1       8.440   8.776  18.170  0.00  0.00    +0.000 C 
ATOM      2  C   UNL     1       7.491   8.218  17.399  0.00  0.00    +0.000 C 
ENDROOT
BRANCH   1   5
ATOM      3  C   UNL     1       9.394  10.917  19.018  0.00  0.00    +0.000 C 
ATOM      4  C   UNL     1       9.135  10.494  20.450  0.00  0.00    +0.000 C 
ATOM      5  C   UNL     1       9.027  10.104  17.996  0.00  0.00    +0.000 C 
BRANCH   3   7
ATOM      6  C   UNL     1       9.435  13.328  18.262  0.00  0.00    +0.000 C 
ATOM      7  C   UNL     1      10.030  12.220  18.748  0.00  0.00    +0.000 C 
BRANCH   6  10
ATOM      8  C   UNL     1      11.978  13.569  16.637  0.00  0.00    +0.000 C 
ATOM      9  C   UNL     1      11.246  14.715  17.294  0.00  0.00    +0.000 C 
ATOM     10  C   UNL     1      10.078  14.622  17.981  0.00  0.00    +0.000 C 
ATOM     11  C   UNL     1       9.290  15.890  18.423  0.00  0.00    +0.000 C 
ATOM     12  C   UNL     1       7.803  15.852  17.993  0.00  0.00    +0.000 C 
ATOM     13  C   UNL     1       9.340  16.041  19.958  0.00  0.00    +0.000 C 
ATOM     14  C   UNL     1       9.873  17.178  17.772  0.00  0.00    +0.000 C 
ATOM     15  C   UNL     1      11.388  17.211  17.822  0.00  0.00    +0.000 C 
ATOM     16  C   UNL     1      11.947  16.035  17.039  0.00  0.00    +0.000 C 
ENDBRANCH   6  10
ENDBRANCH   3   7
ENDBRANCH   1   5
BRANCH   2  17
ATOM     17  C   UNL     1       7.041   6.836  17.596  0.00  0.00    +0.000 C 
ATOM     18  C   UNL     1       7.599   6.104  18.783  0.00  0.00    +0.000 C 
ATOM     19  C   UNL     1       6.151   6.293  16.746  0.00  0.00    +0.000 C 
BRANCH  19  20
ATOM     20  C   UNL     1       5.539   4.980  16.856  0.00  0.00    +0.000 C 
ATOM     21  C   UNL     1       4.416   4.717  17.538  0.00  0.00    +0.000 C 
ATOM     22  C   UNL     1       3.919   3.336  17.817  0.00  0.00    +0.000 C 
ATOM     23  O   UNL     1       4.327   2.291  17.371  0.00  0.00    +0.000 OA
ATOM     24  C   UNL     1       2.847   3.517  18.817  0.00  0.00    +0.000 A 
ATOM     25  C   UNL     1       2.114   2.556  19.490  0.00  0.00    +0.000 A 
ATOM     26  C   UNL     1       1.202   2.998  20.460  0.00  0.00    +0.000 A 
ATOM     27  C   UNL     1       1.049   4.369  20.746  0.00  0.00    +0.000 A 
ATOM     28  C   UNL     1       1.784   5.326  20.048  0.00  0.00    +0.000 A 
ATOM     29  C   UNL     1       2.663   4.870  19.084  0.00  0.00    +0.000 A 
ATOM     30  C   UNL     1       3.538   5.686  18.244  0.00  0.00    +0.000 C 
ATOM     31  O   UNL     1       3.486   6.894  18.152  0.00  0.00    +0.000 OA
ENDBRANCH  19  20
ENDBRANCH   2  17
TORSDOF 5
ENDMDL
MODEL 2
REMARK VINA RESULT:      -9.0      1.067      1.287
REMARK  Name = 
REMARK  10 active torsions:
REMARK  status: ('A' for Active; 'I' for Inactive)
REMARK    1  A    between atoms: C_1  and  C_2
REMARK    2  A    between atoms: C_3  and  C_4
REMARK    3  A    between atoms: C_5  and  C_6
REMARK    4  A    between atoms: C_6  and  C_7
REMARK    5  A    between atoms: C_8  and  C_9
REMARK    6  A    between atoms: C_10  and  C_11
REMARK    7  A    between atoms: C_11  and  C_12
REMARK    8  A    between atoms: C_13  and  C_14
REMARK    9  A    between atoms: C_26  and  C_27
REMARK   10  A    between atoms: C_26  and  C_28
REMARK                            x       y       z     vdW  Elec       q    Type
REMARK                         _______ _______ _______ _____ _____    ______ ____
ROOT
ATOM      1  C   UNL     1       9.017   9.522  17.995  0.00  0.00    +0.000 C 
ATOM      2  C   UNL     1       7.779   9.005  17.916  0.00  0.00    +0.000 C 
ENDROOT
BRANCH   1   5
ATOM      3  C   UNL     1       9.523  11.623  19.237  0.00  0.00    +0.000 C 
ATOM      4  C   UNL     1       9.280  10.928  20.561  0.00  0.00    +0.000 C 
ATOM      5  C   UNL     1       9.357  10.942  18.075  0.00  0.00    +0.000 C 
BRANCH   3   7
ATOM      6  C   UNL     1       9.481  14.001  18.383  0.00  0.00    +0.000 C 
ATOM      7  C   UNL     1       9.921  13.043  19.223  0.00  0.00    +0.000 C 
BRANCH   6  10
ATOM      8  C   UNL     1      11.925  14.970  16.882  0.00  0.00    +0.000 C 
ATOM      9  C   UNL     1      11.019  15.831  17.730  0.00  0.00    +0.000 C 
ATOM     10  C   UNL     1       9.892  15.414  18.365  0.00  0.00    +0.000 C 
ATOM     11  C   UNL     1       8.908  16.425  19.023  0.00  0.00    +0.000 C 
ATOM     12  C   UNL     1       7.443  16.219  18.566  0.00  0.00    +0.000 C 
ATOM     13  C   UNL     1       8.952  16.287  20.560  0.00  0.00    +0.000 C 
ATOM     14  C   UNL     1       9.257  17.892  18.639  0.00  0.00    +0.000 C 
ATOM     15  C   UNL     1      10.746  18.168  18.724  0.00  0.00    +0.000 C 
ATOM     16  C   UNL     1      11.484  17.274  17.743  0.00  0.00    +0.000 C 
ENDBRANCH   6  10
ENDBRANCH   3   7
ENDBRANCH   1   5
BRANCH   2  17
ATOM     17  C   UNL     1       7.546   7.568  17.735  0.00  0.00    +0.000 C 
ATOM     18  C   UNL     1       8.113   6.652  18.783  0.00  0.00    +0.000 C 
ATOM     19  C   UNL     1       6.832   7.131  16.681  0.00  0.00    +0.000 C 
BRANCH  19  20
ATOM     20  C   UNL     1       6.437   5.760  16.413  0.00  0.00    +0.000 C 
ATOM     21  C   UNL     1       5.242   5.235  16.722  0.00  0.00    +0.000 C 
ATOM     22  C   UNL     1       4.928   3.778  16.634  0.00  0.00    +0.000 C 
ATOM     23  O   UNL     1       5.597   2.897  16.149  0.00  0.00    +0.000 OA
ATOM     24  C   UNL     1       3.633   3.630  17.330  0.00  0.00    +0.000 A 
ATOM     25  C   UNL     1       2.930   2.475  17.622  0.00  0.00    +0.000 A 
ATOM     26  C   UNL     1       1.753   2.606  18.374  0.00  0.00    +0.000 A 
ATOM     27  C   UNL     1       1.313   3.865  18.826  0.00  0.00    +0.000 A 
ATOM     28  C   UNL     1       2.025   5.022  18.511  0.00  0.00    +0.000 A 
ATOM     29  C   UNL     1       3.171   4.871  17.753  0.00  0.00    +0.000 A 
ATOM     30  C   UNL     1       4.075   5.936  17.318  0.00  0.00    +0.000 C 
ATOM     31  O   UNL     1       3.848   7.123  17.410  0.00  0.00    +0.000 OA
ENDBRANCH  19  20
ENDBRANCH   2  17
TORSDOF 5
ENDMDL
MODEL 3
REMARK VINA RESULT:      -8.9      8.074     12.448
REMARK  Name = 
REMARK  10 active torsions:
REMARK  status: ('A' for Active; 'I' for Inactive)
REMARK    1  A    between atoms: C_1  and  C_2
REMARK    2  A    between atoms: C_3  and  C_4
REMARK    3  A    between atoms: C_5  and  C_6
REMARK    4  A    between atoms: C_6  and  C_7
REMARK    5  A    between atoms: C_8  and  C_9
REMARK    6  A    between atoms: C_10  and  C_11
REMARK    7  A    between atoms: C_11  and  C_12
REMARK    8  A    between atoms: C_13  and  C_14
REMARK    9  A    between atoms: C_26  and  C_27
REMARK   10  A    between atoms: C_26  and  C_28
REMARK                            x       y       z     vdW  Elec       q    Type
REMARK                         _______ _______ _______ _____ _____    ______ ____
ROOT
ATOM      1  C   UNL     1       0.035  10.380  20.449  0.00  0.00    +0.000 C 
ATOM      2  C   UNL     1       0.129  11.198  21.511  0.00  0.00    +0.000 C 
ENDROOT
BRANCH   1   5
ATOM      3  C   UNL     1       1.576   8.954  19.105  0.00  0.00    +0.000 C 
ATOM      4  C   UNL     1       1.568   9.965  17.977  0.00  0.00    +0.000 C 
ATOM      5  C   UNL     1       0.827   9.173  20.215  0.00  0.00    +0.000 C 
BRANCH   3   7
ATOM      6  C   UNL     1       2.191   6.711  18.116  0.00  0.00    +0.000 C 
ATOM      7  C   UNL     1       2.387   7.728  18.978  0.00  0.00    +0.000 C 
BRANCH   6  10
ATOM      8  C   UNL     1       4.807   6.608  16.595  0.00  0.00    +0.000 C 
ATOM      9  C   UNL     1       4.142   5.435  17.277  0.00  0.00    +0.000 C 
ATOM     10  C   UNL     1       2.996   5.484  18.003  0.00  0.00    +0.000 C 
ATOM     11  C   UNL     1       2.518   4.269  18.852  0.00  0.00    +0.000 C 
ATOM     12  C   UNL     1       2.204   4.650  20.320  0.00  0.00    +0.000 C 
ATOM     13  C   UNL     1       1.243   3.656  18.234  0.00  0.00    +0.000 C 
ATOM     14  C   UNL     1       3.614   3.168  18.939  0.00  0.00    +0.000 C 
ATOM     15  C   UNL     1       4.268   2.903  17.596  0.00  0.00    +0.000 C 
ATOM     16  C   UNL     1       4.957   4.167  17.110  0.00  0.00    +0.000 C 
ENDBRANCH   6  10
ENDBRANCH   3   7
ENDBRANCH   1   5
BRANCH   2  17
ATOM     17  C   UNL     1      -0.640  12.444  21.603  0.00  0.00    +0.000 C 
ATOM     18  C   UNL     1      -1.060  13.080  20.308  0.00  0.00    +0.000 C 
ATOM     19  C   UNL     1      -0.955  12.950  22.810  0.00  0.00    +0.000 C 
BRANCH  19  20
ATOM     20  C   UNL     1      -1.783  14.115  23.070  0.00  0.00    +0.000 C 
ATOM     21  C   UNL     1      -3.060  14.067  23.476  0.00  0.00    +0.000 C 
ATOM     22  C   UNL     1      -3.956  15.260  23.535  0.00  0.00    +0.000 C 
ATOM     23  O   UNL     1      -3.664  16.423  23.390  0.00  0.00    +0.000 OA
ATOM     24  C   UNL     1      -5.308  14.704  23.750  0.00  0.00    +0.000 A 
ATOM     25  C   UNL     1      -6.524  15.363  23.786  0.00  0.00    +0.000 A 
ATOM     26  C   UNL     1      -7.681  14.581  23.924  0.00  0.00    +0.000 A 
ATOM     27  C   UNL     1      -7.606  13.178  24.009  0.00  0.00    +0.000 A 
ATOM     28  C   UNL     1      -6.372  12.529  23.986  0.00  0.00    +0.000 A 
ATOM     29  C   UNL     1      -5.245  13.320  23.868  0.00  0.00    +0.000 A 
ATOM     30  C   UNL     1      -3.858  12.859  23.811  0.00  0.00    +0.000 C 
ATOM     31  O   UNL     1      -3.490  11.726  24.039  0.00  0.00    +0.000 OA
ENDBRANCH  19  20
ENDBRANCH   2  17
TORSDOF 5
ENDMDL
MODEL 4
REMARK VINA RESULT:      -8.9      1.061      1.236
REMARK  Name = 
REMARK  10 active torsions:
REMARK  status: ('A' for Active; 'I' for Inactive)
REMARK    1  A    between atoms: C_1  and  C_2
REMARK    2  A    between atoms: C_3  and  C_4
REMARK    3  A    between atoms: C_5  and  C_6
REMARK    4  A    between atoms: C_6  and  C_7
REMARK    5  A    between atoms: C_8  and  C_9
REMARK    6  A    between atoms: C_10  and  C_11
REMARK    7  A    between atoms: C_11  and  C_12
REMARK    8  A    between atoms: C_13  and  C_14
REMARK    9  A    between atoms: C_26  and  C_27
REMARK   10  A    between atoms: C_26  and  C_28
REMARK                            x       y       z     vdW  Elec       q    Type
REMARK                         _______ _______ _______ _____ _____    ______ ____
ROOT
ATOM      1  C   UNL     1       7.779   8.584  17.732  0.00  0.00    +0.000 C 
ATOM      2  C   UNL     1       7.657   7.598  16.826  0.00  0.00    +0.000 C 
ENDROOT
BRANCH   1   5
ATOM      3  C   UNL     1       9.129  10.554  18.444  0.00  0.00    +0.000 C 
ATOM      4  C   UNL     1       9.273   9.983  19.840  0.00  0.00    +0.000 C 
ATOM      5  C   UNL     1       8.402   9.889  17.512  0.00  0.00    +0.000 C 
BRANCH   3   7
ATOM      6  C   UNL     1       9.289  13.076  18.374  0.00  0.00    +0.000 C 
ATOM      7  C   UNL     1       9.769  11.843  18.116  0.00  0.00    +0.000 C 
BRANCH   6  10
ATOM      8  C   UNL     1      11.840  13.250  16.754  0.00  0.00    +0.000 C 
ATOM      9  C   UNL     1      11.097  14.424  17.348  0.00  0.00    +0.000 C 
ATOM     10  C   UNL     1       9.925  14.358  18.032  0.00  0.00    +0.000 C 
ATOM     11  C   UNL     1       9.127  15.642  18.404  0.00  0.00    +0.000 C 
ATOM     12  C   UNL     1       7.642  15.572  17.968  0.00  0.00    +0.000 C 
ATOM     13  C   UNL     1       9.166  15.871  19.930  0.00  0.00    +0.000 C 
ATOM     14  C   UNL     1       9.705  16.899  17.692  0.00  0.00    +0.000 C 
ATOM     15  C   UNL     1      11.220  16.944  17.749  0.00  0.00    +0.000 C 
ATOM     16  C   UNL     1      11.791  15.734  17.030  0.00  0.00    +0.000 C 
ENDBRANCH   6  10
ENDBRANCH   3   7
ENDBRANCH   1   5
BRANCH   2  17
ATOM     17  C   UNL     1       7.106   6.285  17.175  0.00  0.00    +0.000 C 
ATOM     18  C   UNL     1       6.847   5.335  16.041  0.00  0.00    +0.000 C 
ATOM     19  C   UNL     1       6.877   5.974  18.465  0.00  0.00    +0.000 C 
BRANCH  19  20
ATOM     20  C   UNL     1       6.426   4.693  18.979  0.00  0.00    +0.000 C 
ATOM     21  C   UNL     1       5.142   4.360  19.174  0.00  0.00    +0.000 C 
ATOM     22  C   UNL     1       4.705   3.129  19.898  0.00  0.00    +0.000 C 
ATOM     23  O   UNL     1       5.383   2.200  20.269  0.00  0.00    +0.000 OA
ATOM     24  C   UNL     1       3.257   3.317  20.122  0.00  0.00    +0.000 A 
ATOM     25  C   UNL     1       2.375   2.520  20.830  0.00  0.00    +0.000 A 
ATOM     26  C   UNL     1       1.054   2.974  20.961  0.00  0.00    +0.000 A 
ATOM     27  C   UNL     1       0.647   4.201  20.404  0.00  0.00    +0.000 A 
ATOM     28  C   UNL     1       1.544   4.986  19.681  0.00  0.00    +0.000 A 
ATOM     29  C   UNL     1       2.834   4.511  19.548  0.00  0.00    +0.000 A 
ATOM     30  C   UNL     1       3.938   5.168  18.848  0.00  0.00    +0.000 C 
ATOM     31  O   UNL     1       3.828   6.140  18.131  0.00  0.00    +0.000 OA
ENDBRANCH  19  20
ENDBRANCH   2  17
TORSDOF 5
ENDMDL
MODEL 5
REMARK VINA RESULT:      -8.8      1.179      2.120
REMARK  Name = 
REMARK  10 active torsions:
REMARK  status: ('A' for Active; 'I' for Inactive)
REMARK    1  A    between atoms: C_1  and  C_2
REMARK    2  A    between atoms: C_3  and  C_4
REMARK    3  A    between atoms: C_5  and  C_6
REMARK    4  A    between atoms: C_6  and  C_7
REMARK    5  A    between atoms: C_8  and  C_9
REMARK    6  A    between atoms: C_10  and  C_11
REMARK    7  A    between atoms: C_11  and  C_12
REMARK    8  A    between atoms: C_13  and  C_14
REMARK    9  A    between atoms: C_26  and  C_27
REMARK   10  A    between atoms: C_26  and  C_28
REMARK                            x       y       z     vdW  Elec       q    Type
REMARK                         _______ _______ _______ _____ _____    ______ ____
ROOT
ATOM      1  C   UNL     1       7.471   8.748  17.576  0.00  0.00    +0.000 C 
ATOM      2  C   UNL     1       7.920   7.591  17.060  0.00  0.00    +0.000 C 
ENDROOT
BRANCH   1   5
ATOM      3  C   UNL     1       9.017  10.536  18.366  0.00  0.00    +0.000 C 
ATOM      4  C   UNL     1       9.343   9.738  19.611  0.00  0.00    +0.000 C 
ATOM      5  C   UNL     1       8.121  10.054  17.469  0.00  0.00    +0.000 C 
BRANCH   3   7
ATOM      6  C   UNL     1       9.160  13.058  18.441  0.00  0.00    +0.000 C 
ATOM      7  C   UNL     1       9.666  11.843  18.149  0.00  0.00    +0.000 C 
BRANCH   6  10
ATOM      8  C   UNL     1       7.587  15.591  17.916  0.00  0.00    +0.000 C 
ATOM      9  C   UNL     1       9.094  15.481  17.924  0.00  0.00    +0.000 C 
ATOM     10  C   UNL     1       9.807  14.360  18.208  0.00  0.00    +0.000 C 
ATOM     11  C   UNL     1      11.349  14.407  18.413  0.00  0.00    +0.000 C 
ATOM     12  C   UNL     1      11.800  13.740  19.736  0.00  0.00    +0.000 C 
ATOM     13  C   UNL     1      12.063  13.688  17.248  0.00  0.00    +0.000 C 
ATOM     14  C   UNL     1      11.869  15.872  18.494  0.00  0.00    +0.000 C 
ATOM     15  C   UNL     1      11.250  16.759  17.431  0.00  0.00    +0.000 C 
ATOM     16  C   UNL     1       9.746  16.818  17.633  0.00  0.00    +0.000 C 
ENDBRANCH   6  10
ENDBRANCH   3   7
ENDBRANCH   1   5
BRANCH   2  17
ATOM     17  C   UNL     1       7.246   6.313  17.310  0.00  0.00    +0.000 C 
ATOM     18  C   UNL     1       6.815   5.526  16.105  0.00  0.00    +0.000 C 
ATOM     19  C   UNL     1       7.060   5.889  18.574  0.00  0.00    +0.000 C 
BRANCH  19  20
ATOM     20  C   UNL     1       6.498   4.614  18.984  0.00  0.00    +0.000 C 
ATOM     21  C   UNL     1       5.190   4.380  19.165  0.00  0.00    +0.000 C 
ATOM     22  C   UNL     1       4.648   3.136  19.788  0.00  0.00    +0.000 C 
ATOM     23  O   UNL     1       5.241   2.123  20.073  0.00  0.00    +0.000 OA
ATOM     24  C   UNL     1       3.223   3.433  20.042  0.00  0.00    +0.000 A 
ATOM     25  C   UNL     1       2.277   2.659  20.691  0.00  0.00    +0.000 A 
ATOM     26  C   UNL     1       1.002   3.216  20.874  0.00  0.00    +0.000 A 
ATOM     27  C   UNL     1       0.703   4.517  20.425  0.00  0.00    +0.000 A 
ATOM     28  C   UNL     1       1.664   5.278  19.760  0.00  0.00    +0.000 A 
ATOM     29  C   UNL     1       2.907   4.703  19.575  0.00  0.00    +0.000 A 
ATOM     30  C   UNL     1       4.062   5.316  18.920  0.00  0.00    +0.000 C 
ATOM     31  O   UNL     1       4.037   6.351  18.288  0.00  0.00    +0.000 OA
ENDBRANCH  19  20
ENDBRANCH   2  17
TORSDOF 5
ENDMDL
MODEL 6
REMARK VINA RESULT:      -8.5      7.971     12.283
REMARK  Name = 
REMARK  10 active torsions:
REMARK  status: ('A' for Active; 'I' for Inactive)
REMARK    1  A    between atoms: C_1  and  C_2
REMARK    2  A    between atoms: C_3  and  C_4
REMARK    3  A    between atoms: C_5  and  C_6
REMARK    4  A    between atoms: C_6  and  C_7
REMARK    5  A    between atoms: C_8  and  C_9
REMARK    6  A    between atoms: C_10  and  C_11
REMARK    7  A    between atoms: C_11  and  C_12
REMARK    8  A    between atoms: C_13  and  C_14
REMARK    9  A    between atoms: C_26  and  C_27
REMARK   10  A    between atoms: C_26  and  C_28
REMARK                            x       y       z     vdW  Elec       q    Type
REMARK                         _______ _______ _______ _____ _____    ______ ____
ROOT
ATOM      1  C   UNL     1       0.174  10.167  20.302  0.00  0.00    +0.000 C 
ATOM      2  C   UNL     1      -0.078  10.725  21.498  0.00  0.00    +0.000 C 
ENDROOT
BRANCH   1   5
ATOM      3  C   UNL     1       1.742   8.721  19.013  0.00  0.00    +0.000 C 
ATOM      4  C   UNL     1       1.899   9.792  17.953  0.00  0.00    +0.000 C 
ATOM      5  C   UNL     1       0.909   8.925  20.064  0.00  0.00    +0.000 C 
BRANCH   3   7
ATOM      6  C   UNL     1       2.600   6.689  17.777  0.00  0.00    +0.000 C 
ATOM      7  C   UNL     1       2.487   7.454  18.882  0.00  0.00    +0.000 C 
BRANCH   6  10
ATOM      8  C   UNL     1       1.240   3.994  18.004  0.00  0.00    +0.000 C 
ATOM      9  C   UNL     1       2.722   4.215  17.810  0.00  0.00    +0.000 C 
ATOM     10  C   UNL     1       3.332   5.418  17.657  0.00  0.00    +0.000 C 
ATOM     11  C   UNL     1       4.827   5.525  17.236  0.00  0.00    +0.000 C 
ATOM     12  C   UNL     1       5.044   6.461  16.022  0.00  0.00    +0.000 C 
ATOM     13  C   UNL     1       5.674   6.062  18.411  0.00  0.00    +0.000 C 
ATOM     14  C   UNL     1       5.395   4.144  16.797  0.00  0.00    +0.000 C 
ATOM     15  C   UNL     1       4.983   3.029  17.739  0.00  0.00    +0.000 C 
ATOM     16  C   UNL     1       3.470   2.898  17.738  0.00  0.00    +0.000 C 
ENDBRANCH   6  10
ENDBRANCH   3   7
ENDBRANCH   1   5
BRANCH   2  17
ATOM     17  C   UNL     1      -0.737  12.030  21.625  0.00  0.00    +0.000 C 
ATOM     18  C   UNL     1      -1.203  12.680  20.353  0.00  0.00    +0.000 C 
ATOM     19  C   UNL     1      -0.918  12.574  22.842  0.00  0.00    +0.000 C 
BRANCH  19  20
ATOM     20  C   UNL     1      -1.630  13.804  23.142  0.00  0.00    +0.000 C 
ATOM     21  C   UNL     1      -2.909  13.868  23.537  0.00  0.00    +0.000 C 
ATOM     22  C   UNL     1      -3.684  15.140  23.636  0.00  0.00    +0.000 C 
ATOM     23  O   UNL     1      -3.277  16.274  23.540  0.00  0.00    +0.000 OA
ATOM     24  C   UNL     1      -5.087  14.713  23.819  0.00  0.00    +0.000 A 
ATOM     25  C   UNL     1      -6.232  15.489  23.873  0.00  0.00    +0.000 A 
ATOM     26  C   UNL     1      -7.462  14.821  23.971  0.00  0.00    +0.000 A 
ATOM     27  C   UNL     1      -7.527  13.414  24.001  0.00  0.00    +0.000 A 
ATOM     28  C   UNL     1      -6.363  12.648  23.960  0.00  0.00    +0.000 A 
ATOM     29  C   UNL     1      -5.162  13.326  23.882  0.00  0.00    +0.000 A 
ATOM     30  C   UNL     1      -3.827  12.733  23.817  0.00  0.00    +0.000 C 
ATOM     31  O   UNL     1      -3.576  11.561  24.003  0.00  0.00    +0.000 OA
ENDBRANCH  19  20
ENDBRANCH   2  17
TORSDOF 5
ENDMDL
MODEL 7
REMARK VINA RESULT:      -8.4      1.490      2.374
REMARK  Name = 
REMARK  10 active torsions:
REMARK  status: ('A' for Active; 'I' for Inactive)
REMARK    1  A    between atoms: C_1  and  C_2
REMARK    2  A    between atoms: C_3  and  C_4
REMARK    3  A    between atoms: C_5  and  C_6
REMARK    4  A    between atoms: C_6  and  C_7
REMARK    5  A    between atoms: C_8  and  C_9
REMARK    6  A    between atoms: C_10  and  C_11
REMARK    7  A    between atoms: C_11  and  C_12
REMARK    8  A    between atoms: C_13  and  C_14
REMARK    9  A    between atoms: C_26  and  C_27
REMARK   10  A    between atoms: C_26  and  C_28
REMARK                            x       y       z     vdW  Elec       q    Type
REMARK                         _______ _______ _______ _____ _____    ______ ____
ROOT
ATOM      1  C   UNL     1       8.189   8.383  18.176  0.00  0.00    +0.000 C 
ATOM      2  C   UNL     1       8.190   7.101  18.578  0.00  0.00    +0.000 C 
ENDROOT
BRANCH   1   5
ATOM      3  C   UNL     1       8.895  10.767  18.354  0.00  0.00    +0.000 C 
ATOM      4  C   UNL     1       8.038  11.136  17.160  0.00  0.00    +0.000 C 
ATOM      5  C   UNL     1       8.960   9.476  18.767  0.00  0.00    +0.000 C 
BRANCH   3   7
ATOM      6  C   UNL     1       9.467  13.147  18.982  0.00  0.00    +0.000 C 
ATOM      7  C   UNL     1       9.668  11.815  19.046  0.00  0.00    +0.000 C 
BRANCH   6  10
ATOM      8  C   UNL     1       9.222  13.695  21.950  0.00  0.00    +0.000 C 
ATOM      9  C   UNL     1      10.097  14.462  20.986  0.00  0.00    +0.000 C 
ATOM     10  C   UNL     1      10.251  14.190  19.664  0.00  0.00    +0.000 C 
ATOM     11  C   UNL     1      11.347  14.893  18.811  0.00  0.00    +0.000 C 
ATOM     12  C   UNL     1      12.231  13.893  18.026  0.00  0.00    +0.000 C 
ATOM     13  C   UNL     1      10.694  15.854  17.793  0.00  0.00    +0.000 C 
ATOM     14  C   UNL     1      12.333  15.701  19.704  0.00  0.00    +0.000 C 
ATOM     15  C   UNL     1      11.614  16.506  20.769  0.00  0.00    +0.000 C 
ATOM     16  C   UNL     1      10.860  15.565  21.693  0.00  0.00    +0.000 C 
ENDBRANCH   6  10
ENDBRANCH   3   7
ENDBRANCH   1   5
BRANCH   2  17
ATOM     17  C   UNL     1       7.302   6.097  17.982  0.00  0.00    +0.000 C 
ATOM     18  C   UNL     1       7.778   4.672  18.004  0.00  0.00    +0.000 C 
ATOM     19  C   UNL     1       6.114   6.471  17.471  0.00  0.00    +0.000 C 
BRANCH  19  20
ATOM     20  C   UNL     1       5.089   5.594  16.935  0.00  0.00    +0.000 C 
ATOM     21  C   UNL     1       4.058   5.105  17.639  0.00  0.00    +0.000 C 
ATOM     22  C   UNL     1       3.138   4.043  17.134  0.00  0.00    +0.000 C 
ATOM     23  O   UNL     1       3.067   3.583  16.020  0.00  0.00    +0.000 OA
ATOM     24  C   UNL     1       2.362   3.624  18.319  0.00  0.00    +0.000 A 
ATOM     25  C   UNL     1       1.434   2.603  18.435  0.00  0.00    +0.000 A 
ATOM     26  C   UNL     1       0.897   2.357  19.708  0.00  0.00    +0.000 A 
ATOM     27  C   UNL     1       1.298   3.113  20.826  0.00  0.00    +0.000 A 
ATOM     28  C   UNL     1       2.223   4.148  20.690  0.00  0.00    +0.000 A 
ATOM     29  C   UNL     1       2.725   4.384  19.425  0.00  0.00    +0.000 A 
ATOM     30  C   UNL     1       3.707   5.402  19.052  0.00  0.00    +0.000 C 
ATOM     31  O   UNL     1       4.087   6.301  19.773  0.00  0.00    +0.000 OA
ENDBRANCH  19  20
ENDBRANCH   2  17
TORSDOF 5
ENDMDL
MODEL 8
REMARK VINA RESULT:      -8.3      1.465      1.770
REMARK  Name = 
REMARK  10 active torsions:
REMARK  status: ('A' for Active; 'I' for Inactive)
REMARK    1  A    between atoms: C_1  and  C_2
REMARK    2  A    between atoms: C_3  and  C_4
REMARK    3  A    between atoms: C_5  and  C_6
REMARK    4  A    between atoms: C_6  and  C_7
REMARK    5  A    between atoms: C_8  and  C_9
REMARK    6  A    between atoms: C_10  and  C_11
REMARK    7  A    between atoms: C_11  and  C_12
REMARK    8  A    between atoms: C_13  and  C_14
REMARK    9  A    between atoms: C_26  and  C_27
REMARK   10  A    between atoms: C_26  and  C_28
REMARK                            x       y       z     vdW  Elec       q    Type
REMARK                         _______ _______ _______ _____ _____    ______ ____
ROOT
ATOM      1  C   UNL     1       7.691   7.723  18.130  0.00  0.00    +0.000 C 
ATOM      2  C   UNL     1       7.801   6.867  17.100  0.00  0.00    +0.000 C 
ENDROOT
BRANCH   1   5
ATOM      3  C   UNL     1       8.406  10.111  18.168  0.00  0.00    +0.000 C 
ATOM      4  C   UNL     1       7.173  10.518  17.388  0.00  0.00    +0.000 C 
ATOM      5  C   UNL     1       8.620   8.803  18.461  0.00  0.00    +0.000 C 
BRANCH   3   7
ATOM      6  C   UNL     1       9.201  12.478  18.559  0.00  0.00    +0.000 C 
ATOM      7  C   UNL     1       9.374  11.141  18.590  0.00  0.00    +0.000 C 
BRANCH   6  10
ATOM      8  C   UNL     1      11.639  13.163  16.900  0.00  0.00    +0.000 C 
ATOM      9  C   UNL     1      11.294  13.766  18.241  0.00  0.00    +0.000 C 
ATOM     10  C   UNL     1      10.176  13.502  18.967  0.00  0.00    +0.000 C 
ATOM     11  C   UNL     1       9.804  14.343  20.222  0.00  0.00    +0.000 C 
ATOM     12  C   UNL     1       8.352  14.880  20.175  0.00  0.00    +0.000 C 
ATOM     13  C   UNL     1       9.956  13.490  21.500  0.00  0.00    +0.000 C 
ATOM     14  C   UNL     1      10.705  15.605  20.351  0.00  0.00    +0.000 C 
ATOM     15  C   UNL     1      12.167  15.294  20.093  0.00  0.00    +0.000 C 
ATOM     16  C   UNL     1      12.333  14.782  18.672  0.00  0.00    +0.000 C 
ENDBRANCH   6  10
ENDBRANCH   3   7
ENDBRANCH   1   5
BRANCH   2  17
ATOM     17  C   UNL     1       6.868   5.751  16.912  0.00  0.00    +0.000 C 
ATOM     18  C   UNL     1       7.427   4.365  17.078  0.00  0.00    +0.000 C 
ATOM     19  C   UNL     1       5.576   5.996  16.629  0.00  0.00    +0.000 C 
BRANCH  19  20
ATOM     20  C   UNL     1       4.515   5.012  16.507  0.00  0.00    +0.000 C 
ATOM     21  C   UNL     1       3.655   4.692  17.485  0.00  0.00    +0.000 C 
ATOM     22  C   UNL     1       2.713   3.536  17.415  0.00  0.00    +0.000 C 
ATOM     23  O   UNL     1       2.463   2.831  16.467  0.00  0.00    +0.000 OA
ATOM     24  C   UNL     1       2.187   3.396  18.789  0.00  0.00    +0.000 A 
ATOM     25  C   UNL     1       1.349   2.423  19.304  0.00  0.00    +0.000 A 
ATOM     26  C   UNL     1       1.065   2.474  20.678  0.00  0.00    +0.000 A 
ATOM     27  C   UNL     1       1.625   3.470  21.501  0.00  0.00    +0.000 A 
ATOM     28  C   UNL     1       2.457   4.452  20.963  0.00  0.00    +0.000 A 
ATOM     29  C   UNL     1       2.707   4.394  19.606  0.00  0.00    +0.000 A 
ATOM     30  C   UNL     1       3.553   5.305  18.835  0.00  0.00    +0.000 C 
ATOM     31  O   UNL     1       4.012   6.348  19.250  0.00  0.00    +0.000 OA
ENDBRANCH  19  20
ENDBRANCH   2  17
TORSDOF 5
ENDMDL
MODEL 9
REMARK VINA RESULT:      -8.3      7.993     12.636
REMARK  Name = 
REMARK  10 active torsions:
REMARK  status: ('A' for Active; 'I' for Inactive)
REMARK    1  A    between atoms: C_1  and  C_2
REMARK    2  A    between atoms: C_3  and  C_4
REMARK    3  A    between atoms: C_5  and  C_6
REMARK    4  A    between atoms: C_6  and  C_7
REMARK    5  A    between atoms: C_8  and  C_9
REMARK    6  A    between atoms: C_10  and  C_11
REMARK    7  A    between atoms: C_11  and  C_12
REMARK    8  A    between atoms: C_13  and  C_14
REMARK    9  A    between atoms: C_26  and  C_27
REMARK   10  A    between atoms: C_26  and  C_28
REMARK                            x       y       z     vdW  Elec       q    Type
REMARK                         _______ _______ _______ _____ _____    ______ ____
ROOT
ATOM      1  C   UNL     1       0.758  10.244  20.494  0.00  0.00    +0.000 C 
ATOM      2  C   UNL     1      -0.484  10.717  20.695  0.00  0.00    +0.000 C 
ENDROOT
BRANCH   1   5
ATOM      3  C   UNL     1       1.642   8.574  18.868  0.00  0.00    +0.000 C 
ATOM      4  C   UNL     1       1.838   9.656  17.826  0.00  0.00    +0.000 C 
ATOM      5  C   UNL     1       1.109   8.887  20.076  0.00  0.00    +0.000 C 
BRANCH   3   7
ATOM      6  C   UNL     1       2.619   6.299  19.374  0.00  0.00    +0.000 C 
ATOM      7  C   UNL     1       2.018   7.183  18.553  0.00  0.00    +0.000 C 
BRANCH   6  10
ATOM      8  C   UNL     1       4.824   5.638  17.407  0.00  0.00    +0.000 C 
ATOM      9  C   UNL     1       3.960   4.629  18.127  0.00  0.00    +0.000 C 
ATOM     10  C   UNL     1       3.004   4.916  19.049  0.00  0.00    +0.000 C 
ATOM     11  C   UNL     1       2.331   3.798  19.898  0.00  0.00    +0.000 C 
ATOM     12  C   UNL     1       2.372   4.092  21.417  0.00  0.00    +0.000 C 
ATOM     13  C   UNL     1       0.853   3.631  19.483  0.00  0.00    +0.000 C 
ATOM     14  C   UNL     1       3.059   2.433  19.723  0.00  0.00    +0.000 C 
ATOM     15  C   UNL     1       3.392   2.143  18.272  0.00  0.00    +0.000 C 
ATOM     16  C   UNL     1       4.334   3.211  17.745  0.00  0.00    +0.000 C 
ENDBRANCH   6  10
ENDBRANCH   3   7
ENDBRANCH   1   5
BRANCH   2  17
ATOM     17  C   UNL     1      -0.728  12.067  21.214  0.00  0.00    +0.000 C 
ATOM     18  C   UNL     1      -0.974  13.149  20.201  0.00  0.00    +0.000 C 
ATOM     19  C   UNL     1      -0.745  12.283  22.542  0.00  0.00    +0.000 C 
BRANCH  19  20
ATOM     20  C   UNL     1      -1.061  13.532  23.212  0.00  0.00    +0.000 C 
ATOM     21  C   UNL     1      -2.295  13.912  23.574  0.00  0.00    +0.000 C 
ATOM     22  C   UNL     1      -2.630  15.282  24.066  0.00  0.00    +0.000 C 
ATOM     23  O   UNL     1      -1.874  16.178  24.357  0.00  0.00    +0.000 OA
ATOM     24  C   UNL     1      -4.106  15.331  24.064  0.00  0.00    +0.000 A 
ATOM     25  C   UNL     1      -4.941  16.400  24.341  0.00  0.00    +0.000 A 
ATOM     26  C   UNL     1      -6.321  16.200  24.185  0.00  0.00    +0.000 A 
ATOM     27  C   UNL     1      -6.834  14.963  23.750  0.00  0.00    +0.000 A 
ATOM     28  C   UNL     1      -5.980  13.892  23.489  0.00  0.00    +0.000 A 
ATOM     29  C   UNL     1      -4.627  14.105  23.667  0.00  0.00    +0.000 A 
ATOM     30  C   UNL     1      -3.555  13.135  23.444  0.00  0.00    +0.000 C 
ATOM     31  O   UNL     1      -3.717  11.951  23.241  0.00  0.00    +0.000 OA
ENDBRANCH  19  20
ENDBRANCH   2  17
TORSDOF 5
ENDMDL
