MODEL 1
REMARK VINA RESULT:      -7.1      0.000      0.000
REMARK  Name = 
REMARK  11 active torsions:
REMARK  status: ('A' for Active; 'I' for Inactive)
REMARK    1  A    between atoms: C_1  and  C_2
REMARK    2  A    between atoms: C_2  and  C_3
REMARK    3  A    between atoms: C_3  and  O_4
REMARK    4  A    between atoms: O_4  and  C_5
REMARK    5  A    between atoms: C_5  and  C_6
REMARK    6  A    between atoms: C_6  and  C_7
REMARK    7  A    between atoms: C_7  and  N_8
REMARK    8  A    between atoms: N_8  and  C_9
REMARK    9  A    between atoms: C_9  and  N_11
REMARK   10  A    between atoms: N_11  and  C_12
REMARK   11  A    between atoms: C_17  and  C_18
REMARK                            x       y       z     vdW  Elec       q    Type
REMARK                         _______ _______ _______ _____ _____    ______ ____
ROOT
ATOM      1  N   UNL     1       5.942   3.981  18.644  0.00  0.00    +0.000 N 
ATOM      2  H   UNL     1       6.624   3.484  19.206  0.00  0.00    +0.000 HD
ENDROOT
BRANCH   1   3
ATOM      3  C   UNL     1       4.618   3.500  18.688  0.00  0.00    +0.000 A 
ATOM      4  C   UNL     1       4.114   2.701  17.668  0.00  0.00    +0.000 A 
ATOM      5  C   UNL     1       2.794   2.265  17.703  0.00  0.00    +0.000 A 
ATOM      6  C   UNL     1       1.957   2.612  18.770  0.00  0.00    +0.000 A 
ATOM      7 CL   UNL     1       0.330   2.053  18.673  0.00  0.00    +0.000 Cl
ATOM      8  C   UNL     1       2.456   3.372  19.836  0.00  0.00    +0.000 A 
ATOM      9  C   UNL     1       3.807   3.793  19.794  0.00  0.00    +0.000 A 
BRANCH   8  10
ATOM     10  C   UNL     1       1.640   3.779  21.037  0.00  0.00    +0.000 C 
ATOM     11  F   UNL     1       1.103   2.780  21.780  0.00  0.00    +0.000 F 
ATOM     12  F   UNL     1       2.378   4.526  21.911  0.00  0.00    +0.000 F 
ATOM     13  F   UNL     1       0.589   4.575  20.687  0.00  0.00    +0.000 F 
ENDBRANCH   8  10
ENDBRANCH   1   3
BRANCH   1  14
ATOM     14  C   UNL     1       6.318   5.304  18.411  0.00  0.00    +0.000 C 
ATOM     15  S   UNL     1       7.770   6.000  18.874  0.00  0.00    +0.000 S 
BRANCH  14  16
ATOM     16  N   UNL     1       5.352   5.933  17.645  0.00  0.00    +0.000 N 
ATOM     17  H   UNL     1       4.589   6.353  18.161  0.00  0.00    +0.000 HD
BRANCH  16  18
ATOM     18  C   UNL     1       5.442   6.250  16.223  0.00  0.00    +0.000 C 
BRANCH  18  19
ATOM     19  C   UNL     1       6.331   5.229  15.516  0.00  0.00    +0.000 C 
BRANCH  19  20
ATOM     20  C   UNL     1       5.554   4.412  14.494  0.00  0.00    +0.000 C 
BRANCH  20  21
ATOM     21  O   UNL     1       6.457   3.555  13.802  0.00  0.00    +0.000 OA
BRANCH  21  22
ATOM     22  C   UNL     1       6.344   3.691  12.389  0.00  0.00    +0.000 C 
BRANCH  22  24
ATOM     23  C   UNL     1       4.147   3.259  11.251  0.00  0.00    +0.000 C 
ATOM     24  C   UNL     1       5.379   2.631  11.876  0.00  0.00    +0.000 C 
ENDBRANCH  22  24
ENDBRANCH  21  22
ENDBRANCH  20  21
ENDBRANCH  19  20
ENDBRANCH  18  19
ENDBRANCH  16  18
ENDBRANCH  14  16
ENDBRANCH   1  14
TORSDOF 10
ENDMDL
MODEL 2
REMARK VINA RESULT:      -6.9      0.569      1.103
REMARK  Name = 
REMARK  11 active torsions:
REMARK  status: ('A' for Active; 'I' for Inactive)
REMARK    1  A    between atoms: C_1  and  C_2
REMARK    2  A    between atoms: C_2  and  C_3
REMARK    3  A    between atoms: C_3  and  O_4
REMARK    4  A    between atoms: O_4  and  C_5
REMARK    5  A    between atoms: C_5  and  C_6
REMARK    6  A    between atoms: C_6  and  C_7
REMARK    7  A    between atoms: C_7  and  N_8
REMARK    8  A    between atoms: N_8  and  C_9
REMARK    9  A    between atoms: C_9  and  N_11
REMARK   10  A    between atoms: N_11  and  C_12
REMARK   11  A    between atoms: C_17  and  C_18
REMARK                            x       y       z     vdW  Elec       q    Type
REMARK                         _______ _______ _______ _____ _____    ______ ____
ROOT
ATOM      1  N   UNL     1       5.982   3.933  18.635  0.00  0.00    +0.000 N 
ATOM      2  H   UNL     1       6.627   3.524  19.302  0.00  0.00    +0.000 HD
ENDROOT
BRANCH   1   3
ATOM      3  C   UNL     1       4.651   3.471  18.680  0.00  0.00    +0.000 A 
ATOM      4  C   UNL     1       4.147   2.647  17.680  0.00  0.00    +0.000 A 
ATOM      5  C   UNL     1       2.821   2.229  17.716  0.00  0.00    +0.000 A 
ATOM      6  C   UNL     1       1.978   2.620  18.762  0.00  0.00    +0.000 A 
ATOM      7 CL   UNL     1       0.345   2.080  18.665  0.00  0.00    +0.000 Cl
ATOM      8  C   UNL     1       2.476   3.407  19.809  0.00  0.00    +0.000 A 
ATOM      9  C   UNL     1       3.834   3.808  19.767  0.00  0.00    +0.000 A 
BRANCH   8  10
ATOM     10  C   UNL     1       1.654   3.862  20.988  0.00  0.00    +0.000 C 
ATOM     11  F   UNL     1       0.594   4.665  20.722  0.00  0.00    +0.000 F 
ATOM     12  F   UNL     1       1.143   2.801  21.679  0.00  0.00    +0.000 F 
ATOM     13  F   UNL     1       2.408   4.549  21.895  0.00  0.00    +0.000 F 
ENDBRANCH   8  10
ENDBRANCH   1   3
BRANCH   1  14
ATOM     14  C   UNL     1       6.387   5.203  18.225  0.00  0.00    +0.000 C 
ATOM     15  S   UNL     1       7.714   6.040  18.813  0.00  0.00    +0.000 S 
BRANCH  14  16
ATOM     16  N   UNL     1       5.585   5.631  17.181  0.00  0.00    +0.000 N 
ATOM     17  H   UNL     1       4.666   5.964  17.443  0.00  0.00    +0.000 HD
BRANCH  16  18
ATOM     18  C   UNL     1       6.007   5.868  15.803  0.00  0.00    +0.000 C 
BRANCH  18  19
ATOM     19  C   UNL     1       6.922   4.737  15.336  0.00  0.00    +0.000 C 
BRANCH  19  20
ATOM     20  C   UNL     1       6.138   3.605  14.690  0.00  0.00    +0.000 C 
BRANCH  20  21
ATOM     21  O   UNL     1       5.638   4.046  13.432  0.00  0.00    +0.000 OA
BRANCH  21  22
ATOM     22  C   UNL     1       6.364   3.486  12.342  0.00  0.00    +0.000 C 
BRANCH  22  24
ATOM     23  C   UNL     1       6.300   1.270  11.162  0.00  0.00    +0.000 C 
ATOM     24  C   UNL     1       5.483   2.451  11.656  0.00  0.00    +0.000 C 
ENDBRANCH  22  24
ENDBRANCH  21  22
ENDBRANCH  20  21
ENDBRANCH  19  20
ENDBRANCH  18  19
ENDBRANCH  16  18
ENDBRANCH  14  16
ENDBRANCH   1  14
TORSDOF 10
ENDMDL
MODEL 3
REMARK VINA RESULT:      -6.7      1.164      1.724
REMARK  Name = 
REMARK  11 active torsions:
REMARK  status: ('A' for Active; 'I' for Inactive)
REMARK    1  A    between atoms: C_1  and  C_2
REMARK    2  A    between atoms: C_2  and  C_3
REMARK    3  A    between atoms: C_3  and  O_4
REMARK    4  A    between atoms: O_4  and  C_5
REMARK    5  A    between atoms: C_5  and  C_6
REMARK    6  A    between atoms: C_6  and  C_7
REMARK    7  A    between atoms: C_7  and  N_8
REMARK    8  A    between atoms: N_8  and  C_9
REMARK    9  A    between atoms: C_9  and  N_11
REMARK   10  A    between atoms: N_11  and  C_12
REMARK   11  A    between atoms: C_17  and  C_18
REMARK                            x       y       z     vdW  Elec       q    Type
REMARK                         _______ _______ _______ _____ _____    ______ ____
ROOT
ATOM      1  N   UNL     1       5.334   5.518  17.468  0.00  0.00    +0.000 N 
ATOM      2  H   UNL     1       5.224   6.109  16.651  0.00  0.00    +0.000 HD
ENDROOT
BRANCH   1   3
ATOM      3  C   UNL     1       4.220   4.736  17.834  0.00  0.00    +0.000 A 
ATOM      4  C   UNL     1       3.764   3.714  17.008  0.00  0.00    +0.000 A 
ATOM      5  C   UNL     1       2.640   2.975  17.361  0.00  0.00    +0.000 A 
ATOM      6  C   UNL     1       1.960   3.238  18.555  0.00  0.00    +0.000 A 
ATOM      7 CL   UNL     1       0.554   2.288  18.855  0.00  0.00    +0.000 Cl
ATOM      8  C   UNL     1       2.431   4.226  19.430  0.00  0.00    +0.000 A 
ATOM      9  C   UNL     1       3.587   4.958  19.064  0.00  0.00    +0.000 A 
BRANCH   8  10
ATOM     10  C   UNL     1       1.780   4.569  20.746  0.00  0.00    +0.000 C 
ATOM     11  F   UNL     1       2.190   5.710  21.353  0.00  0.00    +0.000 F 
ATOM     12  F   UNL     1       0.426   4.692  20.616  0.00  0.00    +0.000 F 
ATOM     13  F   UNL     1       1.962   3.583  21.671  0.00  0.00    +0.000 F 
ENDBRANCH   8  10
ENDBRANCH   1   3
BRANCH   1  14
ATOM     14  C   UNL     1       6.669   5.190  17.702  0.00  0.00    +0.000 C 
ATOM     15  S   UNL     1       7.536   5.559  19.088  0.00  0.00    +0.000 S 
BRANCH  14  16
ATOM     16  N   UNL     1       7.147   4.418  16.657  0.00  0.00    +0.000 N 
ATOM     17  H   UNL     1       7.210   3.425  16.840  0.00  0.00    +0.000 HD
BRANCH  16  18
ATOM     18  C   UNL     1       7.336   4.850  15.275  0.00  0.00    +0.000 C 
BRANCH  18  19
ATOM     19  C   UNL     1       6.018   4.744  14.510  0.00  0.00    +0.000 C 
BRANCH  19  20
ATOM     20  C   UNL     1       6.106   3.747  13.364  0.00  0.00    +0.000 C 
BRANCH  20  21
ATOM     21  O   UNL     1       4.807   3.561  12.810  0.00  0.00    +0.000 OA
BRANCH  21  22
ATOM     22  C   UNL     1       4.852   3.357  11.402  0.00  0.00    +0.000 C 
BRANCH  22  24
ATOM     23  C   UNL     1       3.103   3.946   9.697  0.00  0.00    +0.000 C 
ATOM     24  C   UNL     1       3.437   3.091  10.907  0.00  0.00    +0.000 C 
ENDBRANCH  22  24
ENDBRANCH  21  22
ENDBRANCH  20  21
ENDBRANCH  19  20
ENDBRANCH  18  19
ENDBRANCH  16  18
ENDBRANCH  14  16
ENDBRANCH   1  14
TORSDOF 10
ENDMDL
MODEL 4
REMARK VINA RESULT:      -6.6      3.097      4.861
REMARK  Name = 
REMARK  11 active torsions:
REMARK  status: ('A' for Active; 'I' for Inactive)
REMARK    1  A    between atoms: C_1  and  C_2
REMARK    2  A    between atoms: C_2  and  C_3
REMARK    3  A    between atoms: C_3  and  O_4
REMARK    4  A    between atoms: O_4  and  C_5
REMARK    5  A    between atoms: C_5  and  C_6
REMARK    6  A    between atoms: C_6  and  C_7
REMARK    7  A    between atoms: C_7  and  N_8
REMARK    8  A    between atoms: N_8  and  C_9
REMARK    9  A    between atoms: C_9  and  N_11
REMARK   10  A    between atoms: N_11  and  C_12
REMARK   11  A    between atoms: C_17  and  C_18
REMARK                            x       y       z     vdW  Elec       q    Type
REMARK                         _______ _______ _______ _____ _____    ______ ____
ROOT
ATOM      1  N   UNL     1       5.309   3.666  16.836  0.00  0.00    +0.000 N 
ATOM      2  H   UNL     1       5.684   2.804  17.217  0.00  0.00    +0.000 HD
ENDROOT
BRANCH   1   3
ATOM      3  C   UNL     1       4.408   4.376  17.655  0.00  0.00    +0.000 A 
ATOM      4  C   UNL     1       4.222   5.745  17.492  0.00  0.00    +0.000 A 
ATOM      5  C   UNL     1       3.360   6.442  18.331  0.00  0.00    +0.000 A 
ATOM      6  C   UNL     1       2.659   5.778  19.343  0.00  0.00    +0.000 A 
ATOM      7 CL   UNL     1       1.662   6.760  20.349  0.00  0.00    +0.000 Cl
ATOM      8  C   UNL     1       2.788   4.391  19.495  0.00  0.00    +0.000 A 
ATOM      9  C   UNL     1       3.655   3.693  18.620  0.00  0.00    +0.000 A 
BRANCH   8  10
ATOM     10  C   UNL     1       2.061   3.584  20.540  0.00  0.00    +0.000 C 
ATOM     11  F   UNL     1       2.461   3.743  21.826  0.00  0.00    +0.000 F 
ATOM     12  F   UNL     1       0.722   3.857  20.539  0.00  0.00    +0.000 F 
ATOM     13  F   UNL     1       2.151   2.244  20.297  0.00  0.00    +0.000 F 
ENDBRANCH   8  10
ENDBRANCH   1   3
BRANCH   1  14
ATOM     14  C   UNL     1       6.154   4.228  15.880  0.00  0.00    +0.000 C 
ATOM     15  S   UNL     1       5.945   4.136  14.220  0.00  0.00    +0.000 S 
BRANCH  14  16
ATOM     16  N   UNL     1       7.140   4.967  16.510  0.00  0.00    +0.000 N 
ATOM     17  H   UNL     1       7.244   5.920  16.189  0.00  0.00    +0.000 HD
BRANCH  16  18
ATOM     18  C   UNL     1       7.864   4.593  17.722  0.00  0.00    +0.000 C 
BRANCH  18  19
ATOM     19  C   UNL     1       7.446   5.499  18.879  0.00  0.00    +0.000 C 
BRANCH  19  20
ATOM     20  C   UNL     1       8.124   6.859  18.807  0.00  0.00    +0.000 C 
BRANCH  20  21
ATOM     21  O   UNL     1       7.684   7.534  17.633  0.00  0.00    +0.000 OA
BRANCH  21  22
ATOM     22  C   UNL     1       7.968   8.929  17.681  0.00  0.00    +0.000 C 
BRANCH  22  24
ATOM     23  C   UNL     1       9.343  10.647  18.892  0.00  0.00    +0.000 C 
ATOM     24  C   UNL     1       8.927   9.187  18.835  0.00  0.00    +0.000 C 
ENDBRANCH  22  24
ENDBRANCH  21  22
ENDBRANCH  20  21
ENDBRANCH  19  20
ENDBRANCH  18  19
ENDBRANCH  16  18
ENDBRANCH  14  16
ENDBRANCH   1  14
TORSDOF 10
ENDMDL
MODEL 5
REMARK VINA RESULT:      -6.6      2.238      2.915
REMARK  Name = 
REMARK  11 active torsions:
REMARK  status: ('A' for Active; 'I' for Inactive)
REMARK    1  A    between atoms: C_1  and  C_2
REMARK    2  A    between atoms: C_2  and  C_3
REMARK    3  A    between atoms: C_3  and  O_4
REMARK    4  A    between atoms: O_4  and  C_5
REMARK    5  A    between atoms: C_5  and  C_6
REMARK    6  A    between atoms: C_6  and  C_7
REMARK    7  A    between atoms: C_7  and  N_8
REMARK    8  A    between atoms: N_8  and  C_9
REMARK    9  A    between atoms: C_9  and  N_11
REMARK   10  A    between atoms: N_11  and  C_12
REMARK   11  A    between atoms: C_17  and  C_18
REMARK                            x       y       z     vdW  Elec       q    Type
REMARK                         _______ _______ _______ _____ _____    ______ ____
ROOT
ATOM      1  N   UNL     1       4.931   6.677  16.828  0.00  0.00    +0.000 N 
ATOM      2  H   UNL     1       4.616   7.035  15.933  0.00  0.00    +0.000 HD
ENDROOT
BRANCH   1   3
ATOM      3  C   UNL     1       3.956   6.060  17.638  0.00  0.00    +0.000 A 
ATOM      4  C   UNL     1       3.114   6.818  18.444  0.00  0.00    +0.000 A 
ATOM      5  C   UNL     1       2.183   6.196  19.268  0.00  0.00    +0.000 A 
ATOM      6  C   UNL     1       2.070   4.802  19.291  0.00  0.00    +0.000 A 
ATOM      7 CL   UNL     1       0.914   4.150  20.391  0.00  0.00    +0.000 Cl
ATOM      8  C   UNL     1       2.870   4.018  18.449  0.00  0.00    +0.000 A 
ATOM      9  C   UNL     1       3.801   4.668  17.602  0.00  0.00    +0.000 A 
BRANCH   8  10
ATOM     10  C   UNL     1       2.809   2.513  18.386  0.00  0.00    +0.000 C 
ATOM     11  F   UNL     1       2.972   1.844  19.555  0.00  0.00    +0.000 F 
ATOM     12  F   UNL     1       1.614   2.083  17.885  0.00  0.00    +0.000 F 
ATOM     13  F   UNL     1       3.754   2.003  17.544  0.00  0.00    +0.000 F 
ENDBRANCH   8  10
ENDBRANCH   1   3
BRANCH   1  14
ATOM     14  C   UNL     1       6.292   6.373  16.822  0.00  0.00    +0.000 C 
ATOM     15  S   UNL     1       7.331   6.529  18.127  0.00  0.00    +0.000 S 
BRANCH  14  16
ATOM     16  N   UNL     1       6.639   5.823  15.600  0.00  0.00    +0.000 N 
ATOM     17  H   UNL     1       6.901   6.485  14.881  0.00  0.00    +0.000 HD
BRANCH  16  18
ATOM     18  C   UNL     1       6.889   4.411  15.324  0.00  0.00    +0.000 C 
BRANCH  18  19
ATOM     19  C   UNL     1       5.828   3.871  14.368  0.00  0.00    +0.000 C 
BRANCH  19  20
ATOM     20  C   UNL     1       6.405   3.569  12.993  0.00  0.00    +0.000 C 
BRANCH  20  21
ATOM     21  O   UNL     1       5.491   4.016  11.997  0.00  0.00    +0.000 OA
BRANCH  21  22
ATOM     22  C   UNL     1       4.817   2.933  11.365  0.00  0.00    +0.000 C 
BRANCH  22  24
ATOM     23  C   UNL     1       3.064   3.674   9.727  0.00  0.00    +0.000 C 
ATOM     24  C   UNL     1       3.356   3.317  11.173  0.00  0.00    +0.000 C 
ENDBRANCH  22  24
ENDBRANCH  21  22
ENDBRANCH  20  21
ENDBRANCH  19  20
ENDBRANCH  18  19
ENDBRANCH  16  18
ENDBRANCH  14  16
ENDBRANCH   1  14
TORSDOF 10
ENDMDL
MODEL 6
REMARK VINA RESULT:      -6.5      0.811      1.344
REMARK  Name = 
REMARK  11 active torsions:
REMARK  status: ('A' for Active; 'I' for Inactive)
REMARK    1  A    between atoms: C_1  and  C_2
REMARK    2  A    between atoms: C_2  and  C_3
REMARK    3  A    between atoms: C_3  and  O_4
REMARK    4  A    between atoms: O_4  and  C_5
REMARK    5  A    between atoms: C_5  and  C_6
REMARK    6  A    between atoms: C_6  and  C_7
REMARK    7  A    between atoms: C_7  and  N_8
REMARK    8  A    between atoms: N_8  and  C_9
REMARK    9  A    between atoms: C_9  and  N_11
REMARK   10  A    between atoms: N_11  and  C_12
REMARK   11  A    between atoms: C_17  and  C_18
REMARK                            x       y       z     vdW  Elec       q    Type
REMARK                         _______ _______ _______ _____ _____    ______ ____
ROOT
ATOM      1  N   UNL     1       5.888   3.956  18.679  0.00  0.00    +0.000 N 
ATOM      2  H   UNL     1       6.612   3.347  19.044  0.00  0.00    +0.000 HD
ENDROOT
BRANCH   1   3
ATOM      3  C   UNL     1       4.570   3.456  18.707  0.00  0.00    +0.000 A 
ATOM      4  C   UNL     1       4.090   2.653  17.679  0.00  0.00    +0.000 A 
ATOM      5  C   UNL     1       2.776   2.198  17.698  0.00  0.00    +0.000 A 
ATOM      6  C   UNL     1       1.922   2.530  18.755  0.00  0.00    +0.000 A 
ATOM      7 CL   UNL     1       0.304   1.948  18.638  0.00  0.00    +0.000 Cl
ATOM      8  C   UNL     1       2.398   3.293  19.830  0.00  0.00    +0.000 A 
ATOM      9  C   UNL     1       3.743   3.733  19.804  0.00  0.00    +0.000 A 
BRANCH   8  10
ATOM     10  C   UNL     1       1.563   3.685  21.022  0.00  0.00    +0.000 C 
ATOM     11  F   UNL     1       0.589   4.605  20.813  0.00  0.00    +0.000 F 
ATOM     12  F   UNL     1       0.931   2.603  21.565  0.00  0.00    +0.000 F 
ATOM     13  F   UNL     1       2.329   4.193  22.031  0.00  0.00    +0.000 F 
ENDBRANCH   8  10
ENDBRANCH   1   3
BRANCH   1  14
ATOM     14  C   UNL     1       6.248   5.301  18.756  0.00  0.00    +0.000 C 
ATOM     15  S   UNL     1       7.812   5.886  18.888  0.00  0.00    +0.000 S 
BRANCH  14  16
ATOM     16  N   UNL     1       5.122   6.092  18.602  0.00  0.00    +0.000 N 
ATOM     17  H   UNL     1       4.872   6.658  19.403  0.00  0.00    +0.000 HD
BRANCH  16  18
ATOM     18  C   UNL     1       4.417   6.365  17.353  0.00  0.00    +0.000 C 
BRANCH  18  19
ATOM     19  C   UNL     1       5.421   6.659  16.241  0.00  0.00    +0.000 C 
BRANCH  19  20
ATOM     20  C   UNL     1       5.627   5.457  15.330  0.00  0.00    +0.000 C 
BRANCH  20  21
ATOM     21  O   UNL     1       6.910   5.552  14.720  0.00  0.00    +0.000 OA
BRANCH  21  22
ATOM     22  C   UNL     1       7.110   4.542  13.736  0.00  0.00    +0.000 C 
BRANCH  22  24
ATOM     23  C   UNL     1       5.675   3.249  12.131  0.00  0.00    +0.000 C 
ATOM     24  C   UNL     1       5.800   3.789  13.545  0.00  0.00    +0.000 C 
ENDBRANCH  22  24
ENDBRANCH  21  22
ENDBRANCH  20  21
ENDBRANCH  19  20
ENDBRANCH  18  19
ENDBRANCH  16  18
ENDBRANCH  14  16
ENDBRANCH   1  14
TORSDOF 10
ENDMDL
MODEL 7
REMARK VINA RESULT:      -6.4      1.234      1.724
REMARK  Name = 
REMARK  11 active torsions:
REMARK  status: ('A' for Active; 'I' for Inactive)
REMARK    1  A    between atoms: C_1  and  C_2
REMARK    2  A    between atoms: C_2  and  C_3
REMARK    3  A    between atoms: C_3  and  O_4
REMARK    4  A    between atoms: O_4  and  C_5
REMARK    5  A    between atoms: C_5  and  C_6
REMARK    6  A    between atoms: C_6  and  C_7
REMARK    7  A    between atoms: C_7  and  N_8
REMARK    8  A    between atoms: N_8  and  C_9
REMARK    9  A    between atoms: C_9  and  N_11
REMARK   10  A    between atoms: N_11  and  C_12
REMARK   11  A    between atoms: C_17  and  C_18
REMARK                            x       y       z     vdW  Elec       q    Type
REMARK                         _______ _______ _______ _____ _____    ______ ____
ROOT
ATOM      1  N   UNL     1       5.900   3.978  18.441  0.00  0.00    +0.000 N 
ATOM      2  H   UNL     1       6.381   4.143  19.318  0.00  0.00    +0.000 HD
ENDROOT
BRANCH   1   3
ATOM      3  C   UNL     1       4.568   3.524  18.529  0.00  0.00    +0.000 A 
ATOM      4  C   UNL     1       4.044   2.659  17.574  0.00  0.00    +0.000 A 
ATOM      5  C   UNL     1       2.717   2.250  17.650  0.00  0.00    +0.000 A 
ATOM      6  C   UNL     1       1.894   2.690  18.692  0.00  0.00    +0.000 A 
ATOM      7 CL   UNL     1       0.257   2.153  18.646  0.00  0.00    +0.000 Cl
ATOM      8  C   UNL     1       2.412   3.519  19.695  0.00  0.00    +0.000 A 
ATOM      9  C   UNL     1       3.770   3.912  19.614  0.00  0.00    +0.000 A 
BRANCH   8  10
ATOM     10  C   UNL     1       1.612   4.029  20.867  0.00  0.00    +0.000 C 
ATOM     11  F   UNL     1       0.493   4.739  20.582  0.00  0.00    +0.000 F 
ATOM     12  F   UNL     1       1.199   3.005  21.671  0.00  0.00    +0.000 F 
ATOM     13  F   UNL     1       2.358   4.838  21.674  0.00  0.00    +0.000 F 
ENDBRANCH   8  10
ENDBRANCH   1   3
BRANCH   1  14
ATOM     14  C   UNL     1       6.431   4.738  17.400  0.00  0.00    +0.000 C 
ATOM     15  S   UNL     1       7.212   6.211  17.569  0.00  0.00    +0.000 S 
BRANCH  14  16
ATOM     16  N   UNL     1       6.310   4.043  16.209  0.00  0.00    +0.000 N 
ATOM     17  H   UNL     1       6.355   3.035  16.284  0.00  0.00    +0.000 HD
BRANCH  16  18
ATOM     18  C   UNL     1       5.896   4.593  14.921  0.00  0.00    +0.000 C 
BRANCH  18  19
ATOM     19  C   UNL     1       6.889   4.184  13.835  0.00  0.00    +0.000 C 
BRANCH  19  20
ATOM     20  C   UNL     1       6.191   3.567  12.633  0.00  0.00    +0.000 C 
BRANCH  20  21
ATOM     21  O   UNL     1       7.136   3.405  11.580  0.00  0.00    +0.000 OA
BRANCH  21  22
ATOM     22  C   UNL     1       7.274   2.042  11.191  0.00  0.00    +0.000 C 
BRANCH  22  24
ATOM     23  C   UNL     1       6.075  -0.164  11.236  0.00  0.00    +0.000 C 
ATOM     24  C   UNL     1       5.943   1.338  11.415  0.00  0.00    +0.000 C 
ENDBRANCH  22  24
ENDBRANCH  21  22
ENDBRANCH  20  21
ENDBRANCH  19  20
ENDBRANCH  18  19
ENDBRANCH  16  18
ENDBRANCH  14  16
ENDBRANCH   1  14
TORSDOF 10
ENDMDL
MODEL 8
REMARK VINA RESULT:      -6.4      4.209      5.716
REMARK  Name = 
REMARK  11 active torsions:
REMARK  status: ('A' for Active; 'I' for Inactive)
REMARK    1  A    between atoms: C_1  and  C_2
REMARK    2  A    between atoms: C_2  and  C_3
REMARK    3  A    between atoms: C_3  and  O_4
REMARK    4  A    between atoms: O_4  and  C_5
REMARK    5  A    between atoms: C_5  and  C_6
REMARK    6  A    between atoms: C_6  and  C_7
REMARK    7  A    between atoms: C_7  and  N_8
REMARK    8  A    between atoms: N_8  and  C_9
REMARK    9  A    between atoms: C_9  and  N_11
REMARK   10  A    between atoms: N_11  and  C_12
REMARK   11  A    between atoms: C_17  and  C_18
REMARK                            x       y       z     vdW  Elec       q    Type
REMARK                         _______ _______ _______ _____ _____    ______ ____
ROOT
ATOM      1  N   UNL     1       5.022   6.118  16.960  0.00  0.00    +0.000 N 
ATOM      2  H   UNL     1       4.860   6.491  16.031  0.00  0.00    +0.000 HD
ENDROOT
BRANCH   1   3
ATOM      3  C   UNL     1       4.046   5.233  17.463  0.00  0.00    +0.000 A 
ATOM      4  C   UNL     1       3.703   4.079  16.768  0.00  0.00    +0.000 A 
ATOM      5  C   UNL     1       2.711   3.235  17.254  0.00  0.00    +0.000 A 
ATOM      6  C   UNL     1       2.052   3.526  18.454  0.00  0.00    +0.000 A 
ATOM      7 CL   UNL     1       0.807   2.431  18.924  0.00  0.00    +0.000 Cl
ATOM      8  C   UNL     1       2.416   4.655  19.200  0.00  0.00    +0.000 A 
ATOM      9  C   UNL     1       3.441   5.494  18.700  0.00  0.00    +0.000 A 
BRANCH   8  10
ATOM     10  C   UNL     1       1.781   5.042  20.512  0.00  0.00    +0.000 C 
ATOM     11  F   UNL     1       1.845   6.350  20.861  0.00  0.00    +0.000 F 
ATOM     12  F   UNL     1       0.454   4.723  20.536  0.00  0.00    +0.000 F 
ATOM     13  F   UNL     1       2.331   4.361  21.559  0.00  0.00    +0.000 F 
ENDBRANCH   8  10
ENDBRANCH   1   3
BRANCH   1  14
ATOM     14  C   UNL     1       6.377   6.105  17.291  0.00  0.00    +0.000 C 
ATOM     15  S   UNL     1       7.290   4.735  17.604  0.00  0.00    +0.000 S 
BRANCH  14  16
ATOM     16  N   UNL     1       6.884   7.391  17.221  0.00  0.00    +0.000 N 
ATOM     17  H   UNL     1       6.301   8.065  16.740  0.00  0.00    +0.000 HD
BRANCH  16  18
ATOM     18  C   UNL     1       8.031   7.913  17.958  0.00  0.00    +0.000 C 
BRANCH  18  19
ATOM     19  C   UNL     1       8.068   9.436  17.854  0.00  0.00    +0.000 C 
BRANCH  19  20
ATOM     20  C   UNL     1       9.079  10.045  18.815  0.00  0.00    +0.000 C 
BRANCH  20  21
ATOM     21  O   UNL     1       9.825  11.046  18.130  0.00  0.00    +0.000 OA
BRANCH  21  22
ATOM     22  C   UNL     1       9.024  12.177  17.799  0.00  0.00    +0.000 C 
BRANCH  22  24
ATOM     23  C   UNL     1      10.984  13.581  17.096  0.00  0.00    +0.000 C 
ATOM     24  C   UNL     1       9.831  13.438  18.074  0.00  0.00    +0.000 C 
ENDBRANCH  22  24
ENDBRANCH  21  22
ENDBRANCH  20  21
ENDBRANCH  19  20
ENDBRANCH  18  19
ENDBRANCH  16  18
ENDBRANCH  14  16
ENDBRANCH   1  14
TORSDOF 10
ENDMDL
MODEL 9
REMARK VINA RESULT:      -6.4      4.121      6.094
REMARK  Name = 
REMARK  11 active torsions:
REMARK  status: ('A' for Active; 'I' for Inactive)
REMARK    1  A    between atoms: C_1  and  C_2
REMARK    2  A    between atoms: C_2  and  C_3
REMARK    3  A    between atoms: C_3  and  O_4
REMARK    4  A    between atoms: O_4  and  C_5
REMARK    5  A    between atoms: C_5  and  C_6
REMARK    6  A    between atoms: C_6  and  C_7
REMARK    7  A    between atoms: C_7  and  N_8
REMARK    8  A    between atoms: N_8  and  C_9
REMARK    9  A    between atoms: C_9  and  N_11
REMARK   10  A    between atoms: N_11  and  C_12
REMARK   11  A    between atoms: C_17  and  C_18
REMARK                            x       y       z     vdW  Elec       q    Type
REMARK                         _______ _______ _______ _____ _____    ______ ____
ROOT
ATOM      1  N   UNL     1       3.526   5.975  18.883  0.00  0.00    +0.000 N 
ATOM      2  H   UNL     1       3.788   5.587  19.783  0.00  0.00    +0.000 HD
ENDROOT
BRANCH   1   3
ATOM      3  C   UNL     1       2.719   7.131  18.906  0.00  0.00    +0.000 A 
ATOM      4  C   UNL     1       2.553   7.908  17.766  0.00  0.00    +0.000 A 
ATOM      5  C   UNL     1       1.787   9.067  17.811  0.00  0.00    +0.000 A 
ATOM      6  C   UNL     1       1.161   9.462  18.999  0.00  0.00    +0.000 A 
ATOM      7 CL   UNL     1       0.282  10.943  18.940  0.00  0.00    +0.000 Cl
ATOM      8  C   UNL     1       1.270   8.668  20.148  0.00  0.00    +0.000 A 
ATOM      9  C   UNL     1       2.039   7.481  20.080  0.00  0.00    +0.000 A 
BRANCH   8  10
ATOM     10  C   UNL     1       0.618   8.998  21.467  0.00  0.00    +0.000 C 
ATOM     11  F   UNL     1       0.393  10.309  21.728  0.00  0.00    +0.000 F 
ATOM     12  F   UNL     1      -0.598   8.388  21.589  0.00  0.00    +0.000 F 
ATOM     13  F   UNL     1       1.354   8.541  22.522  0.00  0.00    +0.000 F 
ENDBRANCH   8  10
ENDBRANCH   1   3
BRANCH   1  14
ATOM     14  C   UNL     1       4.439   5.643  17.883  0.00  0.00    +0.000 C 
ATOM     15  S   UNL     1       6.004   6.230  17.757  0.00  0.00    +0.000 S 
BRANCH  14  16
ATOM     16  N   UNL     1       3.895   4.670  17.062  0.00  0.00    +0.000 N 
ATOM     17  H   UNL     1       4.341   4.559  16.160  0.00  0.00    +0.000 HD
BRANCH  16  18
ATOM     18  C   UNL     1       2.920   3.654  17.448  0.00  0.00    +0.000 C 
BRANCH  18  19
ATOM     19  C   UNL     1       3.607   2.296  17.582  0.00  0.00    +0.000 C 
BRANCH  19  20
ATOM     20  C   UNL     1       3.665   1.831  19.029  0.00  0.00    +0.000 C 
BRANCH  20  21
ATOM     21  O   UNL     1       3.604   2.968  19.885  0.00  0.00    +0.000 OA
BRANCH  21  22
ATOM     22  C   UNL     1       2.886   2.696  21.084  0.00  0.00    +0.000 C 
BRANCH  22  24
ATOM     23  C   UNL     1       0.856   4.015  20.416  0.00  0.00    +0.000 C 
ATOM     24  C   UNL     1       2.004   3.895  21.403  0.00  0.00    +0.000 C 
ENDBRANCH  22  24
ENDBRANCH  21  22
ENDBRANCH  20  21
ENDBRANCH  19  20
ENDBRANCH  18  19
ENDBRANCH  16  18
ENDBRANCH  14  16
ENDBRANCH   1  14
TORSDOF 10
ENDMDL
