MODEL 1
REMARK VINA RESULT:      -8.5      0.000      0.000
REMARK  Name = 
REMARK  5 active torsions:
REMARK  status: ('A' for Active; 'I' for Inactive)
REMARK    1  A    between atoms: C_1  and  O_2
REMARK    2  A    between atoms: O_2  and  C_3
REMARK    3  A    between atoms: C_6  and  C_7
REMARK    4  A    between atoms: N_11  and  C_12
REMARK    5  A    between atoms: N_17  and  C_18
REMARK                            x       y       z     vdW  Elec       q    Type
REMARK                         _______ _______ _______ _____ _____    ______ ____
ROOT
ATOM      1  C   UNL     1       5.551   4.520  18.647  0.00  0.00    +0.000 C 
ATOM      2  N   UNL     1       5.496   3.152  19.149  0.00  0.00    +0.000 N 
ATOM      3  C   UNL     1       4.414   2.526  19.702  0.00  0.00    +0.000 C 
ATOM      4  O   UNL     1       4.492   1.331  19.971  0.00  0.00    +0.000 OA
ATOM      5  N   UNL     1       3.285   3.309  19.936  0.00  0.00    +0.000 N 
ATOM      6  C   UNL     1       2.113   2.689  20.533  0.00  0.00    +0.000 C 
ATOM      7  C   UNL     1       3.263   4.644  19.602  0.00  0.00    +0.000 C 
ATOM      8  C   UNL     1       4.308   5.207  19.008  0.00  0.00    +0.000 C 
ATOM      9  C   UNL     1       3.983   6.606  18.752  0.00  0.00    +0.000 C 
ATOM     10  O   UNL     1       4.774   7.379  18.239  0.00  0.00    +0.000 OA
ATOM     11  N   UNL     1       2.682   6.809  19.218  0.00  0.00    +0.000 N 
ATOM     12  C   UNL     1       2.143   5.598  19.806  0.00  0.00    +0.000 C 
ATOM     13  H   UNL     1       6.275   2.541  18.945  0.00  0.00    +0.000 HD
ENDROOT
BRANCH  11  14
ATOM     14  C   UNL     1       1.937   8.011  19.124  0.00  0.00    +0.000 A 
ATOM     15  C   UNL     1       1.751   8.656  17.890  0.00  0.00    +0.000 A 
ATOM     16  C   UNL     1       1.005   9.833  17.795  0.00  0.00    +0.000 A 
ATOM     17  C   UNL     1       0.447  10.381  18.934  0.00  0.00    +0.000 A 
ATOM     18  F   UNL     1      -0.265  11.511  18.852  0.00  0.00    +0.000 F 
ATOM     19  C   UNL     1       0.614   9.772  20.170  0.00  0.00    +0.000 A 
ATOM     20  C   UNL     1       1.353   8.585  20.261  0.00  0.00    +0.000 A 
ENDBRANCH  11  14
BRANCH   1  24
ATOM     21  C   UNL     1       6.415   4.421  14.406  0.00  0.00    +0.000 A 
ATOM     22  C   UNL     1       5.162   4.026  14.873  0.00  0.00    +0.000 A 
ATOM     23  C   UNL     1       4.867   4.078  16.236  0.00  0.00    +0.000 A 
ATOM     24  C   UNL     1       5.833   4.507  17.159  0.00  0.00    +0.000 A 
ATOM     25  C   UNL     1       7.085   4.917  16.679  0.00  0.00    +0.000 A 
ATOM     26  C   UNL     1       7.375   4.868  15.313  0.00  0.00    +0.000 A 
BRANCH  21  28
ATOM     27  C   UNL     1       5.815   3.288  12.427  0.00  0.00    +0.000 C 
ATOM     28  O   UNL     1       6.606   4.287  13.058  0.00  0.00    +0.000 OA
ENDBRANCH  21  28
ENDBRANCH   1  24
TORSDOF 3
ENDMDL
MODEL 2
REMARK VINA RESULT:      -8.4      0.126      1.316
REMARK  Name = 
REMARK  5 active torsions:
REMARK  status: ('A' for Active; 'I' for Inactive)
REMARK    1  A    between atoms: C_1  and  O_2
REMARK    2  A    between atoms: O_2  and  C_3
REMARK    3  A    between atoms: C_6  and  C_7
REMARK    4  A    between atoms: N_11  and  C_12
REMARK    5  A    between atoms: N_17  and  C_18
REMARK                            x       y       z     vdW  Elec       q    Type
REMARK                         _______ _______ _______ _____ _____    ______ ____
ROOT
ATOM      1  C   UNL     1       5.555   4.459  18.694  0.00  0.00    +0.000 C 
ATOM      2  N   UNL     1       5.500   3.106  19.235  0.00  0.00    +0.000 N 
ATOM      3  C   UNL     1       4.423   2.501  19.819  0.00  0.00    +0.000 C 
ATOM      4  O   UNL     1       4.499   1.314  20.121  0.00  0.00    +0.000 OA
ATOM      5  N   UNL     1       3.300   3.295  20.045  0.00  0.00    +0.000 N 
ATOM      6  C   UNL     1       2.132   2.698  20.673  0.00  0.00    +0.000 C 
ATOM      7  C   UNL     1       3.279   4.620  19.672  0.00  0.00    +0.000 C 
ATOM      8  C   UNL     1       4.319   5.162  19.050  0.00  0.00    +0.000 C 
ATOM      9  C   UNL     1       3.996   6.554  18.759  0.00  0.00    +0.000 C 
ATOM     10  O   UNL     1       4.784   7.308  18.214  0.00  0.00    +0.000 OA
ATOM     11  N   UNL     1       2.702   6.776  19.234  0.00  0.00    +0.000 N 
ATOM     12  C   UNL     1       2.165   5.584  19.863  0.00  0.00    +0.000 C 
ATOM     13  H   UNL     1       6.274   2.486  19.040  0.00  0.00    +0.000 HD
ENDROOT
BRANCH  11  14
ATOM     14  C   UNL     1       1.960   7.978  19.115  0.00  0.00    +0.000 A 
ATOM     15  C   UNL     1       1.356   8.572  20.235  0.00  0.00    +0.000 A 
ATOM     16  C   UNL     1       0.637   9.764  20.121  0.00  0.00    +0.000 A 
ATOM     17  C   UNL     1       0.508  10.367  18.884  0.00  0.00    +0.000 A 
ATOM     18  F   UNL     1      -0.184  11.507  18.766  0.00  0.00    +0.000 F 
ATOM     19  C   UNL     1       1.090   9.806  17.756  0.00  0.00    +0.000 A 
ATOM     20  C   UNL     1       1.820   8.616  17.875  0.00  0.00    +0.000 A 
ENDBRANCH  11  14
BRANCH   1  24
ATOM     21  C   UNL     1       6.255   4.363  14.423  0.00  0.00    +0.000 A 
ATOM     22  C   UNL     1       7.286   4.720  15.291  0.00  0.00    +0.000 A 
ATOM     23  C   UNL     1       7.076   4.729  16.671  0.00  0.00    +0.000 A 
ATOM     24  C   UNL     1       5.819   4.402  17.204  0.00  0.00    +0.000 A 
ATOM     25  C   UNL     1       4.793   4.030  16.323  0.00  0.00    +0.000 A 
ATOM     26  C   UNL     1       5.008   4.016  14.943  0.00  0.00    +0.000 A 
BRANCH  21  28
ATOM     27  C   UNL     1       6.103   3.338  12.305  0.00  0.00    +0.000 C 
ATOM     28  O   UNL     1       6.562   4.431  13.091  0.00  0.00    +0.000 OA
ENDBRANCH  21  28
ENDBRANCH   1  24
TORSDOF 3
ENDMDL
MODEL 3
REMARK VINA RESULT:      -7.2      4.253      8.382
REMARK  Name = 
REMARK  5 active torsions:
REMARK  status: ('A' for Active; 'I' for Inactive)
REMARK    1  A    between atoms: C_1  and  O_2
REMARK    2  A    between atoms: O_2  and  C_3
REMARK    3  A    between atoms: C_6  and  C_7
REMARK    4  A    between atoms: N_11  and  C_12
REMARK    5  A    between atoms: N_17  and  C_18
REMARK                            x       y       z     vdW  Elec       q    Type
REMARK                         _______ _______ _______ _____ _____    ______ ____
ROOT
ATOM      1  C   UNL     1       0.286  11.735  19.823  0.00  0.00    +0.000 C 
ATOM      2  N   UNL     1      -0.435  12.117  21.030  0.00  0.00    +0.000 N 
ATOM      3  C   UNL     1      -0.524  11.404  22.192  0.00  0.00    +0.000 C 
ATOM      4  O   UNL     1      -1.073  11.914  23.164  0.00  0.00    +0.000 OA
ATOM      5  N   UNL     1       0.016  10.118  22.185  0.00  0.00    +0.000 N 
ATOM      6  C   UNL     1      -0.064   9.316  23.395  0.00  0.00    +0.000 C 
ATOM      7  C   UNL     1       0.627   9.610  21.060  0.00  0.00    +0.000 C 
ATOM      8  C   UNL     1       0.752  10.353  19.967  0.00  0.00    +0.000 C 
ATOM      9  C   UNL     1       1.460   9.564  18.964  0.00  0.00    +0.000 C 
ATOM     10  O   UNL     1       1.691   9.986  17.844  0.00  0.00    +0.000 OA
ATOM     11  N   UNL     1       1.750   8.331  19.552  0.00  0.00    +0.000 N 
ATOM     12  C   UNL     1       1.228   8.260  20.903  0.00  0.00    +0.000 C 
ATOM     13  H   UNL     1      -0.789  13.062  21.091  0.00  0.00    +0.000 HD
ENDROOT
BRANCH  11  14
ATOM     14  C   UNL     1       2.478   7.270  18.957  0.00  0.00    +0.000 A 
ATOM     15  C   UNL     1       2.313   5.944  19.390  0.00  0.00    +0.000 A 
ATOM     16  C   UNL     1       3.020   4.897  18.795  0.00  0.00    +0.000 A 
ATOM     17  C   UNL     1       3.906   5.168  17.769  0.00  0.00    +0.000 A 
ATOM     18  F   UNL     1       4.591   4.171  17.197  0.00  0.00    +0.000 F 
ATOM     19  C   UNL     1       4.095   6.467  17.319  0.00  0.00    +0.000 A 
ATOM     20  C   UNL     1       3.377   7.515  17.910  0.00  0.00    +0.000 A 
ENDBRANCH  11  14
BRANCH   1  24
ATOM     21  C   UNL     1       3.518  14.517  19.077  0.00  0.00    +0.000 A 
ATOM     22  C   UNL     1       2.720  14.076  18.022  0.00  0.00    +0.000 A 
ATOM     23  C   UNL     1       1.661  13.198  18.258  0.00  0.00    +0.000 A 
ATOM     24  C   UNL     1       1.397  12.729  19.554  0.00  0.00    +0.000 A 
ATOM     25  C   UNL     1       2.195  13.192  20.610  0.00  0.00    +0.000 A 
ATOM     26  C   UNL     1       3.251  14.075  20.372  0.00  0.00    +0.000 A 
BRANCH  21  28
ATOM     27  C   UNL     1       5.494  14.780  17.817  0.00  0.00    +0.000 C 
ATOM     28  O   UNL     1       4.552  15.341  18.723  0.00  0.00    +0.000 OA
ENDBRANCH  21  28
ENDBRANCH   1  24
TORSDOF 3
ENDMDL
MODEL 4
REMARK VINA RESULT:      -7.1      4.307      8.428
REMARK  Name = 
REMARK  5 active torsions:
REMARK  status: ('A' for Active; 'I' for Inactive)
REMARK    1  A    between atoms: C_1  and  O_2
REMARK    2  A    between atoms: O_2  and  C_3
REMARK    3  A    between atoms: C_6  and  C_7
REMARK    4  A    between atoms: N_11  and  C_12
REMARK    5  A    between atoms: N_17  and  C_18
REMARK                            x       y       z     vdW  Elec       q    Type
REMARK                         _______ _______ _______ _____ _____    ______ ____
ROOT
ATOM      1  C   UNL     1       0.329  11.765  19.848  0.00  0.00    +0.000 C 
ATOM      2  N   UNL     1      -0.391  12.167  21.050  0.00  0.00    +0.000 N 
ATOM      3  C   UNL     1      -0.497  11.461  22.216  0.00  0.00    +0.000 C 
ATOM      4  O   UNL     1      -1.041  11.986  23.182  0.00  0.00    +0.000 OA
ATOM      5  N   UNL     1       0.021  10.167  22.218  0.00  0.00    +0.000 N 
ATOM      6  C   UNL     1      -0.078   9.373  23.432  0.00  0.00    +0.000 C 
ATOM      7  C   UNL     1       0.628   9.642  21.099  0.00  0.00    +0.000 C 
ATOM      8  C   UNL     1       0.771  10.376  20.003  0.00  0.00    +0.000 C 
ATOM      9  C   UNL     1       1.469   9.570  19.007  0.00  0.00    +0.000 C 
ATOM     10  O   UNL     1       1.712   9.982  17.886  0.00  0.00    +0.000 OA
ATOM     11  N   UNL     1       1.735   8.335  19.603  0.00  0.00    +0.000 N 
ATOM     12  C   UNL     1       1.206   8.281  20.952  0.00  0.00    +0.000 C 
ATOM     13  H   UNL     1      -0.729  13.118  21.105  0.00  0.00    +0.000 HD
ENDROOT
BRANCH  11  14
ATOM     14  C   UNL     1       2.448   7.259  19.017  0.00  0.00    +0.000 A 
ATOM     15  C   UNL     1       3.282   7.461  17.904  0.00  0.00    +0.000 A 
ATOM     16  C   UNL     1       3.995   6.403  17.336  0.00  0.00    +0.000 A 
ATOM     17  C   UNL     1       3.874   5.134  17.868  0.00  0.00    +0.000 A 
ATOM     18  F   UNL     1       4.551   4.114  17.326  0.00  0.00    +0.000 F 
ATOM     19  C   UNL     1       3.057   4.899  18.966  0.00  0.00    +0.000 A 
ATOM     20  C   UNL     1       2.351   5.963  19.541  0.00  0.00    +0.000 A 
ENDBRANCH  11  14
BRANCH   1  24
ATOM     21  C   UNL     1       3.497  14.609  19.061  0.00  0.00    +0.000 A 
ATOM     22  C   UNL     1       3.291  14.135  20.356  0.00  0.00    +0.000 A 
ATOM     23  C   UNL     1       2.288  13.200  20.614  0.00  0.00    +0.000 A 
ATOM     24  C   UNL     1       1.458  12.739  19.580  0.00  0.00    +0.000 A 
ATOM     25  C   UNL     1       1.684  13.209  18.278  0.00  0.00    +0.000 A 
ATOM     26  C   UNL     1       2.692  14.142  18.022  0.00  0.00    +0.000 A 
BRANCH  21  28
ATOM     27  C   UNL     1       5.584  15.177  18.120  0.00  0.00    +0.000 C 
ATOM     28  O   UNL     1       4.478  15.554  18.932  0.00  0.00    +0.000 OA
ENDBRANCH  21  28
ENDBRANCH   1  24
TORSDOF 3
ENDMDL
MODEL 5
REMARK VINA RESULT:      -6.7      4.451      8.654
REMARK  Name = 
REMARK  5 active torsions:
REMARK  status: ('A' for Active; 'I' for Inactive)
REMARK    1  A    between atoms: C_1  and  O_2
REMARK    2  A    between atoms: O_2  and  C_3
REMARK    3  A    between atoms: C_6  and  C_7
REMARK    4  A    between atoms: N_11  and  C_12
REMARK    5  A    between atoms: N_17  and  C_18
REMARK                            x       y       z     vdW  Elec       q    Type
REMARK                         _______ _______ _______ _____ _____    ______ ____
ROOT
ATOM      1  C   UNL     1       0.343  12.104  19.786  0.00  0.00    +0.000 C 
ATOM      2  N   UNL     1      -0.440  12.536  20.937  0.00  0.00    +0.000 N 
ATOM      3  C   UNL     1      -0.650  11.838  22.093  0.00  0.00    +0.000 C 
ATOM      4  O   UNL     1      -1.238  12.386  23.021  0.00  0.00    +0.000 OA
ATOM      5  N   UNL     1      -0.181  10.526  22.131  0.00  0.00    +0.000 N 
ATOM      6  C   UNL     1      -0.389   9.740  23.337  0.00  0.00    +0.000 C 
ATOM      7  C   UNL     1       0.480   9.976  21.056  0.00  0.00    +0.000 C 
ATOM      8  C   UNL     1       0.723  10.701  19.971  0.00  0.00    +0.000 C 
ATOM      9  C   UNL     1       1.456   9.867  19.025  0.00  0.00    +0.000 C 
ATOM     10  O   UNL     1       1.788  10.265  17.922  0.00  0.00    +0.000 OA
ATOM     11  N   UNL     1       1.637   8.625  19.638  0.00  0.00    +0.000 N 
ATOM     12  C   UNL     1       1.018   8.594  20.950  0.00  0.00    +0.000 C 
ATOM     13  H   UNL     1      -0.747  13.499  20.968  0.00  0.00    +0.000 HD
ENDROOT
BRANCH  11  14
ATOM     14  C   UNL     1       2.348   7.522  19.103  0.00  0.00    +0.000 A 
ATOM     15  C   UNL     1       3.043   7.627  17.886  0.00  0.00    +0.000 A 
ATOM     16  C   UNL     1       3.755   6.545  17.365  0.00  0.00    +0.000 A 
ATOM     17  C   UNL     1       3.771   5.345  18.050  0.00  0.00    +0.000 A 
ATOM     18  F   UNL     1       4.447   4.301  17.555  0.00  0.00    +0.000 F 
ATOM     19  C   UNL     1       3.093   5.205  19.254  0.00  0.00    +0.000 A 
ATOM     20  C   UNL     1       2.388   6.296  19.780  0.00  0.00    +0.000 A 
ENDBRANCH  11  14
BRANCH   1  24
ATOM     21  C   UNL     1       3.765  14.701  19.249  0.00  0.00    +0.000 A 
ATOM     22  C   UNL     1       2.944  14.396  18.164  0.00  0.00    +0.000 A 
ATOM     23  C   UNL     1       1.824  13.580  18.334  0.00  0.00    +0.000 A 
ATOM     24  C   UNL     1       1.522  13.036  19.592  0.00  0.00    +0.000 A 
ATOM     25  C   UNL     1       2.345  13.361  20.680  0.00  0.00    +0.000 A 
ATOM     26  C   UNL     1       3.461  14.183  20.508  0.00  0.00    +0.000 A 
BRANCH  21  28
ATOM     27  C   UNL     1       5.199  16.440  19.945  0.00  0.00    +0.000 C 
ATOM     28  O   UNL     1       4.856  15.474  18.958  0.00  0.00    +0.000 OA
ENDBRANCH  21  28
ENDBRANCH   1  24
TORSDOF 3
ENDMDL
MODEL 6
REMARK VINA RESULT:      -6.5      5.134     10.076
REMARK  Name = 
REMARK  5 active torsions:
REMARK  status: ('A' for Active; 'I' for Inactive)
REMARK    1  A    between atoms: C_1  and  O_2
REMARK    2  A    between atoms: O_2  and  C_3
REMARK    3  A    between atoms: C_6  and  C_7
REMARK    4  A    between atoms: N_11  and  C_12
REMARK    5  A    between atoms: N_17  and  C_18
REMARK                            x       y       z     vdW  Elec       q    Type
REMARK                         _______ _______ _______ _____ _____    ______ ____
ROOT
ATOM      1  C   UNL     1      -1.071  12.698  20.097  0.00  0.00    +0.000 C 
ATOM      2  N   UNL     1      -0.712  14.069  19.759  0.00  0.00    +0.000 N 
ATOM      3  C   UNL     1       0.364  14.476  19.022  0.00  0.00    +0.000 C 
ATOM      4  O   UNL     1       0.467  15.662  18.723  0.00  0.00    +0.000 OA
ATOM      5  N   UNL     1       1.291  13.497  18.666  0.00  0.00    +0.000 N 
ATOM      6  C   UNL     1       2.458  13.883  17.890  0.00  0.00    +0.000 C 
ATOM      7  C   UNL     1       1.108  12.181  19.027  0.00  0.00    +0.000 C 
ATOM      8  C   UNL     1       0.020  11.808  19.689  0.00  0.00    +0.000 C 
ATOM      9  C   UNL     1       0.092  10.367  19.901  0.00  0.00    +0.000 C 
ATOM     10  O   UNL     1      -0.765   9.752  20.513  0.00  0.00    +0.000 OA
ATOM     11  N   UNL     1       1.277   9.930  19.306  0.00  0.00    +0.000 N 
ATOM     12  C   UNL     1       2.014  11.040  18.733  0.00  0.00    +0.000 C 
ATOM     13  H   UNL     1      -1.387  14.797  19.951  0.00  0.00    +0.000 HD
ENDROOT
BRANCH  11  14
ATOM     14  C   UNL     1       1.728   8.589  19.222  0.00  0.00    +0.000 A 
ATOM     15  C   UNL     1       1.697   7.741  20.342  0.00  0.00    +0.000 A 
ATOM     16  C   UNL     1       2.128   6.415  20.257  0.00  0.00    +0.000 A 
ATOM     17  C   UNL     1       2.603   5.928  19.054  0.00  0.00    +0.000 A 
ATOM     18  F   UNL     1       3.023   4.661  18.965  0.00  0.00    +0.000 F 
ATOM     19  C   UNL     1       2.651   6.740  17.928  0.00  0.00    +0.000 A 
ATOM     20  C   UNL     1       2.207   8.066  18.014  0.00  0.00    +0.000 A 
ENDBRANCH  11  14
BRANCH   1  24
ATOM     21  C   UNL     1      -4.872  11.625  18.322  0.00  0.00    +0.000 A 
ATOM     22  C   UNL     1      -4.834  12.235  19.575  0.00  0.00    +0.000 A 
ATOM     23  C   UNL     1      -3.615  12.607  20.143  0.00  0.00    +0.000 A 
ATOM     24  C   UNL     1      -2.408  12.351  19.473  0.00  0.00    +0.000 A 
ATOM     25  C   UNL     1      -2.457  11.751  18.207  0.00  0.00    +0.000 A 
ATOM     26  C   UNL     1      -3.680  11.385  17.639  0.00  0.00    +0.000 A 
BRANCH  21  28
ATOM     27  C   UNL     1      -6.847  10.411  18.755  0.00  0.00    +0.000 C 
ATOM     28  O   UNL     1      -6.117  11.265  17.883  0.00  0.00    +0.000 OA
ENDBRANCH  21  28
ENDBRANCH   1  24
TORSDOF 3
ENDMDL
MODEL 7
REMARK VINA RESULT:      -6.5      4.704      8.373
REMARK  Name = 
REMARK  5 active torsions:
REMARK  status: ('A' for Active; 'I' for Inactive)
REMARK    1  A    between atoms: C_1  and  O_2
REMARK    2  A    between atoms: O_2  and  C_3
REMARK    3  A    between atoms: C_6  and  C_7
REMARK    4  A    between atoms: N_11  and  C_12
REMARK    5  A    between atoms: N_17  and  C_18
REMARK                            x       y       z     vdW  Elec       q    Type
REMARK                         _______ _______ _______ _____ _____    ______ ____
ROOT
ATOM      1  C   UNL     1       0.966  11.335  18.318  0.00  0.00    +0.000 C 
ATOM      2  N   UNL     1       2.163  12.090  17.969  0.00  0.00    +0.000 N 
ATOM      3  C   UNL     1       2.632  13.215  18.588  0.00  0.00    +0.000 C 
ATOM      4  O   UNL     1       3.721  13.670  18.251  0.00  0.00    +0.000 OA
ATOM      5  N   UNL     1       1.818  13.780  19.568  0.00  0.00    +0.000 N 
ATOM      6  C   UNL     1       2.269  14.984  20.247  0.00  0.00    +0.000 C 
ATOM      7  C   UNL     1       0.610  13.211  19.904  0.00  0.00    +0.000 C 
ATOM      8  C   UNL     1       0.212  12.084  19.328  0.00  0.00    +0.000 C 
ATOM      9  C   UNL     1      -1.077  11.713  19.902  0.00  0.00    +0.000 C 
ATOM     10  O   UNL     1      -1.696  10.729  19.537  0.00  0.00    +0.000 OA
ATOM     11  N   UNL     1      -1.388  12.685  20.855  0.00  0.00    +0.000 N 
ATOM     12  C   UNL     1      -0.363  13.710  20.911  0.00  0.00    +0.000 C 
ATOM     13  H   UNL     1       2.805  11.680  17.304  0.00  0.00    +0.000 HD
ENDROOT
BRANCH  11  14
ATOM     14  C   UNL     1      -2.526  12.696  21.700  0.00  0.00    +0.000 A 
ATOM     15  C   UNL     1      -2.430  12.327  23.052  0.00  0.00    +0.000 A 
ATOM     16  C   UNL     1      -3.549  12.351  23.888  0.00  0.00    +0.000 A 
ATOM     17  C   UNL     1      -4.775  12.734  23.378  0.00  0.00    +0.000 A 
ATOM     18  F   UNL     1      -5.852  12.755  24.171  0.00  0.00    +0.000 F 
ATOM     19  C   UNL     1      -4.905  13.102  22.045  0.00  0.00    +0.000 A 
ATOM     20  C   UNL     1      -3.779  13.087  21.211  0.00  0.00    +0.000 A 
ENDBRANCH  11  14
BRANCH   1  24
ATOM     21  C   UNL     1       2.153   7.360  19.555  0.00  0.00    +0.000 A 
ATOM     22  C   UNL     1       1.571   8.232  20.474  0.00  0.00    +0.000 A 
ATOM     23  C   UNL     1       1.163   9.507  20.078  0.00  0.00    +0.000 A 
ATOM     24  C   UNL     1       1.353   9.937  18.755  0.00  0.00    +0.000 A 
ATOM     25  C   UNL     1       1.925   9.048  17.835  0.00  0.00    +0.000 A 
ATOM     26  C   UNL     1       2.327   7.771  18.234  0.00  0.00    +0.000 A 
BRANCH  21  28
ATOM     27  C   UNL     1       3.594   5.504  19.344  0.00  0.00    +0.000 C 
ATOM     28  O   UNL     1       2.553   6.155  20.064  0.00  0.00    +0.000 OA
ENDBRANCH  21  28
ENDBRANCH   1  24
TORSDOF 3
ENDMDL
MODEL 8
REMARK VINA RESULT:      -6.5      5.110     10.125
REMARK  Name = 
REMARK  5 active torsions:
REMARK  status: ('A' for Active; 'I' for Inactive)
REMARK    1  A    between atoms: C_1  and  O_2
REMARK    2  A    between atoms: O_2  and  C_3
REMARK    3  A    between atoms: C_6  and  C_7
REMARK    4  A    between atoms: N_11  and  C_12
REMARK    5  A    between atoms: N_17  and  C_18
REMARK                            x       y       z     vdW  Elec       q    Type
REMARK                         _______ _______ _______ _____ _____    ______ ____
ROOT
ATOM      1  C   UNL     1      -1.087  12.643  20.083  0.00  0.00    +0.000 C 
ATOM      2  N   UNL     1      -0.735  14.017  19.749  0.00  0.00    +0.000 N 
ATOM      3  C   UNL     1       0.343  14.432  19.019  0.00  0.00    +0.000 C 
ATOM      4  O   UNL     1       0.441  15.619  18.722  0.00  0.00    +0.000 OA
ATOM      5  N   UNL     1       1.278  13.459  18.667  0.00  0.00    +0.000 N 
ATOM      6  C   UNL     1       2.448  13.854  17.899  0.00  0.00    +0.000 C 
ATOM      7  C   UNL     1       1.102  12.141  19.025  0.00  0.00    +0.000 C 
ATOM      8  C   UNL     1       0.012  11.761  19.681  0.00  0.00    +0.000 C 
ATOM      9  C   UNL     1       0.092  10.319  19.892  0.00  0.00    +0.000 C 
ATOM     10  O   UNL     1      -0.764   9.699  20.497  0.00  0.00    +0.000 OA
ATOM     11  N   UNL     1       1.283   9.891  19.303  0.00  0.00    +0.000 N 
ATOM     12  C   UNL     1       2.017  11.007  18.735  0.00  0.00    +0.000 C 
ATOM     13  H   UNL     1      -1.415  14.740  19.938  0.00  0.00    +0.000 HD
ENDROOT
BRANCH  11  14
ATOM     14  C   UNL     1       1.743   8.553  19.220  0.00  0.00    +0.000 A 
ATOM     15  C   UNL     1       1.712   7.704  20.339  0.00  0.00    +0.000 A 
ATOM     16  C   UNL     1       2.152   6.381  20.255  0.00  0.00    +0.000 A 
ATOM     17  C   UNL     1       2.636   5.898  19.054  0.00  0.00    +0.000 A 
ATOM     18  F   UNL     1       3.064   4.633  18.966  0.00  0.00    +0.000 F 
ATOM     19  C   UNL     1       2.684   6.711  17.929  0.00  0.00    +0.000 A 
ATOM     20  C   UNL     1       2.232   8.034  18.014  0.00  0.00    +0.000 A 
ENDBRANCH  11  14
BRANCH   1  24
ATOM     21  C   UNL     1      -4.909  11.714  18.273  0.00  0.00    +0.000 A 
ATOM     22  C   UNL     1      -3.726  11.433  17.590  0.00  0.00    +0.000 A 
ATOM     23  C   UNL     1      -2.490  11.706  18.176  0.00  0.00    +0.000 A 
ATOM     24  C   UNL     1      -2.418  12.289  19.452  0.00  0.00    +0.000 A 
ATOM     25  C   UNL     1      -3.612  12.553  20.137  0.00  0.00    +0.000 A 
ATOM     26  C   UNL     1      -4.848  12.273  19.549  0.00  0.00    +0.000 A 
BRANCH  21  28
ATOM     27  C   UNL     1      -7.176  12.262  17.921  0.00  0.00    +0.000 C 
ATOM     28  O   UNL     1      -6.060  11.445  17.585  0.00  0.00    +0.000 OA
ENDBRANCH  21  28
ENDBRANCH   1  24
TORSDOF 3
ENDMDL
MODEL 9
REMARK VINA RESULT:      -6.5      4.190      8.457
REMARK  Name = 
REMARK  5 active torsions:
REMARK  status: ('A' for Active; 'I' for Inactive)
REMARK    1  A    between atoms: C_1  and  O_2
REMARK    2  A    between atoms: O_2  and  C_3
REMARK    3  A    between atoms: C_6  and  C_7
REMARK    4  A    between atoms: N_11  and  C_12
REMARK    5  A    between atoms: N_17  and  C_18
REMARK                            x       y       z     vdW  Elec       q    Type
REMARK                         _______ _______ _______ _____ _____    ______ ____
ROOT
ATOM      1  C   UNL     1      -0.029  11.429  19.585  0.00  0.00    +0.000 C 
ATOM      2  N   UNL     1      -0.619  11.807  20.863  0.00  0.00    +0.000 N 
ATOM      3  C   UNL     1      -0.456  11.170  22.061  0.00  0.00    +0.000 C 
ATOM      4  O   UNL     1      -0.925  11.678  23.075  0.00  0.00    +0.000 OA
ATOM      5  N   UNL     1       0.235   9.959  22.041  0.00  0.00    +0.000 N 
ATOM      6  C   UNL     1       0.425   9.238  23.290  0.00  0.00    +0.000 C 
ATOM      7  C   UNL     1       0.744   9.450  20.868  0.00  0.00    +0.000 C 
ATOM      8  C   UNL     1       0.622  10.125  19.731  0.00  0.00    +0.000 C 
ATOM      9  C   UNL     1       1.278   9.357  18.678  0.00  0.00    +0.000 C 
ATOM     10  O   UNL     1       1.296   9.725  17.516  0.00  0.00    +0.000 OA
ATOM     11  N   UNL     1       1.799   8.210  19.279  0.00  0.00    +0.000 N 
ATOM     12  C   UNL     1       1.482   8.172  20.695  0.00  0.00    +0.000 C 
ATOM     13  H   UNL     1      -1.077  12.706  20.927  0.00  0.00    +0.000 HD
ENDROOT
BRANCH  11  14
ATOM     14  C   UNL     1       2.566   7.204  18.640  0.00  0.00    +0.000 A 
ATOM     15  C   UNL     1       2.308   5.841  18.866  0.00  0.00    +0.000 A 
ATOM     16  C   UNL     1       3.054   4.849  18.226  0.00  0.00    +0.000 A 
ATOM     17  C   UNL     1       4.071   5.210  17.362  0.00  0.00    +0.000 A 
ATOM     18  F   UNL     1       4.793   4.266  16.748  0.00  0.00    +0.000 F 
ATOM     19  C   UNL     1       4.354   6.548  17.118  0.00  0.00    +0.000 A 
ATOM     20  C   UNL     1       3.597   7.541  17.754  0.00  0.00    +0.000 A 
ENDBRANCH  11  14
BRANCH   1  24
ATOM     21  C   UNL     1       2.623  14.531  18.140  0.00  0.00    +0.000 A 
ATOM     22  C   UNL     1       1.335  14.856  18.565  0.00  0.00    +0.000 A 
ATOM     23  C   UNL     1       0.483  13.866  19.055  0.00  0.00    +0.000 A 
ATOM     24  C   UNL     1       0.899  12.526  19.107  0.00  0.00    +0.000 A 
ATOM     25  C   UNL     1       2.201  12.212  18.692  0.00  0.00    +0.000 A 
ATOM     26  C   UNL     1       3.054  13.206  18.206  0.00  0.00    +0.000 A 
BRANCH  21  28
ATOM     27  C   UNL     1       3.415  16.728  18.467  0.00  0.00    +0.000 C 
ATOM     28  O   UNL     1       3.354  15.573  17.639  0.00  0.00    +0.000 OA
ENDBRANCH  21  28
ENDBRANCH   1  24
TORSDOF 3
ENDMDL
