MODEL 1
REMARK VINA RESULT:      -8.1      0.000      0.000
REMARK  Name = 
REMARK  5 active torsions:
REMARK  status: ('A' for Active; 'I' for Inactive)
REMARK    1  A    between atoms: C_1  and  C_2
REMARK    2  A    between atoms: N_4  and  C_5
REMARK    3  A    between atoms: C_5  and  C_6
REMARK    4  A    between atoms: N_9  and  C_10
REMARK    5  A    between atoms: C_10  and  C_11
REMARK                            x       y       z     vdW  Elec       q    Type
REMARK                         _______ _______ _______ _____ _____    ______ ____
ROOT
ATOM      1  C   UNL     1       1.689   9.194  18.652  0.00  0.00    +0.000 A 
ATOM      2  C   UNL     1       1.545   8.622  19.935  0.00  0.00    +0.000 A 
ATOM      3  N   UNL     1       1.967   7.356  19.991  0.00  0.00    +0.000 NA
ATOM      4  N   UNL     1       2.398   7.101  18.741  0.00  0.00    +0.000 N 
ATOM      5  C   UNL     1       2.200   8.159  17.893  0.00  0.00    +0.000 A 
ENDROOT
BRANCH   4   6
ATOM      6  C   UNL     1       3.082   5.830  18.438  0.00  0.00    +0.000 C 
ATOM      7  C   UNL     1       2.022   4.822  17.947  0.00  0.00    +0.000 C 
ATOM      8  C   UNL     1       4.181   6.003  17.352  0.00  0.00    +0.000 C 
ATOM      9  C   UNL     1       5.101   4.797  17.430  0.00  0.00    +0.000 C 
ATOM     10  S   UNL     1       5.285   4.491  19.173  0.00  0.00    +0.000 S 
ATOM     11  O   UNL     1       6.412   5.262  19.654  0.00  0.00    +0.000 OA
ATOM     12  O   UNL     1       5.154   3.073  19.411  0.00  0.00    +0.000 OA
ATOM     13  C   UNL     1       3.793   5.301  19.700  0.00  0.00    +0.000 C 
ENDBRANCH   4   6
BRANCH   1  14
ATOM     14  C   UNL     1       1.353  10.587  18.223  0.00  0.00    +0.000 C 
BRANCH  14  18
ATOM     15  C   UNL     1      -1.914  12.272  21.327  0.00  0.00    +0.000 C 
ATOM     16  C   UNL     1      -1.440  12.588  19.913  0.00  0.00    +0.000 C 
ATOM     17  C   UNL     1       0.056  12.235  19.689  0.00  0.00    +0.000 C 
ATOM     18  N   UNL     1       0.110  11.151  18.710  0.00  0.00    +0.000 N 
ATOM     19  C   UNL     1      -1.166  10.916  18.248  0.00  0.00    +0.000 A 
ATOM     20  C   UNL     1      -1.592   9.997  17.305  0.00  0.00    +0.000 A 
ATOM     21  C   UNL     1      -2.961   9.878  17.029  0.00  0.00    +0.000 A 
ATOM     22  C   UNL     1      -3.897  10.686  17.686  0.00  0.00    +0.000 A 
ATOM     23  C   UNL     1      -3.475  11.621  18.625  0.00  0.00    +0.000 A 
ATOM     24  C   UNL     1      -2.115  11.713  18.897  0.00  0.00    +0.000 A 
ENDBRANCH  14  18
ENDBRANCH   1  14
TORSDOF 3
ENDMDL
MODEL 2
REMARK VINA RESULT:      -7.9      1.524      1.790
REMARK  Name = 
REMARK  5 active torsions:
REMARK  status: ('A' for Active; 'I' for Inactive)
REMARK    1  A    between atoms: C_1  and  C_2
REMARK    2  A    between atoms: N_4  and  C_5
REMARK    3  A    between atoms: C_5  and  C_6
REMARK    4  A    between atoms: N_9  and  C_10
REMARK    5  A    between atoms: C_10  and  C_11
REMARK                            x       y       z     vdW  Elec       q    Type
REMARK                         _______ _______ _______ _____ _____    ______ ____
ROOT
ATOM      1  C   UNL     1       2.413   8.358  18.240  0.00  0.00    +0.000 A 
ATOM      2  C   UNL     1       2.094   7.626  19.404  0.00  0.00    +0.000 A 
ATOM      3  N   UNL     1       2.765   6.475  19.496  0.00  0.00    +0.000 NA
ATOM      4  N   UNL     1       3.534   6.459  18.391  0.00  0.00    +0.000 N 
ATOM      5  C   UNL     1       3.315   7.544  17.584  0.00  0.00    +0.000 A 
ENDROOT
BRANCH   4   6
ATOM      6  C   UNL     1       4.542   5.399  18.206  0.00  0.00    +0.000 C 
ATOM      7  C   UNL     1       4.293   4.310  19.271  0.00  0.00    +0.000 C 
ATOM      8  C   UNL     1       4.471   4.766  16.787  0.00  0.00    +0.000 C 
ATOM      9  C   UNL     1       5.780   4.038  16.540  0.00  0.00    +0.000 C 
ATOM     10  S   UNL     1       7.021   5.110  17.229  0.00  0.00    +0.000 S 
ATOM     11  O   UNL     1       7.450   6.031  16.198  0.00  0.00    +0.000 OA
ATOM     12  O   UNL     1       7.950   4.312  17.994  0.00  0.00    +0.000 OA
ATOM     13  C   UNL     1       5.959   5.988  18.351  0.00  0.00    +0.000 C 
ENDBRANCH   4   6
BRANCH   1  14
ATOM     14  C   UNL     1       1.884   9.693  17.819  0.00  0.00    +0.000 C 
BRANCH  14  18
ATOM     15  C   UNL     1      -0.624  10.880  21.750  0.00  0.00    +0.000 C 
ATOM     16  C   UNL     1      -0.243  11.526  20.423  0.00  0.00    +0.000 C 
ATOM     17  C   UNL     1       1.116  11.011  19.874  0.00  0.00    +0.000 C 
ATOM     18  N   UNL     1       0.842  10.283  18.636  0.00  0.00    +0.000 N 
ATOM     19  C   UNL     1      -0.495  10.418  18.337  0.00  0.00    +0.000 A 
ATOM     20  C   UNL     1      -1.197   9.914  17.257  0.00  0.00    +0.000 A 
ATOM     21  C   UNL     1      -2.583  10.116  17.181  0.00  0.00    +0.000 A 
ATOM     22  C   UNL     1      -3.257  10.832  18.177  0.00  0.00    +0.000 A 
ATOM     23  C   UNL     1      -2.556  11.352  19.260  0.00  0.00    +0.000 A 
ATOM     24  C   UNL     1      -1.186  11.127  19.325  0.00  0.00    +0.000 A 
ENDBRANCH  14  18
ENDBRANCH   1  14
TORSDOF 3
ENDMDL
MODEL 3
REMARK VINA RESULT:      -7.8      1.168      2.510
REMARK  Name = 
REMARK  5 active torsions:
REMARK  status: ('A' for Active; 'I' for Inactive)
REMARK    1  A    between atoms: C_1  and  C_2
REMARK    2  A    between atoms: N_4  and  C_5
REMARK    3  A    between atoms: C_5  and  C_6
REMARK    4  A    between atoms: N_9  and  C_10
REMARK    5  A    between atoms: C_10  and  C_11
REMARK                            x       y       z     vdW  Elec       q    Type
REMARK                         _______ _______ _______ _____ _____    ______ ____
ROOT
ATOM      1  C   UNL     1       1.484   9.263  18.884  0.00  0.00    +0.000 A 
ATOM      2  C   UNL     1       2.350   9.042  17.792  0.00  0.00    +0.000 A 
ATOM      3  N   UNL     1       2.905   7.827  17.804  0.00  0.00    +0.000 NA
ATOM      4  N   UNL     1       2.392   7.247  18.905  0.00  0.00    +0.000 N 
ATOM      5  C   UNL     1       1.576   8.092  19.611  0.00  0.00    +0.000 A 
ENDROOT
BRANCH   4   6
ATOM      6  C   UNL     1       2.658   5.824  19.186  0.00  0.00    +0.000 C 
ATOM      7  C   UNL     1       1.977   5.464  20.523  0.00  0.00    +0.000 C 
ATOM      8  C   UNL     1       2.119   4.896  18.061  0.00  0.00    +0.000 C 
ATOM      9  C   UNL     1       2.810   3.550  18.201  0.00  0.00    +0.000 C 
ATOM     10  S   UNL     1       4.492   3.955  18.612  0.00  0.00    +0.000 S 
ATOM     11  O   UNL     1       5.239   4.102  17.380  0.00  0.00    +0.000 OA
ATOM     12  O   UNL     1       4.927   3.096  19.688  0.00  0.00    +0.000 OA
ATOM     13  C   UNL     1       4.178   5.578  19.265  0.00  0.00    +0.000 C 
ENDBRANCH   4   6
BRANCH   1  14
ATOM     14  C   UNL     1       0.673  10.484  19.182  0.00  0.00    +0.000 C 
BRANCH  14  18
ATOM     15  C   UNL     1      -2.715  10.804  15.780  0.00  0.00    +0.000 C 
ATOM     16  C   UNL     1      -2.535  10.108  17.124  0.00  0.00    +0.000 C 
ATOM     17  C   UNL     1      -1.050   9.769  17.430  0.00  0.00    +0.000 C 
ATOM     18  N   UNL     1      -0.645  10.569  18.585  0.00  0.00    +0.000 N 
ATOM     19  C   UNL     1      -1.750  11.240  19.059  0.00  0.00    +0.000 A 
ATOM     20  C   UNL     1      -1.845  12.097  20.141  0.00  0.00    +0.000 A 
ATOM     21  C   UNL     1      -3.066  12.731  20.412  0.00  0.00    +0.000 A 
ATOM     22  C   UNL     1      -4.189  12.496  19.609  0.00  0.00    +0.000 A 
ATOM     23  C   UNL     1      -4.104  11.625  18.528  0.00  0.00    +0.000 A 
ATOM     24  C   UNL     1      -2.881  11.019  18.266  0.00  0.00    +0.000 A 
ENDBRANCH  14  18
ENDBRANCH   1  14
TORSDOF 3
ENDMDL
MODEL 4
REMARK VINA RESULT:      -7.7      1.589      2.168
REMARK  Name = 
REMARK  5 active torsions:
REMARK  status: ('A' for Active; 'I' for Inactive)
REMARK    1  A    between atoms: C_1  and  C_2
REMARK    2  A    between atoms: N_4  and  C_5
REMARK    3  A    between atoms: C_5  and  C_6
REMARK    4  A    between atoms: N_9  and  C_10
REMARK    5  A    between atoms: C_10  and  C_11
REMARK                            x       y       z     vdW  Elec       q    Type
REMARK                         _______ _______ _______ _____ _____    ______ ____
ROOT
ATOM      1  C   UNL     1       1.825   8.512  18.861  0.00  0.00    +0.000 A 
ATOM      2  C   UNL     1       1.554   8.175  20.205  0.00  0.00    +0.000 A 
ATOM      3  N   UNL     1       1.891   6.918  20.505  0.00  0.00    +0.000 NA
ATOM      4  N   UNL     1       2.395   6.434  19.354  0.00  0.00    +0.000 N 
ATOM      5  C   UNL     1       2.325   7.340  18.329  0.00  0.00    +0.000 A 
ENDROOT
BRANCH   4   6
ATOM      6  C   UNL     1       3.020   5.099  19.323  0.00  0.00    +0.000 C 
ATOM      7  C   UNL     1       4.550   5.289  19.250  0.00  0.00    +0.000 C 
ATOM      8  C   UNL     1       2.659   4.254  20.577  0.00  0.00    +0.000 C 
ATOM      9  C   UNL     1       2.956   2.800  20.257  0.00  0.00    +0.000 C 
ATOM     10  S   UNL     1       2.416   2.597  18.575  0.00  0.00    +0.000 S 
ATOM     11  O   UNL     1       1.021   2.209  18.588  0.00  0.00    +0.000 OA
ATOM     12  O   UNL     1       3.423   1.857  17.850  0.00  0.00    +0.000 OA
ATOM     13  C   UNL     1       2.511   4.307  18.102  0.00  0.00    +0.000 C 
ENDBRANCH   4   6
BRANCH   1  14
ATOM     14  C   UNL     1       1.607   9.827  18.181  0.00  0.00    +0.000 C 
BRANCH  14  18
ATOM     15  C   UNL     1      -1.142  12.314  21.249  0.00  0.00    +0.000 C 
ATOM     16  C   UNL     1      -0.678  12.438  19.801  0.00  0.00    +0.000 C 
ATOM     17  C   UNL     1       0.713  11.788  19.560  0.00  0.00    +0.000 C 
ATOM     18  N   UNL     1       0.516  10.652  18.662  0.00  0.00    +0.000 N 
ATOM     19  C   UNL     1      -0.800  10.637  18.257  0.00  0.00    +0.000 A 
ATOM     20  C   UNL     1      -1.433   9.757  17.398  0.00  0.00    +0.000 A 
ATOM     21  C   UNL     1      -2.811   9.886  17.173  0.00  0.00    +0.000 A 
ATOM     22  C   UNL     1      -3.547  10.902  17.795  0.00  0.00    +0.000 A 
ATOM     23  C   UNL     1      -2.914  11.798  18.650  0.00  0.00    +0.000 A 
ATOM     24  C   UNL     1      -1.551  11.644  18.874  0.00  0.00    +0.000 A 
ENDBRANCH  14  18
ENDBRANCH   1  14
TORSDOF 3
ENDMDL
MODEL 5
REMARK VINA RESULT:      -7.7      0.682      2.111
REMARK  Name = 
REMARK  5 active torsions:
REMARK  status: ('A' for Active; 'I' for Inactive)
REMARK    1  A    between atoms: C_1  and  C_2
REMARK    2  A    between atoms: N_4  and  C_5
REMARK    3  A    between atoms: C_5  and  C_6
REMARK    4  A    between atoms: N_9  and  C_10
REMARK    5  A    between atoms: C_10  and  C_11
REMARK                            x       y       z     vdW  Elec       q    Type
REMARK                         _______ _______ _______ _____ _____    ______ ____
ROOT
ATOM      1  C   UNL     1       1.431   9.158  18.958  0.00  0.00    +0.000 A 
ATOM      2  C   UNL     1       1.459   8.534  20.224  0.00  0.00    +0.000 A 
ATOM      3  N   UNL     1       1.997   7.311  20.190  0.00  0.00    +0.000 NA
ATOM      4  N   UNL     1       2.331   7.139  18.897  0.00  0.00    +0.000 N 
ATOM      5  C   UNL     1       1.960   8.201  18.115  0.00  0.00    +0.000 A 
ENDROOT
BRANCH   4   6
ATOM      6  C   UNL     1       3.096   5.950  18.481  0.00  0.00    +0.000 C 
ATOM      7  C   UNL     1       2.108   4.936  17.867  0.00  0.00    +0.000 C 
ATOM      8  C   UNL     1       4.199   6.297  17.442  0.00  0.00    +0.000 C 
ATOM      9  C   UNL     1       5.190   5.147  17.417  0.00  0.00    +0.000 C 
ATOM     10  S   UNL     1       5.365   4.675  19.123  0.00  0.00    +0.000 S 
ATOM     11  O   UNL     1       6.435   5.457  19.705  0.00  0.00    +0.000 OA
ATOM     12  O   UNL     1       5.317   3.234  19.213  0.00  0.00    +0.000 OA
ATOM     13  C   UNL     1       3.819   5.337  19.697  0.00  0.00    +0.000 C 
ENDBRANCH   4   6
BRANCH   1  14
ATOM     14  C   UNL     1       0.932  10.527  18.620  0.00  0.00    +0.000 C 
BRANCH  14  18
ATOM     15  C   UNL     1      -3.121  10.956  16.061  0.00  0.00    +0.000 C 
ATOM     16  C   UNL     1      -2.673  10.275  17.350  0.00  0.00    +0.000 C 
ATOM     17  C   UNL     1      -1.173   9.868  17.322  0.00  0.00    +0.000 C 
ATOM     18  N   UNL     1      -0.482  10.667  18.332  0.00  0.00    +0.000 N 
ATOM     19  C   UNL     1      -1.420  11.400  19.025  0.00  0.00    +0.000 A 
ATOM     20  C   UNL     1      -1.229  12.280  20.076  0.00  0.00    +0.000 A 
ATOM     21  C   UNL     1      -2.327  12.979  20.597  0.00  0.00    +0.000 A 
ATOM     22  C   UNL     1      -3.612  12.786  20.075  0.00  0.00    +0.000 A 
ATOM     23  C   UNL     1      -3.813  11.893  19.028  0.00  0.00    +0.000 A 
ATOM     24  C   UNL     1      -2.710  11.222  18.514  0.00  0.00    +0.000 A 
ENDBRANCH  14  18
ENDBRANCH   1  14
TORSDOF 3
ENDMDL
MODEL 6
REMARK VINA RESULT:      -7.7      4.151      7.930
REMARK  Name = 
REMARK  5 active torsions:
REMARK  status: ('A' for Active; 'I' for Inactive)
REMARK    1  A    between atoms: C_1  and  C_2
REMARK    2  A    between atoms: N_4  and  C_5
REMARK    3  A    between atoms: C_5  and  C_6
REMARK    4  A    between atoms: N_9  and  C_10
REMARK    5  A    between atoms: C_10  and  C_11
REMARK                            x       y       z     vdW  Elec       q    Type
REMARK                         _______ _______ _______ _____ _____    ______ ____
ROOT
ATOM      1  C   UNL     1       2.127   7.985  19.173  0.00  0.00    +0.000 A 
ATOM      2  C   UNL     1       1.912   8.474  17.867  0.00  0.00    +0.000 A 
ATOM      3  N   UNL     1       1.051   9.495  17.828  0.00  0.00    +0.000 NA
ATOM      4  N   UNL     1       0.709   9.680  19.117  0.00  0.00    +0.000 N 
ATOM      5  C   UNL     1       1.291   8.761  19.951  0.00  0.00    +0.000 A 
ENDROOT
BRANCH   4   6
ATOM      6  C   UNL     1      -0.127  10.831  19.504  0.00  0.00    +0.000 C 
ATOM      7  C   UNL     1      -1.365  10.854  18.582  0.00  0.00    +0.000 C 
ATOM      8  C   UNL     1      -0.584  10.750  20.988  0.00  0.00    +0.000 C 
ATOM      9  C   UNL     1      -1.036  12.137  21.409  0.00  0.00    +0.000 C 
ATOM     10  S   UNL     1       0.145  13.235  20.658  0.00  0.00    +0.000 S 
ATOM     11  O   UNL     1       1.247  13.419  21.579  0.00  0.00    +0.000 OA
ATOM     12  O   UNL     1      -0.565  14.343  20.064  0.00  0.00    +0.000 OA
ATOM     13  C   UNL     1       0.679  12.138  19.366  0.00  0.00    +0.000 C 
ENDBRANCH   4   6
BRANCH   1  14
ATOM     14  C   UNL     1       3.038   6.878  19.602  0.00  0.00    +0.000 C 
BRANCH  14  18
ATOM     15  C   UNL     1       1.537   2.800  21.670  0.00  0.00    +0.000 C 
ATOM     16  C   UNL     1       1.086   3.719  20.540  0.00  0.00    +0.000 C 
ATOM     17  C   UNL     1       1.499   5.199  20.770  0.00  0.00    +0.000 C 
ATOM     18  N   UNL     1       2.462   5.554  19.728  0.00  0.00    +0.000 N 
ATOM     19  C   UNL     1       2.565   4.497  18.852  0.00  0.00    +0.000 A 
ATOM     20  C   UNL     1       3.340   4.390  17.710  0.00  0.00    +0.000 A 
ATOM     21  C   UNL     1       3.345   3.186  16.992  0.00  0.00    +0.000 A 
ATOM     22  C   UNL     1       2.565   2.100  17.409  0.00  0.00    +0.000 A 
ATOM     23  C   UNL     1       1.773   2.206  18.548  0.00  0.00    +0.000 A 
ATOM     24  C   UNL     1       1.795   3.401  19.255  0.00  0.00    +0.000 A 
ENDBRANCH  14  18
ENDBRANCH   1  14
TORSDOF 3
ENDMDL
MODEL 7
REMARK VINA RESULT:      -7.7      0.916      1.159
REMARK  Name = 
REMARK  5 active torsions:
REMARK  status: ('A' for Active; 'I' for Inactive)
REMARK    1  A    between atoms: C_1  and  C_2
REMARK    2  A    between atoms: N_4  and  C_5
REMARK    3  A    between atoms: C_5  and  C_6
REMARK    4  A    between atoms: N_9  and  C_10
REMARK    5  A    between atoms: C_10  and  C_11
REMARK                            x       y       z     vdW  Elec       q    Type
REMARK                         _______ _______ _______ _____ _____    ______ ____
ROOT
ATOM      1  C   UNL     1       1.474   9.104  19.211  0.00  0.00    +0.000 A 
ATOM      2  C   UNL     1       1.212   8.690  20.535  0.00  0.00    +0.000 A 
ATOM      3  N   UNL     1       1.554   7.419  20.761  0.00  0.00    +0.000 NA
ATOM      4  N   UNL     1       2.052   7.002  19.582  0.00  0.00    +0.000 N 
ATOM      5  C   UNL     1       1.974   7.965  18.611  0.00  0.00    +0.000 A 
ENDROOT
BRANCH   4   6
ATOM      6  C   UNL     1       2.679   5.672  19.471  0.00  0.00    +0.000 C 
ATOM      7  C   UNL     1       2.260   4.842  20.702  0.00  0.00    +0.000 C 
ATOM      8  C   UNL     1       2.253   4.931  18.172  0.00  0.00    +0.000 C 
ATOM      9  C   UNL     1       3.255   3.817  17.926  0.00  0.00    +0.000 C 
ATOM     10  S   UNL     1       4.829   4.535  18.343  0.00  0.00    +0.000 S 
ATOM     11  O   UNL     1       5.374   5.158  17.155  0.00  0.00    +0.000 OA
ATOM     12  O   UNL     1       5.575   3.588  19.137  0.00  0.00    +0.000 OA
ATOM     13  C   UNL     1       4.213   5.817  19.408  0.00  0.00    +0.000 C 
ENDBRANCH   4   6
BRANCH   1  14
ATOM     14  C   UNL     1       1.250  10.454  18.608  0.00  0.00    +0.000 C 
BRANCH  14  18
ATOM     15  C   UNL     1      -2.298  12.528  21.112  0.00  0.00    +0.000 C 
ATOM     16  C   UNL     1      -1.640  12.696  19.747  0.00  0.00    +0.000 C 
ATOM     17  C   UNL     1      -0.144  12.274  19.747  0.00  0.00    +0.000 C 
ATOM     18  N   UNL     1      -0.018  11.102  18.882  0.00  0.00    +0.000 N 
ATOM     19  C   UNL     1      -1.237  10.868  18.285  0.00  0.00    +0.000 A 
ATOM     20  C   UNL     1      -1.583   9.880  17.380  0.00  0.00    +0.000 A 
ATOM     21  C   UNL     1      -2.912   9.780  16.945  0.00  0.00    +0.000 A 
ATOM     22  C   UNL     1      -3.885  10.677  17.403  0.00  0.00    +0.000 A 
ATOM     23  C   UNL     1      -3.540  11.680  18.302  0.00  0.00    +0.000 A 
ATOM     24  C   UNL     1      -2.222  11.752  18.735  0.00  0.00    +0.000 A 
ENDBRANCH  14  18
ENDBRANCH   1  14
TORSDOF 3
ENDMDL
MODEL 8
REMARK VINA RESULT:      -7.7      2.340      3.526
REMARK  Name = 
REMARK  5 active torsions:
REMARK  status: ('A' for Active; 'I' for Inactive)
REMARK    1  A    between atoms: C_1  and  C_2
REMARK    2  A    between atoms: N_4  and  C_5
REMARK    3  A    between atoms: C_5  and  C_6
REMARK    4  A    between atoms: N_9  and  C_10
REMARK    5  A    between atoms: C_10  and  C_11
REMARK                            x       y       z     vdW  Elec       q    Type
REMARK                         _______ _______ _______ _____ _____    ______ ____
ROOT
ATOM      1  C   UNL     1       2.170   6.331  20.011  0.00  0.00    +0.000 A 
ATOM      2  C   UNL     1       1.741   5.083  19.510  0.00  0.00    +0.000 A 
ATOM      3  N   UNL     1       2.594   4.553  18.630  0.00  0.00    +0.000 NA
ATOM      4  N   UNL     1       3.592   5.455  18.562  0.00  0.00    +0.000 N 
ATOM      5  C   UNL     1       3.352   6.561  19.334  0.00  0.00    +0.000 A 
ENDROOT
BRANCH   4   6
ATOM      6  C   UNL     1       4.812   5.153  17.791  0.00  0.00    +0.000 C 
ATOM      7  C   UNL     1       4.463   4.075  16.745  0.00  0.00    +0.000 C 
ATOM      8  C   UNL     1       5.377   6.412  17.074  0.00  0.00    +0.000 C 
ATOM      9  C   UNL     1       6.819   6.122  16.698  0.00  0.00    +0.000 C 
ATOM     10  S   UNL     1       7.474   5.240  18.098  0.00  0.00    +0.000 S 
ATOM     11  O   UNL     1       8.012   6.205  19.033  0.00  0.00    +0.000 OA
ATOM     12  O   UNL     1       8.237   4.111  17.620  0.00  0.00    +0.000 OA
ATOM     13  C   UNL     1       5.923   4.655  18.737  0.00  0.00    +0.000 C 
ENDBRANCH   4   6
BRANCH   1  14
ATOM     14  C   UNL     1       1.492   7.197  21.024  0.00  0.00    +0.000 C 
BRANCH  14  18
ATOM     15  C   UNL     1       1.511  11.484  18.839  0.00  0.00    +0.000 C 
ATOM     16  C   UNL     1       0.506  10.374  19.125  0.00  0.00    +0.000 C 
ATOM     17  C   UNL     1       1.171   8.971  19.208  0.00  0.00    +0.000 C 
ATOM     18  N   UNL     1       1.024   8.496  20.583  0.00  0.00    +0.000 N 
ATOM     19  C   UNL     1       0.250   9.400  21.277  0.00  0.00    +0.000 A 
ATOM     20  C   UNL     1      -0.161   9.355  22.597  0.00  0.00    +0.000 A 
ATOM     21  C   UNL     1      -0.898  10.425  23.125  0.00  0.00    +0.000 A 
ATOM     22  C   UNL     1      -1.232  11.526  22.329  0.00  0.00    +0.000 A 
ATOM     23  C   UNL     1      -0.833  11.572  20.997  0.00  0.00    +0.000 A 
ATOM     24  C   UNL     1      -0.090  10.510  20.496  0.00  0.00    +0.000 A 
ENDBRANCH  14  18
ENDBRANCH   1  14
TORSDOF 3
ENDMDL
MODEL 9
REMARK VINA RESULT:      -7.6      3.902      8.260
REMARK  Name = 
REMARK  5 active torsions:
REMARK  status: ('A' for Active; 'I' for Inactive)
REMARK    1  A    between atoms: C_1  and  C_2
REMARK    2  A    between atoms: N_4  and  C_5
REMARK    3  A    between atoms: C_5  and  C_6
REMARK    4  A    between atoms: N_9  and  C_10
REMARK    5  A    between atoms: C_10  and  C_11
REMARK                            x       y       z     vdW  Elec       q    Type
REMARK                         _______ _______ _______ _____ _____    ______ ____
ROOT
ATOM      1  C   UNL     1       2.166   7.683  19.257  0.00  0.00    +0.000 A 
ATOM      2  C   UNL     1       2.216   8.229  17.956  0.00  0.00    +0.000 A 
ATOM      3  N   UNL     1       1.590   9.404  17.860  0.00  0.00    +0.000 NA
ATOM      4  N   UNL     1       1.136   9.634  19.107  0.00  0.00    +0.000 N 
ATOM      5  C   UNL     1       1.414   8.601  19.963  0.00  0.00    +0.000 A 
ENDROOT
BRANCH   4   6
ATOM      6  C   UNL     1       0.508  10.925  19.441  0.00  0.00    +0.000 C 
ATOM      7  C   UNL     1      -0.742  11.092  18.552  0.00  0.00    +0.000 C 
ATOM      8  C   UNL     1       0.097  11.005  20.939  0.00  0.00    +0.000 C 
ATOM      9  C   UNL     1      -0.112  12.469  21.283  0.00  0.00    +0.000 C 
ATOM     10  S   UNL     1       1.200  13.317  20.432  0.00  0.00    +0.000 S 
ATOM     11  O   UNL     1       2.349  13.375  21.311  0.00  0.00    +0.000 OA
ATOM     12  O   UNL     1       0.654  14.488  19.788  0.00  0.00    +0.000 OA
ATOM     13  C   UNL     1       1.506  12.075  19.199  0.00  0.00    +0.000 C 
ENDBRANCH   4   6
BRANCH   1  14
ATOM     14  C   UNL     1       2.776   6.406  19.742  0.00  0.00    +0.000 C 
BRANCH  14  18
ATOM     15  C   UNL     1       2.819   2.062  17.673  0.00  0.00    +0.000 C 
ATOM     16  C   UNL     1       2.673   3.514  17.233  0.00  0.00    +0.000 C 
ATOM     17  C   UNL     1       2.027   4.409  18.326  0.00  0.00    +0.000 C 
ATOM     18  N   UNL     1       3.036   5.376  18.755  0.00  0.00    +0.000 N 
ATOM     19  C   UNL     1       4.149   5.228  17.958  0.00  0.00    +0.000 A 
ATOM     20  C   UNL     1       5.337   5.936  17.988  0.00  0.00    +0.000 A 
ATOM     21  C   UNL     1       6.377   5.573  17.120  0.00  0.00    +0.000 A 
ATOM     22  C   UNL     1       6.219   4.515  16.216  0.00  0.00    +0.000 A 
ATOM     23  C   UNL     1       5.022   3.808  16.172  0.00  0.00    +0.000 A 
ATOM     24  C   UNL     1       4.010   4.172  17.051  0.00  0.00    +0.000 A 
ENDBRANCH  14  18
ENDBRANCH   1  14
TORSDOF 3
ENDMDL
