MODEL 1
REMARK VINA RESULT:      -7.6      0.000      0.000
REMARK  Name = 
REMARK  3 active torsions:
REMARK  status: ('A' for Active; 'I' for Inactive)
REMARK    1  A    between atoms: C_7  and  C_8
REMARK    2  A    between atoms: N_11  and  C_12
REMARK    3  A    between atoms: C_12  and  C_13
REMARK                            x       y       z     vdW  Elec       q    Type
REMARK                         _______ _______ _______ _____ _____    ______ ____
ROOT
ATOM      1  O   UNL     1      -5.291  12.429  19.962  0.00  0.00    +0.000 OA
ATOM      2  C   UNL     1      -4.154  12.453  19.510  0.00  0.00    +0.000 C 
ATOM      3  N   UNL     1      -3.206  13.395  19.875  0.00  0.00    +0.000 N 
ATOM      4  C   UNL     1      -1.993  13.033  20.618  0.00  0.00    +0.000 C 
ATOM      5  C   UNL     1      -1.543  11.572  20.561  0.00  0.00    +0.000 C 
ATOM      6  N   UNL     1      -1.388  11.087  19.203  0.00  0.00    +0.000 N 
ATOM      7  C   UNL     1      -0.300  10.516  18.579  0.00  0.00    +0.000 A 
ATOM      8  N   UNL     1      -0.684   9.971  17.435  0.00  0.00    +0.000 NA
ATOM      9  C   UNL     1      -2.022  10.258  17.282  0.00  0.00    +0.000 A 
ATOM     10  C   UNL     1      -2.944   9.926  16.281  0.00  0.00    +0.000 A 
ATOM     11  N   UNL     1      -4.235  10.375  16.361  0.00  0.00    +0.000 NA
ATOM     12  C   UNL     1      -4.606  11.157  17.409  0.00  0.00    +0.000 A 
ATOM     13  C   UNL     1      -3.751  11.542  18.429  0.00  0.00    +0.000 A 
ATOM     14  C   UNL     1      -2.457  11.032  18.341  0.00  0.00    +0.000 A 
ATOM     15  H   UNL     1      -2.966  13.973  19.077  0.00  0.00    +0.000 HD
ENDROOT
BRANCH   7  16
ATOM     16  C   UNL     1       1.113  10.534  19.123  0.00  0.00    +0.000 C 
ATOM     17  C   UNL     1       2.108   9.809  18.210  0.00  0.00    +0.000 C 
ATOM     18  C   UNL     1       2.058   8.285  18.331  0.00  0.00    +0.000 C 
ATOM     19  N   UNL     1       2.080   7.784  19.708  0.00  0.00    +0.000 NA
ATOM     20  C   UNL     1       1.120   8.451  20.590  0.00  0.00    +0.000 C 
ATOM     21  C   UNL     1       1.218   9.977  20.542  0.00  0.00    +0.000 C 
BRANCH  19  22
ATOM     22  C   UNL     1       1.944   6.307  19.764  0.00  0.00    +0.000 C 
BRANCH  22  23
ATOM     23  C   UNL     1       2.753   5.495  18.763  0.00  0.00    +0.000 A 
ATOM     24  C   UNL     1       4.069   5.865  18.437  0.00  0.00    +0.000 A 
ATOM     25  C   UNL     1       4.808   5.139  17.500  0.00  0.00    +0.000 A 
ATOM     26  C   UNL     1       4.250   4.021  16.888  0.00  0.00    +0.000 A 
ATOM     27  C   UNL     1       2.949   3.634  17.205  0.00  0.00    +0.000 A 
ATOM     28  C   UNL     1       2.205   4.366  18.135  0.00  0.00    +0.000 A 
ENDBRANCH  22  23
ENDBRANCH  19  22
ENDBRANCH   7  16
TORSDOF 3
ENDMDL
MODEL 2
REMARK VINA RESULT:      -7.6      1.122      1.314
REMARK  Name = 
REMARK  3 active torsions:
REMARK  status: ('A' for Active; 'I' for Inactive)
REMARK    1  A    between atoms: C_7  and  C_8
REMARK    2  A    between atoms: N_11  and  C_12
REMARK    3  A    between atoms: C_12  and  C_13
REMARK                            x       y       z     vdW  Elec       q    Type
REMARK                         _______ _______ _______ _____ _____    ______ ____
ROOT
ATOM      1  O   UNL     1      -5.587  12.676  20.146  0.00  0.00    +0.000 OA
ATOM      2  C   UNL     1      -4.441  12.721  19.721  0.00  0.00    +0.000 C 
ATOM      3  N   UNL     1      -3.510  13.661  20.130  0.00  0.00    +0.000 N 
ATOM      4  C   UNL     1      -2.311  13.291  20.891  0.00  0.00    +0.000 C 
ATOM      5  C   UNL     1      -1.846  11.835  20.808  0.00  0.00    +0.000 C 
ATOM      6  N   UNL     1      -1.656  11.386  19.443  0.00  0.00    +0.000 N 
ATOM      7  C   UNL     1      -0.550  10.839  18.829  0.00  0.00    +0.000 A 
ATOM      8  N   UNL     1      -0.903  10.320  17.664  0.00  0.00    +0.000 NA
ATOM      9  C   UNL     1      -2.240  10.600  17.488  0.00  0.00    +0.000 A 
ATOM     10  C   UNL     1      -3.136  10.285  16.458  0.00  0.00    +0.000 A 
ATOM     11  N   UNL     1      -4.433  10.721  16.520  0.00  0.00    +0.000 NA
ATOM     12  C   UNL     1      -4.834  11.474  17.579  0.00  0.00    +0.000 A 
ATOM     13  C   UNL     1      -4.005  11.840  18.627  0.00  0.00    +0.000 A 
ATOM     14  C   UNL     1      -2.706  11.343  18.556  0.00  0.00    +0.000 A 
ATOM     15  H   UNL     1      -3.257  14.260  19.353  0.00  0.00    +0.000 HD
ENDROOT
BRANCH   7  16
ATOM     16  C   UNL     1       0.850  10.856  19.406  0.00  0.00    +0.000 C 
ATOM     17  C   UNL     1       1.934  10.699  18.332  0.00  0.00    +0.000 C 
ATOM     18  C   UNL     1       2.124   9.258  17.855  0.00  0.00    +0.000 C 
ATOM     19  N   UNL     1       2.243   8.271  18.933  0.00  0.00    +0.000 NA
ATOM     20  C   UNL     1       1.203   8.394  19.956  0.00  0.00    +0.000 C 
ATOM     21  C   UNL     1       1.061   9.815  20.504  0.00  0.00    +0.000 C 
BRANCH  19  22
ATOM     22  C   UNL     1       2.340   6.886  18.409  0.00  0.00    +0.000 C 
BRANCH  22  23
ATOM     23  C   UNL     1       3.735   6.301  18.239  0.00  0.00    +0.000 A 
ATOM     24  C   UNL     1       4.303   5.500  19.244  0.00  0.00    +0.000 A 
ATOM     25  C   UNL     1       5.592   4.982  19.106  0.00  0.00    +0.000 A 
ATOM     26  C   UNL     1       6.327   5.242  17.954  0.00  0.00    +0.000 A 
ATOM     27  C   UNL     1       5.777   6.028  16.943  0.00  0.00    +0.000 A 
ATOM     28  C   UNL     1       4.491   6.556  17.085  0.00  0.00    +0.000 A 
ENDBRANCH  22  23
ENDBRANCH  19  22
ENDBRANCH   7  16
TORSDOF 3
ENDMDL
MODEL 3
REMARK VINA RESULT:      -7.5      9.246     11.066
REMARK  Name = 
REMARK  3 active torsions:
REMARK  status: ('A' for Active; 'I' for Inactive)
REMARK    1  A    between atoms: C_7  and  C_8
REMARK    2  A    between atoms: N_11  and  C_12
REMARK    3  A    between atoms: C_12  and  C_13
REMARK                            x       y       z     vdW  Elec       q    Type
REMARK                         _______ _______ _______ _____ _____    ______ ____
ROOT
ATOM      1  O   UNL     1      11.252  18.051  17.095  0.00  0.00    +0.000 OA
ATOM      2  C   UNL     1      10.870  16.900  17.261  0.00  0.00    +0.000 C 
ATOM      3  N   UNL     1      11.351  15.823  16.534  0.00  0.00    +0.000 N 
ATOM      4  C   UNL     1      12.140  14.753  17.155  0.00  0.00    +0.000 C 
ATOM      5  C   UNL     1      12.017  14.576  18.670  0.00  0.00    +0.000 C 
ATOM      6  N   UNL     1      10.643  14.418  19.105  0.00  0.00    +0.000 N 
ATOM      7  C   UNL     1      10.049  13.413  19.838  0.00  0.00    +0.000 A 
ATOM      8  N   UNL     1       8.852  13.808  20.241  0.00  0.00    +0.000 NA
ATOM      9  C   UNL     1       8.638  15.057  19.700  0.00  0.00    +0.000 A 
ATOM     10  C   UNL     1       7.565  15.951  19.801  0.00  0.00    +0.000 A 
ATOM     11  N   UNL     1       7.596  17.140  19.123  0.00  0.00    +0.000 NA
ATOM     12  C   UNL     1       8.669  17.434  18.340  0.00  0.00    +0.000 A 
ATOM     13  C   UNL     1       9.760  16.596  18.175  0.00  0.00    +0.000 A 
ATOM     14  C   UNL     1       9.717  15.416  18.914  0.00  0.00    +0.000 A 
ATOM     15  H   UNL     1      10.607  15.425  15.972  0.00  0.00    +0.000 HD
ENDROOT
BRANCH   7  16
ATOM     16  C   UNL     1      10.677  12.062  20.113  0.00  0.00    +0.000 C 
ATOM     17  C   UNL     1      11.196  11.381  18.841  0.00  0.00    +0.000 C 
ATOM     18  C   UNL     1      10.099  10.725  18.001  0.00  0.00    +0.000 C 
ATOM     19  N   UNL     1       9.174   9.879  18.763  0.00  0.00    +0.000 NA
ATOM     20  C   UNL     1       8.652  10.522  19.971  0.00  0.00    +0.000 C 
ATOM     21  C   UNL     1       9.747  11.109  20.863  0.00  0.00    +0.000 C 
BRANCH  19  22
ATOM     22  C   UNL     1       8.085   9.340  17.911  0.00  0.00    +0.000 C 
BRANCH  22  23
ATOM     23  C   UNL     1       7.872   7.833  17.924  0.00  0.00    +0.000 A 
ATOM     24  C   UNL     1       8.266   7.064  19.032  0.00  0.00    +0.000 A 
ATOM     25  C   UNL     1       8.097   5.677  19.040  0.00  0.00    +0.000 A 
ATOM     26  C   UNL     1       7.515   5.040  17.948  0.00  0.00    +0.000 A 
ATOM     27  C   UNL     1       7.111   5.788  16.844  0.00  0.00    +0.000 A 
ATOM     28  C   UNL     1       7.289   7.175  16.831  0.00  0.00    +0.000 A 
ENDBRANCH  22  23
ENDBRANCH  19  22
ENDBRANCH   7  16
TORSDOF 3
ENDMDL
MODEL 4
REMARK VINA RESULT:      -7.4      6.257      9.173
REMARK  Name = 
REMARK  3 active torsions:
REMARK  status: ('A' for Active; 'I' for Inactive)
REMARK    1  A    between atoms: C_7  and  C_8
REMARK    2  A    between atoms: N_11  and  C_12
REMARK    3  A    between atoms: C_12  and  C_13
REMARK                            x       y       z     vdW  Elec       q    Type
REMARK                         _______ _______ _______ _____ _____    ______ ____
ROOT
ATOM      1  O   UNL     1       0.826   1.943  18.202  0.00  0.00    +0.000 OA
ATOM      2  C   UNL     1       1.937   2.284  18.585  0.00  0.00    +0.000 C 
ATOM      3  N   UNL     1       3.036   1.442  18.589  0.00  0.00    +0.000 N 
ATOM      4  C   UNL     1       4.196   1.670  17.720  0.00  0.00    +0.000 C 
ATOM      5  C   UNL     1       4.401   3.085  17.177  0.00  0.00    +0.000 C 
ATOM      6  N   UNL     1       4.433   4.087  18.224  0.00  0.00    +0.000 N 
ATOM      7  C   UNL     1       5.393   5.027  18.531  0.00  0.00    +0.000 A 
ATOM      8  N   UNL     1       4.890   5.911  19.378  0.00  0.00    +0.000 NA
ATOM      9  C   UNL     1       3.613   5.496  19.681  0.00  0.00    +0.000 A 
ATOM     10  C   UNL     1       2.618   6.045  20.501  0.00  0.00    +0.000 A 
ATOM     11  N   UNL     1       1.420   5.399  20.653  0.00  0.00    +0.000 NA
ATOM     12  C   UNL     1       1.214   4.216  20.014  0.00  0.00    +0.000 A 
ATOM     13  C   UNL     1       2.152   3.602  19.200  0.00  0.00    +0.000 A 
ATOM     14  C   UNL     1       3.342   4.307  19.032  0.00  0.00    +0.000 A 
ATOM     15  H   UNL     1       3.341   1.275  19.541  0.00  0.00    +0.000 HD
ENDROOT
BRANCH   7  16
ATOM     16  C   UNL     1       6.807   5.023  17.988  0.00  0.00    +0.000 C 
ATOM     17  C   UNL     1       7.812   5.666  18.950  0.00  0.00    +0.000 C 
ATOM     18  C   UNL     1       7.788   7.195  18.935  0.00  0.00    +0.000 C 
ATOM     19  N   UNL     1       7.820   7.790  17.595  0.00  0.00    +0.000 NA
ATOM     20  C   UNL     1       6.851   7.202  16.669  0.00  0.00    +0.000 C 
ATOM     21  C   UNL     1       6.924   5.675  16.611  0.00  0.00    +0.000 C 
BRANCH  19  22
ATOM     22  C   UNL     1       7.709   9.270  17.641  0.00  0.00    +0.000 C 
BRANCH  22  23
ATOM     23  C   UNL     1       8.847  10.033  18.305  0.00  0.00    +0.000 A 
ATOM     24  C   UNL     1       9.768  10.759  17.531  0.00  0.00    +0.000 A 
ATOM     25  C   UNL     1      10.829  11.441  18.131  0.00  0.00    +0.000 A 
ATOM     26  C   UNL     1      10.975  11.422  19.515  0.00  0.00    +0.000 A 
ATOM     27  C   UNL     1      10.066  10.714  20.299  0.00  0.00    +0.000 A 
ATOM     28  C   UNL     1       9.010  10.023  19.698  0.00  0.00    +0.000 A 
ENDBRANCH  22  23
ENDBRANCH  19  22
ENDBRANCH   7  16
TORSDOF 3
ENDMDL
MODEL 5
REMARK VINA RESULT:      -7.2      1.134      1.493
REMARK  Name = 
REMARK  3 active torsions:
REMARK  status: ('A' for Active; 'I' for Inactive)
REMARK    1  A    between atoms: C_7  and  C_8
REMARK    2  A    between atoms: N_11  and  C_12
REMARK    3  A    between atoms: C_12  and  C_13
REMARK                            x       y       z     vdW  Elec       q    Type
REMARK                         _______ _______ _______ _____ _____    ______ ____
ROOT
ATOM      1  O   UNL     1      -5.833  12.596  19.871  0.00  0.00    +0.000 OA
ATOM      2  C   UNL     1      -4.661  12.662  19.521  0.00  0.00    +0.000 C 
ATOM      3  N   UNL     1      -3.777  13.618  19.990  0.00  0.00    +0.000 N 
ATOM      4  C   UNL     1      -2.624  13.270  20.829  0.00  0.00    +0.000 C 
ATOM      5  C   UNL     1      -2.129  11.823  20.778  0.00  0.00    +0.000 C 
ATOM      6  N   UNL     1      -1.841  11.377  19.429  0.00  0.00    +0.000 N 
ATOM      7  C   UNL     1      -0.687  10.851  18.890  0.00  0.00    +0.000 A 
ATOM      8  N   UNL     1      -0.953  10.325  17.705  0.00  0.00    +0.000 NA
ATOM      9  C   UNL     1      -2.280  10.581  17.441  0.00  0.00    +0.000 A 
ATOM     10  C   UNL     1      -3.101  10.250  16.355  0.00  0.00    +0.000 A 
ATOM     11  N   UNL     1      -4.407  10.662  16.331  0.00  0.00    +0.000 NA
ATOM     12  C   UNL     1      -4.891  11.407  17.360  0.00  0.00    +0.000 A 
ATOM     13  C   UNL     1      -4.139  11.789  18.460  0.00  0.00    +0.000 A 
ATOM     14  C   UNL     1      -2.829  11.315  18.475  0.00  0.00    +0.000 A 
ATOM     15  H   UNL     1      -3.484  14.222  19.230  0.00  0.00    +0.000 HD
ENDROOT
BRANCH   7  16
ATOM     16  C   UNL     1       0.672  10.893  19.558  0.00  0.00    +0.000 C 
ATOM     17  C   UNL     1       1.820  11.033  18.552  0.00  0.00    +0.000 C 
ATOM     18  C   UNL     1       2.184   9.726  17.845  0.00  0.00    +0.000 C 
ATOM     19  N   UNL     1       2.348   8.577  18.741  0.00  0.00    +0.000 NA
ATOM     20  C   UNL     1       1.248   8.415  19.694  0.00  0.00    +0.000 C 
ATOM     21  C   UNL     1       0.931   9.695  20.470  0.00  0.00    +0.000 C 
BRANCH  19  22
ATOM     22  C   UNL     1       2.615   7.323  17.992  0.00  0.00    +0.000 C 
BRANCH  22  23
ATOM     23  C   UNL     1       2.253   6.013  18.676  0.00  0.00    +0.000 A 
ATOM     24  C   UNL     1       2.480   5.837  20.051  0.00  0.00    +0.000 A 
ATOM     25  C   UNL     1       2.174   4.627  20.680  0.00  0.00    +0.000 A 
ATOM     26  C   UNL     1       1.621   3.582  19.948  0.00  0.00    +0.000 A 
ATOM     27  C   UNL     1       1.382   3.741  18.584  0.00  0.00    +0.000 A 
ATOM     28  C   UNL     1       1.698   4.947  17.952  0.00  0.00    +0.000 A 
ENDBRANCH  22  23
ENDBRANCH  19  22
ENDBRANCH   7  16
TORSDOF 3
ENDMDL
MODEL 6
REMARK VINA RESULT:      -7.1      1.491      2.024
REMARK  Name = 
REMARK  3 active torsions:
REMARK  status: ('A' for Active; 'I' for Inactive)
REMARK    1  A    between atoms: C_7  and  C_8
REMARK    2  A    between atoms: N_11  and  C_12
REMARK    3  A    between atoms: C_12  and  C_13
REMARK                            x       y       z     vdW  Elec       q    Type
REMARK                         _______ _______ _______ _____ _____    ______ ____
ROOT
ATOM      1  O   UNL     1      -6.087  13.421  21.257  0.00  0.00    +0.000 OA
ATOM      2  C   UNL     1      -4.962  13.479  20.780  0.00  0.00    +0.000 C 
ATOM      3  N   UNL     1      -3.992  14.366  21.217  0.00  0.00    +0.000 N 
ATOM      4  C   UNL     1      -2.766  13.915  21.886  0.00  0.00    +0.000 C 
ATOM      5  C   UNL     1      -2.338  12.462  21.665  0.00  0.00    +0.000 C 
ATOM      6  N   UNL     1      -2.224  12.120  20.261  0.00  0.00    +0.000 N 
ATOM      7  C   UNL     1      -1.161  11.604  19.552  0.00  0.00    +0.000 A 
ATOM      8  N   UNL     1      -1.580  11.186  18.368  0.00  0.00    +0.000 NA
ATOM      9  C   UNL     1      -2.917  11.504  18.281  0.00  0.00    +0.000 A 
ATOM     10  C   UNL     1      -3.869  11.289  17.275  0.00  0.00    +0.000 A 
ATOM     11  N   UNL     1      -5.151  11.742  17.435  0.00  0.00    +0.000 NA
ATOM     12  C   UNL     1      -5.485  12.415  18.569  0.00  0.00    +0.000 A 
ATOM     13  C   UNL     1      -4.599  12.681  19.601  0.00  0.00    +0.000 A 
ATOM     14  C   UNL     1      -3.315  12.167  19.426  0.00  0.00    +0.000 A 
ATOM     15  H   UNL     1      -3.764  15.021  20.477  0.00  0.00    +0.000 HD
ENDROOT
BRANCH   7  16
ATOM     16  C   UNL     1       0.266  11.549  20.058  0.00  0.00    +0.000 C 
ATOM     17  C   UNL     1       1.296  11.811  18.953  0.00  0.00    +0.000 C 
ATOM     18  C   UNL     1       1.548  10.605  18.047  0.00  0.00    +0.000 C 
ATOM     19  N   UNL     1       1.787   9.347  18.762  0.00  0.00    +0.000 NA
ATOM     20  C   UNL     1       0.799   9.071  19.807  0.00  0.00    +0.000 C 
ATOM     21  C   UNL     1       0.600  10.241  20.773  0.00  0.00    +0.000 C 
BRANCH  19  22
ATOM     22  C   UNL     1       1.940   8.200  17.832  0.00  0.00    +0.000 C 
BRANCH  22  23
ATOM     23  C   UNL     1       2.963   7.136  18.201  0.00  0.00    +0.000 A 
ATOM     24  C   UNL     1       2.760   6.303  19.314  0.00  0.00    +0.000 A 
ATOM     25  C   UNL     1       3.708   5.342  19.674  0.00  0.00    +0.000 A 
ATOM     26  C   UNL     1       4.864   5.186  18.916  0.00  0.00    +0.000 A 
ATOM     27  C   UNL     1       5.079   5.999  17.804  0.00  0.00    +0.000 A 
ATOM     28  C   UNL     1       4.136   6.968  17.450  0.00  0.00    +0.000 A 
ENDBRANCH  22  23
ENDBRANCH  19  22
ENDBRANCH   7  16
TORSDOF 3
ENDMDL
MODEL 7
REMARK VINA RESULT:      -7.0      3.246      7.908
REMARK  Name = 
REMARK  3 active torsions:
REMARK  status: ('A' for Active; 'I' for Inactive)
REMARK    1  A    between atoms: C_7  and  C_8
REMARK    2  A    between atoms: N_11  and  C_12
REMARK    3  A    between atoms: C_12  and  C_13
REMARK                            x       y       z     vdW  Elec       q    Type
REMARK                         _______ _______ _______ _____ _____    ______ ____
ROOT
ATOM      1  O   UNL     1       3.485   2.345  18.620  0.00  0.00    +0.000 OA
ATOM      2  C   UNL     1       2.744   3.308  18.765  0.00  0.00    +0.000 C 
ATOM      3  N   UNL     1       1.437   3.206  19.211  0.00  0.00    +0.000 N 
ATOM      4  C   UNL     1       1.008   3.756  20.502  0.00  0.00    +0.000 C 
ATOM      5  C   UNL     1       1.877   4.852  21.123  0.00  0.00    +0.000 C 
ATOM      6  N   UNL     1       2.099   5.967  20.223  0.00  0.00    +0.000 N 
ATOM      7  C   UNL     1       1.849   7.312  20.390  0.00  0.00    +0.000 A 
ATOM      8  N   UNL     1       2.460   7.996  19.436  0.00  0.00    +0.000 NA
ATOM      9  C   UNL     1       3.052   7.077  18.598  0.00  0.00    +0.000 A 
ATOM     10  C   UNL     1       3.834   7.226  17.446  0.00  0.00    +0.000 A 
ATOM     11  N   UNL     1       4.281   6.120  16.772  0.00  0.00    +0.000 NA
ATOM     12  C   UNL     1       3.944   4.882  17.223  0.00  0.00    +0.000 A 
ATOM     13  C   UNL     1       3.162   4.653  18.343  0.00  0.00    +0.000 A 
ATOM     14  C   UNL     1       2.762   5.796  19.031  0.00  0.00    +0.000 A 
ATOM     15  H   UNL     1       0.797   3.497  18.480  0.00  0.00    +0.000 HD
ENDROOT
BRANCH   7  16
ATOM     16  C   UNL     1       0.989   7.897  21.490  0.00  0.00    +0.000 C 
ATOM     17  C   UNL     1      -0.497   7.948  21.116  0.00  0.00    +0.000 C 
ATOM     18  C   UNL     1      -0.859   9.107  20.186  0.00  0.00    +0.000 C 
ATOM     19  N   UNL     1      -0.333  10.410  20.605  0.00  0.00    +0.000 NA
ATOM     20  C   UNL     1       1.091  10.384  20.946  0.00  0.00    +0.000 C 
ATOM     21  C   UNL     1       1.452   9.282  21.943  0.00  0.00    +0.000 C 
BRANCH  19  22
ATOM     22  C   UNL     1      -0.644  11.477  19.621  0.00  0.00    +0.000 C 
BRANCH  22  23
ATOM     23  C   UNL     1      -1.710  11.173  18.578  0.00  0.00    +0.000 A 
ATOM     24  C   UNL     1      -2.996  11.730  18.684  0.00  0.00    +0.000 A 
ATOM     25  C   UNL     1      -3.986  11.435  17.744  0.00  0.00    +0.000 A 
ATOM     26  C   UNL     1      -3.702  10.592  16.674  0.00  0.00    +0.000 A 
ATOM     27  C   UNL     1      -2.430  10.036  16.548  0.00  0.00    +0.000 A 
ATOM     28  C   UNL     1      -1.441  10.323  17.494  0.00  0.00    +0.000 A 
ENDBRANCH  22  23
ENDBRANCH  19  22
ENDBRANCH   7  16
TORSDOF 3
ENDMDL
MODEL 8
REMARK VINA RESULT:      -7.0      1.892      3.856
REMARK  Name = 
REMARK  3 active torsions:
REMARK  status: ('A' for Active; 'I' for Inactive)
REMARK    1  A    between atoms: C_7  and  C_8
REMARK    2  A    between atoms: N_11  and  C_12
REMARK    3  A    between atoms: C_12  and  C_13
REMARK                            x       y       z     vdW  Elec       q    Type
REMARK                         _______ _______ _______ _____ _____    ______ ____
ROOT
ATOM      1  O   UNL     1      -7.897  11.998  19.514  0.00  0.00    +0.000 OA
ATOM      2  C   UNL     1      -6.733  11.627  19.587  0.00  0.00    +0.000 C 
ATOM      3  N   UNL     1      -6.201  10.621  18.798  0.00  0.00    +0.000 N 
ATOM      4  C   UNL     1      -5.166  10.884  17.791  0.00  0.00    +0.000 C 
ATOM      5  C   UNL     1      -4.337  12.160  17.951  0.00  0.00    +0.000 C 
ATOM      6  N   UNL     1      -3.717  12.265  19.257  0.00  0.00    +0.000 N 
ATOM      7  C   UNL     1      -2.394  12.428  19.607  0.00  0.00    +0.000 A 
ATOM      8  N   UNL     1      -2.312  12.754  20.886  0.00  0.00    +0.000 NA
ATOM      9  C   UNL     1      -3.593  12.728  21.391  0.00  0.00    +0.000 A 
ATOM     10  C   UNL     1      -4.105  13.000  22.666  0.00  0.00    +0.000 A 
ATOM     11  N   UNL     1      -5.445  12.866  22.910  0.00  0.00    +0.000 NA
ATOM     12  C   UNL     1      -6.268  12.453  21.910  0.00  0.00    +0.000 A 
ATOM     13  C   UNL     1      -5.838  12.149  20.628  0.00  0.00    +0.000 A 
ATOM     14  C   UNL     1      -4.476  12.339  20.401  0.00  0.00    +0.000 A 
ATOM     15  H   UNL     1      -5.932   9.833  19.376  0.00  0.00    +0.000 HD
ENDROOT
BRANCH   7  16
ATOM     16  C   UNL     1      -1.225  12.241  18.662  0.00  0.00    +0.000 C 
ATOM     17  C   UNL     1      -1.183  10.839  18.043  0.00  0.00    +0.000 C 
ATOM     18  C   UNL     1      -0.624   9.768  18.982  0.00  0.00    +0.000 C 
ATOM     19  N   UNL     1       0.631  10.136  19.645  0.00  0.00    +0.000 NA
ATOM     20  C   UNL     1       0.601  11.465  20.259  0.00  0.00    +0.000 C 
ATOM     21  C   UNL     1       0.124  12.560  19.303  0.00  0.00    +0.000 C 
BRANCH  19  22
ATOM     22  C   UNL     1       1.078   9.095  20.605  0.00  0.00    +0.000 C 
BRANCH  22  23
ATOM     23  C   UNL     1       1.694   7.831  20.023  0.00  0.00    +0.000 A 
ATOM     24  C   UNL     1       2.294   7.845  18.753  0.00  0.00    +0.000 A 
ATOM     25  C   UNL     1       2.839   6.682  18.203  0.00  0.00    +0.000 A 
ATOM     26  C   UNL     1       2.808   5.492  18.922  0.00  0.00    +0.000 A 
ATOM     27  C   UNL     1       2.225   5.460  20.187  0.00  0.00    +0.000 A 
ATOM     28  C   UNL     1       1.670   6.621  20.734  0.00  0.00    +0.000 A 
ENDBRANCH  22  23
ENDBRANCH  19  22
ENDBRANCH   7  16
TORSDOF 3
ENDMDL
MODEL 9
REMARK VINA RESULT:      -6.7      4.105      8.336
REMARK  Name = 
REMARK  3 active torsions:
REMARK  status: ('A' for Active; 'I' for Inactive)
REMARK    1  A    between atoms: C_7  and  C_8
REMARK    2  A    between atoms: N_11  and  C_12
REMARK    3  A    between atoms: C_12  and  C_13
REMARK                            x       y       z     vdW  Elec       q    Type
REMARK                         _______ _______ _______ _____ _____    ______ ____
ROOT
ATOM      1  O   UNL     1      -2.550  10.665  15.053  0.00  0.00    +0.000 OA
ATOM      2  C   UNL     1      -2.528  10.577  16.274  0.00  0.00    +0.000 C 
ATOM      3  N   UNL     1      -1.617   9.797  16.967  0.00  0.00    +0.000 N 
ATOM      4  C   UNL     1      -0.592  10.383  17.838  0.00  0.00    +0.000 C 
ATOM      5  C   UNL     1      -0.837  11.801  18.357  0.00  0.00    +0.000 C 
ATOM      6  N   UNL     1      -2.114  11.939  19.028  0.00  0.00    +0.000 N 
ATOM      7  C   UNL     1      -2.412  12.382  20.299  0.00  0.00    +0.000 A 
ATOM      8  N   UNL     1      -3.712  12.608  20.395  0.00  0.00    +0.000 NA
ATOM      9  C   UNL     1      -4.275  12.235  19.194  0.00  0.00    +0.000 A 
ATOM     10  C   UNL     1      -5.594  12.268  18.726  0.00  0.00    +0.000 A 
ATOM     11  N   UNL     1      -5.891  11.799  17.474  0.00  0.00    +0.000 NA
ATOM     12  C   UNL     1      -4.896  11.288  16.700  0.00  0.00    +0.000 A 
ATOM     13  C   UNL     1      -3.571  11.206  17.096  0.00  0.00    +0.000 A 
ATOM     14  C   UNL     1      -3.296  11.733  18.357  0.00  0.00    +0.000 A 
ATOM     15  H   UNL     1      -2.100   9.049  17.452  0.00  0.00    +0.000 HD
ENDROOT
BRANCH   7  16
ATOM     16  C   UNL     1      -1.396  12.559  21.408  0.00  0.00    +0.000 C 
ATOM     17  C   UNL     1      -1.693  11.679  22.628  0.00  0.00    +0.000 C 
ATOM     18  C   UNL     1      -2.803  12.227  23.527  0.00  0.00    +0.000 C 
ATOM     19  N   UNL     1      -2.664  13.646  23.868  0.00  0.00    +0.000 NA
ATOM     20  C   UNL     1      -2.400  14.504  22.711  0.00  0.00    +0.000 C 
ATOM     21  C   UNL     1      -1.235  14.013  21.850  0.00  0.00    +0.000 C 
BRANCH  19  22
ATOM     22  C   UNL     1      -3.811  14.140  24.670  0.00  0.00    +0.000 C 
BRANCH  22  23
ATOM     23  C   UNL     1      -5.199  13.993  24.062  0.00  0.00    +0.000 A 
ATOM     24  C   UNL     1      -5.783  15.051  23.346  0.00  0.00    +0.000 A 
ATOM     25  C   UNL     1      -7.067  14.931  22.808  0.00  0.00    +0.000 A 
ATOM     26  C   UNL     1      -7.779  13.746  22.963  0.00  0.00    +0.000 A 
ATOM     27  C   UNL     1      -7.212  12.682  23.664  0.00  0.00    +0.000 A 
ATOM     28  C   UNL     1      -5.932  12.805  24.211  0.00  0.00    +0.000 A 
ENDBRANCH  22  23
ENDBRANCH  19  22
ENDBRANCH   7  16
TORSDOF 3
ENDMDL
