MODEL 1
REMARK VINA RESULT:      -5.4      0.000      0.000
REMARK  Name = 
REMARK  3 active torsions:
REMARK  status: ('A' for Active; 'I' for Inactive)
REMARK    1  A    between atoms: C_2  and  C_3
REMARK    2  A    between atoms: C_2  and  C_4
REMARK    3  A    between atoms: C_7  and  C_8
REMARK                            x       y       z     vdW  Elec       q    Type
REMARK                         _______ _______ _______ _____ _____    ______ ____
ROOT
ATOM      1  C   UNL     1       2.199   4.193  18.173  0.00  0.00    +0.000 C 
ATOM      2  C   UNL     1       3.322   3.319  17.576  0.00  0.00    +0.000 C 
ATOM      3  C   UNL     1       4.342   4.116  16.809  0.00  0.00    +0.000 C 
ATOM      4  C   UNL     1       4.456   5.454  16.887  0.00  0.00    +0.000 C 
ATOM      5  C   UNL     1       5.463   6.221  16.079  0.00  0.00    +0.000 C 
ATOM      6  C   UNL     1       3.577   6.281  17.793  0.00  0.00    +0.000 C 
ATOM      7  C   UNL     1       2.797   5.452  18.817  0.00  0.00    +0.000 C 
ENDROOT
BRANCH   1   9
ATOM      8  C   UNL     1       0.712   2.278  18.780  0.00  0.00    +0.000 C 
ATOM      9  C   UNL     1       1.292   3.437  19.138  0.00  0.00    +0.000 C 
ATOM     10  C   UNL     1       1.035   4.031  20.499  0.00  0.00    +0.000 C 
ENDBRANCH   1   9
TORSDOF 1
ENDMDL
MODEL 2
REMARK VINA RESULT:      -5.3      0.131      1.114
REMARK  Name = 
REMARK  3 active torsions:
REMARK  status: ('A' for Active; 'I' for Inactive)
REMARK    1  A    between atoms: C_2  and  C_3
REMARK    2  A    between atoms: C_2  and  C_4
REMARK    3  A    between atoms: C_7  and  C_8
REMARK                            x       y       z     vdW  Elec       q    Type
REMARK                         _______ _______ _______ _____ _____    ______ ____
ROOT
ATOM      1  C   UNL     1       2.213   4.344  18.216  0.00  0.00    +0.000 C 
ATOM      2  C   UNL     1       3.258   3.415  17.564  0.00  0.00    +0.000 C 
ATOM      3  C   UNL     1       4.289   4.163  16.761  0.00  0.00    +0.000 C 
ATOM      4  C   UNL     1       4.480   5.492  16.846  0.00  0.00    +0.000 C 
ATOM      5  C   UNL     1       5.494   6.211  16.002  0.00  0.00    +0.000 C 
ATOM      6  C   UNL     1       3.688   6.357  17.796  0.00  0.00    +0.000 C 
ATOM      7  C   UNL     1       2.906   5.561  18.845  0.00  0.00    +0.000 C 
ENDROOT
BRANCH   1   9
ATOM      8  C   UNL     1       1.038   4.170  20.414  0.00  0.00    +0.000 C 
ATOM      9  C   UNL     1       1.307   3.629  19.213  0.00  0.00    +0.000 C 
ATOM     10  C   UNL     1       0.737   2.286  18.835  0.00  0.00    +0.000 C 
ENDBRANCH   1   9
TORSDOF 1
ENDMDL
MODEL 3
REMARK VINA RESULT:      -5.3      1.428      4.537
REMARK  Name = 
REMARK  3 active torsions:
REMARK  status: ('A' for Active; 'I' for Inactive)
REMARK    1  A    between atoms: C_2  and  C_3
REMARK    2  A    between atoms: C_2  and  C_4
REMARK    3  A    between atoms: C_7  and  C_8
REMARK                            x       y       z     vdW  Elec       q    Type
REMARK                         _______ _______ _______ _____ _____    ______ ____
ROOT
ATOM      1  C   UNL     1       2.993   5.877  18.641  0.00  0.00    +0.000 C 
ATOM      2  C   UNL     1       2.093   4.854  17.919  0.00  0.00    +0.000 C 
ATOM      3  C   UNL     1       1.555   3.791  18.839  0.00  0.00    +0.000 C 
ATOM      4  C   UNL     1       1.583   3.883  20.181  0.00  0.00    +0.000 C 
ATOM      5  C   UNL     1       1.069   2.786  21.069  0.00  0.00    +0.000 C 
ATOM      6  C   UNL     1       2.135   5.095  20.890  0.00  0.00    +0.000 C 
ATOM      7  C   UNL     1       2.351   6.300  19.970  0.00  0.00    +0.000 C 
ENDROOT
BRANCH   1   9
ATOM      8  C   UNL     1       2.603   8.195  17.792  0.00  0.00    +0.000 C 
ATOM      9  C   UNL     1       3.356   7.081  17.778  0.00  0.00    +0.000 C 
ATOM     10  C   UNL     1       4.565   6.988  16.883  0.00  0.00    +0.000 C 
ENDBRANCH   1   9
TORSDOF 1
ENDMDL
MODEL 4
REMARK VINA RESULT:      -5.3      1.411      4.453
REMARK  Name = 
REMARK  3 active torsions:
REMARK  status: ('A' for Active; 'I' for Inactive)
REMARK    1  A    between atoms: C_2  and  C_3
REMARK    2  A    between atoms: C_2  and  C_4
REMARK    3  A    between atoms: C_7  and  C_8
REMARK                            x       y       z     vdW  Elec       q    Type
REMARK                         _______ _______ _______ _____ _____    ______ ____
ROOT
ATOM      1  C   UNL     1       3.027   5.853  18.623  0.00  0.00    +0.000 C 
ATOM      2  C   UNL     1       2.158   4.806  17.896  0.00  0.00    +0.000 C 
ATOM      3  C   UNL     1       1.607   3.755  18.822  0.00  0.00    +0.000 C 
ATOM      4  C   UNL     1       1.596   3.873  20.163  0.00  0.00    +0.000 C 
ATOM      5  C   UNL     1       1.070   2.787  21.057  0.00  0.00    +0.000 C 
ATOM      6  C   UNL     1       2.115   5.105  20.863  0.00  0.00    +0.000 C 
ATOM      7  C   UNL     1       2.342   6.294  19.925  0.00  0.00    +0.000 C 
ENDROOT
BRANCH   1   9
ATOM      8  C   UNL     1       4.487   7.008  16.957  0.00  0.00    +0.000 C 
ATOM      9  C   UNL     1       3.399   7.044  17.747  0.00  0.00    +0.000 C 
ATOM     10  C   UNL     1       2.537   8.279  17.804  0.00  0.00    +0.000 C 
ENDBRANCH   1   9
TORSDOF 1
ENDMDL
MODEL 5
REMARK VINA RESULT:      -5.3      0.437      1.646
REMARK  Name = 
REMARK  3 active torsions:
REMARK  status: ('A' for Active; 'I' for Inactive)
REMARK    1  A    between atoms: C_2  and  C_3
REMARK    2  A    between atoms: C_2  and  C_4
REMARK    3  A    between atoms: C_7  and  C_8
REMARK                            x       y       z     vdW  Elec       q    Type
REMARK                         _______ _______ _______ _____ _____    ______ ____
ROOT
ATOM      1  C   UNL     1       2.709   4.010  18.808  0.00  0.00    +0.000 C 
ATOM      2  C   UNL     1       2.436   5.522  18.672  0.00  0.00    +0.000 C 
ATOM      3  C   UNL     1       3.461   6.231  17.827  0.00  0.00    +0.000 C 
ATOM      4  C   UNL     1       4.333   5.595  17.023  0.00  0.00    +0.000 C 
ATOM      5  C   UNL     1       5.366   6.333  16.221  0.00  0.00    +0.000 C 
ATOM      6  C   UNL     1       4.334   4.094  16.870  0.00  0.00    +0.000 C 
ATOM      7  C   UNL     1       3.086   3.417  17.443  0.00  0.00    +0.000 C 
ENDROOT
BRANCH   1   9
ATOM      8  C   UNL     1       0.774   2.430  18.740  0.00  0.00    +0.000 C 
ATOM      9  C   UNL     1       1.563   3.245  19.462  0.00  0.00    +0.000 C 
ATOM     10  C   UNL     1       1.314   3.441  20.935  0.00  0.00    +0.000 C 
ENDBRANCH   1   9
TORSDOF 1
ENDMDL
MODEL 6
REMARK VINA RESULT:      -5.3      0.389      1.966
REMARK  Name = 
REMARK  3 active torsions:
REMARK  status: ('A' for Active; 'I' for Inactive)
REMARK    1  A    between atoms: C_2  and  C_3
REMARK    2  A    between atoms: C_2  and  C_4
REMARK    3  A    between atoms: C_7  and  C_8
REMARK                            x       y       z     vdW  Elec       q    Type
REMARK                         _______ _______ _______ _____ _____    ______ ____
ROOT
ATOM      1  C   UNL     1       2.717   4.098  18.842  0.00  0.00    +0.000 C 
ATOM      2  C   UNL     1       2.531   5.622  18.696  0.00  0.00    +0.000 C 
ATOM      3  C   UNL     1       3.569   6.259  17.812  0.00  0.00    +0.000 C 
ATOM      4  C   UNL     1       4.376   5.565  16.989  0.00  0.00    +0.000 C 
ATOM      5  C   UNL     1       5.425   6.232  16.147  0.00  0.00    +0.000 C 
ATOM      6  C   UNL     1       4.282   4.065  16.853  0.00  0.00    +0.000 C 
ATOM      7  C   UNL     1       3.015   3.470  17.473  0.00  0.00    +0.000 C 
ENDROOT
BRANCH   1   9
ATOM      8  C   UNL     1       1.245   3.689  20.819  0.00  0.00    +0.000 C 
ATOM      9  C   UNL     1       1.549   3.409  19.540  0.00  0.00    +0.000 C 
ATOM     10  C   UNL     1       0.755   2.382  18.774  0.00  0.00    +0.000 C 
ENDBRANCH   1   9
TORSDOF 1
ENDMDL
MODEL 7
REMARK VINA RESULT:      -5.1      0.934      4.368
REMARK  Name = 
REMARK  3 active torsions:
REMARK  status: ('A' for Active; 'I' for Inactive)
REMARK    1  A    between atoms: C_2  and  C_3
REMARK    2  A    between atoms: C_2  and  C_4
REMARK    3  A    between atoms: C_7  and  C_8
REMARK                            x       y       z     vdW  Elec       q    Type
REMARK                         _______ _______ _______ _____ _____    ______ ____
ROOT
ATOM      1  C   UNL     1       4.178   4.539  17.486  0.00  0.00    +0.000 C 
ATOM      2  C   UNL     1       2.975   3.669  17.067  0.00  0.00    +0.000 C 
ATOM      3  C   UNL     1       1.964   3.494  18.168  0.00  0.00    +0.000 C 
ATOM      4  C   UNL     1       1.934   4.251  19.280  0.00  0.00    +0.000 C 
ATOM      5  C   UNL     1       0.932   4.025  20.376  0.00  0.00    +0.000 C 
ATOM      6  C   UNL     1       2.908   5.382  19.506  0.00  0.00    +0.000 C 
ATOM      7  C   UNL     1       3.692   5.778  18.252  0.00  0.00    +0.000 C 
ENDROOT
BRANCH   1   9
ATOM      8  C   UNL     1       5.181   6.186  15.896  0.00  0.00    +0.000 C 
ATOM      9  C   UNL     1       5.089   4.914  16.322  0.00  0.00    +0.000 C 
ATOM     10  C   UNL     1       5.868   3.821  15.635  0.00  0.00    +0.000 C 
ENDBRANCH   1   9
TORSDOF 1
ENDMDL
MODEL 8
REMARK VINA RESULT:      -5.1      0.896      4.260
REMARK  Name = 
REMARK  3 active torsions:
REMARK  status: ('A' for Active; 'I' for Inactive)
REMARK    1  A    between atoms: C_2  and  C_3
REMARK    2  A    between atoms: C_2  and  C_4
REMARK    3  A    between atoms: C_7  and  C_8
REMARK                            x       y       z     vdW  Elec       q    Type
REMARK                         _______ _______ _______ _____ _____    ______ ____
ROOT
ATOM      1  C   UNL     1       4.156   4.544  17.466  0.00  0.00    +0.000 C 
ATOM      2  C   UNL     1       3.013   3.573  17.104  0.00  0.00    +0.000 C 
ATOM      3  C   UNL     1       2.002   3.417  18.209  0.00  0.00    +0.000 C 
ATOM      4  C   UNL     1       1.915   4.250  19.262  0.00  0.00    +0.000 C 
ATOM      5  C   UNL     1       0.916   4.043  20.365  0.00  0.00    +0.000 C 
ATOM      6  C   UNL     1       2.815   5.451  19.411  0.00  0.00    +0.000 C 
ATOM      7  C   UNL     1       3.587   5.802  18.136  0.00  0.00    +0.000 C 
ENDROOT
BRANCH   1   9
ATOM      8  C   UNL     1       5.741   3.930  15.634  0.00  0.00    +0.000 C 
ATOM      9  C   UNL     1       5.055   4.888  16.284  0.00  0.00    +0.000 C 
ATOM     10  C   UNL     1       5.184   6.332  15.871  0.00  0.00    +0.000 C 
ENDBRANCH   1   9
TORSDOF 1
ENDMDL
MODEL 9
REMARK VINA RESULT:      -5.1      1.048      4.484
REMARK  Name = 
REMARK  3 active torsions:
REMARK  status: ('A' for Active; 'I' for Inactive)
REMARK    1  A    between atoms: C_2  and  C_3
REMARK    2  A    between atoms: C_2  and  C_4
REMARK    3  A    between atoms: C_7  and  C_8
REMARK                            x       y       z     vdW  Elec       q    Type
REMARK                         _______ _______ _______ _____ _____    ______ ____
ROOT
ATOM      1  C   UNL     1       3.747   4.900  17.397  0.00  0.00    +0.000 C 
ATOM      2  C   UNL     1       4.196   5.082  18.861  0.00  0.00    +0.000 C 
ATOM      3  C   UNL     1       3.124   4.719  19.854  0.00  0.00    +0.000 C 
ATOM      4  C   UNL     1       2.019   4.020  19.536  0.00  0.00    +0.000 C 
ATOM      5  C   UNL     1       0.952   3.707  20.546  0.00  0.00    +0.000 C 
ATOM      6  C   UNL     1       1.772   3.503  18.140  0.00  0.00    +0.000 C 
ATOM      7  C   UNL     1       3.005   3.566  17.234  0.00  0.00    +0.000 C 
ENDROOT
BRANCH   1   9
ATOM      8  C   UNL     1       5.589   3.968  15.988  0.00  0.00    +0.000 C 
ATOM      9  C   UNL     1       4.886   5.041  16.392  0.00  0.00    +0.000 C 
ATOM     10  C   UNL     1       5.229   6.416  15.880  0.00  0.00    +0.000 C 
ENDBRANCH   1   9
TORSDOF 1
ENDMDL
