MODEL 1
REMARK VINA RESULT:      -8.9      0.000      0.000
REMARK  Name = 
REMARK  8 active torsions:
REMARK  status: ('A' for Active; 'I' for Inactive)
REMARK    1  A    between atoms: C_1  and  O_2
REMARK    2  A    between atoms: O_2  and  C_3
REMARK    3  A    between atoms: C_3  and  C_4
REMARK    4  A    between atoms: C_4  and  N_5
REMARK    5  A    between atoms: C_6  and  C_8
REMARK    6  A    between atoms: C_8  and  C_9
REMARK    7  A    between atoms: C_11  and  C_12
REMARK    8  A    between atoms: C_13  and  C_14
REMARK                            x       y       z     vdW  Elec       q    Type
REMARK                         _______ _______ _______ _____ _____    ______ ____
ROOT
ATOM      1  C   UNL     1       3.479   5.705  18.110  0.00  0.00    +0.000 A 
ATOM      2  C   UNL     1       2.367   6.386  18.611  0.00  0.00    +0.000 A 
ATOM      3  N   UNL     1       1.496   5.405  19.035  0.00  0.00    +0.000 N 
ATOM      4  C   UNL     1       2.013   4.149  18.838  0.00  0.00    +0.000 A 
ATOM      5  C   UNL     1       1.446   2.900  19.111  0.00  0.00    +0.000 A 
ATOM      6  F   UNL     1       0.214   2.809  19.627  0.00  0.00    +0.000 F 
ATOM      7  C   UNL     1       2.171   1.750  18.837  0.00  0.00    +0.000 A 
ATOM      8  C   UNL     1       3.446   1.868  18.313  0.00  0.00    +0.000 A 
ATOM      9  F   UNL     1       4.150   0.754  18.058  0.00  0.00    +0.000 F 
ATOM     10  C   UNL     1       4.019   3.112  18.039  0.00  0.00    +0.000 A 
ATOM     11  C   UNL     1       3.287   4.296  18.288  0.00  0.00    +0.000 A 
ATOM     12  H   UNL     1       0.597   5.574  19.464  0.00  0.00    +0.000 HD
ENDROOT
BRANCH   2  13
ATOM     13  C   UNL     1       2.053   7.814  18.782  0.00  0.00    +0.000 A 
ATOM     14  C   UNL     1       2.226   8.731  17.733  0.00  0.00    +0.000 A 
ATOM     15  C   UNL     1       1.869  10.075  17.888  0.00  0.00    +0.000 A 
ATOM     16  C   UNL     1       1.352  10.519  19.098  0.00  0.00    +0.000 A 
ATOM     17  F   UNL     1       1.004  11.804  19.244  0.00  0.00    +0.000 F 
ATOM     18  C   UNL     1       1.181   9.644  20.155  0.00  0.00    +0.000 A 
ATOM     19  C   UNL     1       1.521   8.299  19.988  0.00  0.00    +0.000 A 
ENDBRANCH   2  13
BRANCH   1  22
ATOM     20  C   UNL     1       5.997   5.067  16.406  0.00  0.00    +0.000 C 
ATOM     21  C   UNL     1       6.041   5.747  17.780  0.00  0.00    +0.000 C 
ATOM     22  C   UNL     1       4.672   6.416  17.454  0.00  0.00    +0.000 C 
ATOM     23  C   UNL     1       5.008   6.181  15.966  0.00  0.00    +0.000 C 
BRANCH  20  24
ATOM     24  C   UNL     1       7.334   4.976  15.690  0.00  0.00    +0.000 C 
BRANCH  24  26
ATOM     25  N   UNL     1       6.463   3.629  13.889  0.00  0.00    +0.000 N 
ATOM     26  C   UNL     1       7.177   4.762  14.205  0.00  0.00    +0.000 C 
ATOM     27  O   UNL     1       7.647   5.521  13.363  0.00  0.00    +0.000 OA
ATOM     28  H   UNL     1       5.846   3.242  14.593  0.00  0.00    +0.000 HD
BRANCH  25  29
ATOM     29  C   UNL     1       6.109   3.382  12.505  0.00  0.00    +0.000 C 
BRANCH  29  30
ATOM     30  C   UNL     1       4.615   3.556  12.261  0.00  0.00    +0.000 C 
BRANCH  30  32
ATOM     31  C   UNL     1       3.304   3.581  10.302  0.00  0.00    +0.000 C 
ATOM     32  O   UNL     1       4.263   2.858  11.060  0.00  0.00    +0.000 OA
ENDBRANCH  30  32
ENDBRANCH  29  30
ENDBRANCH  25  29
ENDBRANCH  24  26
ENDBRANCH  20  24
ENDBRANCH   1  22
TORSDOF 7
ENDMDL
MODEL 2
REMARK VINA RESULT:      -8.2      1.456      1.717
REMARK  Name = 
REMARK  8 active torsions:
REMARK  status: ('A' for Active; 'I' for Inactive)
REMARK    1  A    between atoms: C_1  and  O_2
REMARK    2  A    between atoms: O_2  and  C_3
REMARK    3  A    between atoms: C_3  and  C_4
REMARK    4  A    between atoms: C_4  and  N_5
REMARK    5  A    between atoms: C_6  and  C_8
REMARK    6  A    between atoms: C_8  and  C_9
REMARK    7  A    between atoms: C_11  and  C_12
REMARK    8  A    between atoms: C_13  and  C_14
REMARK                            x       y       z     vdW  Elec       q    Type
REMARK                         _______ _______ _______ _____ _____    ______ ____
ROOT
ATOM      1  C   UNL     1       3.484   6.029  19.195  0.00  0.00    +0.000 A 
ATOM      2  C   UNL     1       2.332   6.617  19.721  0.00  0.00    +0.000 A 
ATOM      3  N   UNL     1       1.717   5.626  20.456  0.00  0.00    +0.000 N 
ATOM      4  C   UNL     1       2.433   4.456  20.427  0.00  0.00    +0.000 A 
ATOM      5  C   UNL     1       2.146   3.221  21.019  0.00  0.00    +0.000 A 
ATOM      6  F   UNL     1       1.023   3.050  21.728  0.00  0.00    +0.000 F 
ATOM      7  C   UNL     1       3.036   2.169  20.863  0.00  0.00    +0.000 A 
ATOM      8  C   UNL     1       4.195   2.372  20.136  0.00  0.00    +0.000 A 
ATOM      9  F   UNL     1       5.060   1.355  19.994  0.00  0.00    +0.000 F 
ATOM     10  C   UNL     1       4.488   3.601  19.542  0.00  0.00    +0.000 A 
ATOM     11  C   UNL     1       3.582   4.680  19.669  0.00  0.00    +0.000 A 
ATOM     12  H   UNL     1       0.860   5.739  20.978  0.00  0.00    +0.000 HD
ENDROOT
BRANCH   2  13
ATOM     13  C   UNL     1       1.778   7.980  19.661  0.00  0.00    +0.000 A 
ATOM     14  C   UNL     1       1.273   8.614  20.807  0.00  0.00    +0.000 A 
ATOM     15  C   UNL     1       0.802   9.931  20.750  0.00  0.00    +0.000 A 
ATOM     16  C   UNL     1       0.817  10.620  19.544  0.00  0.00    +0.000 A 
ATOM     17  F   UNL     1       0.373  11.882  19.492  0.00  0.00    +0.000 F 
ATOM     18  C   UNL     1       1.298  10.020  18.395  0.00  0.00    +0.000 A 
ATOM     19  C   UNL     1       1.784   8.711  18.462  0.00  0.00    +0.000 A 
ENDBRANCH   2  13
BRANCH   1  22
ATOM     20  C   UNL     1       4.883   5.631  16.450  0.00  0.00    +0.000 C 
ATOM     21  C   UNL     1       5.630   5.879  17.765  0.00  0.00    +0.000 C 
ATOM     22  C   UNL     1       4.437   6.761  18.238  0.00  0.00    +0.000 C 
ATOM     23  C   UNL     1       4.080   6.927  16.746  0.00  0.00    +0.000 C 
BRANCH  20  24
ATOM     24  C   UNL     1       5.757   5.601  15.207  0.00  0.00    +0.000 C 
BRANCH  24  26
ATOM     25  N   UNL     1       5.884   4.138  13.295  0.00  0.00    +0.000 N 
ATOM     26  C   UNL     1       5.943   4.205  14.668  0.00  0.00    +0.000 C 
ATOM     27  O   UNL     1       6.120   3.226  15.386  0.00  0.00    +0.000 OA
ATOM     28  H   UNL     1       6.060   4.985  12.768  0.00  0.00    +0.000 HD
BRANCH  25  29
ATOM     29  C   UNL     1       6.195   2.884  12.636  0.00  0.00    +0.000 C 
BRANCH  29  30
ATOM     30  C   UNL     1       5.252   2.604  11.473  0.00  0.00    +0.000 C 
BRANCH  30  32
ATOM     31  C   UNL     1       3.331   3.456  10.405  0.00  0.00    +0.000 C 
ATOM     32  O   UNL     1       4.108   3.458  11.595  0.00  0.00    +0.000 OA
ENDBRANCH  30  32
ENDBRANCH  29  30
ENDBRANCH  25  29
ENDBRANCH  24  26
ENDBRANCH  20  24
ENDBRANCH   1  22
TORSDOF 7
ENDMDL
MODEL 3
REMARK VINA RESULT:      -8.2      4.212      8.101
REMARK  Name = 
REMARK  8 active torsions:
REMARK  status: ('A' for Active; 'I' for Inactive)
REMARK    1  A    between atoms: C_1  and  O_2
REMARK    2  A    between atoms: O_2  and  C_3
REMARK    3  A    between atoms: C_3  and  C_4
REMARK    4  A    between atoms: C_4  and  N_5
REMARK    5  A    between atoms: C_6  and  C_8
REMARK    6  A    between atoms: C_8  and  C_9
REMARK    7  A    between atoms: C_11  and  C_12
REMARK    8  A    between atoms: C_13  and  C_14
REMARK                            x       y       z     vdW  Elec       q    Type
REMARK                         _______ _______ _______ _____ _____    ______ ____
ROOT
ATOM      1  C   UNL     1       3.540   4.595  18.211  0.00  0.00    +0.000 A 
ATOM      2  C   UNL     1       4.763   4.108  17.744  0.00  0.00    +0.000 A 
ATOM      3  N   UNL     1       5.132   3.125  18.637  0.00  0.00    +0.000 N 
ATOM      4  C   UNL     1       4.196   2.963  19.626  0.00  0.00    +0.000 A 
ATOM      5  C   UNL     1       4.200   2.093  20.723  0.00  0.00    +0.000 A 
ATOM      6  F   UNL     1       5.233   1.267  20.933  0.00  0.00    +0.000 F 
ATOM      7  C   UNL     1       3.123   2.095  21.596  0.00  0.00    +0.000 A 
ATOM      8  C   UNL     1       2.062   2.950  21.353  0.00  0.00    +0.000 A 
ATOM      9  F   UNL     1       1.016   2.944  22.194  0.00  0.00    +0.000 F 
ATOM     10  C   UNL     1       2.051   3.820  20.261  0.00  0.00    +0.000 A 
ATOM     11  C   UNL     1       3.150   3.850  19.372  0.00  0.00    +0.000 A 
ATOM     12  H   UNL     1       5.971   2.566  18.569  0.00  0.00    +0.000 HD
ENDROOT
BRANCH   2  13
ATOM     13  C   UNL     1       5.584   4.414  16.560  0.00  0.00    +0.000 A 
ATOM     14  C   UNL     1       6.796   5.113  16.672  0.00  0.00    +0.000 A 
ATOM     15  C   UNL     1       7.597   5.347  15.549  0.00  0.00    +0.000 A 
ATOM     16  C   UNL     1       7.186   4.899  14.301  0.00  0.00    +0.000 A 
ATOM     17  F   UNL     1       7.956   5.117  13.227  0.00  0.00    +0.000 F 
ATOM     18  C   UNL     1       5.992   4.218  14.154  0.00  0.00    +0.000 A 
ATOM     19  C   UNL     1       5.206   3.970  15.283  0.00  0.00    +0.000 A 
ENDBRANCH   2  13
BRANCH   1  22
ATOM     20  C   UNL     1       2.444   7.417  18.907  0.00  0.00    +0.000 C 
ATOM     21  C   UNL     1       1.578   6.266  18.382  0.00  0.00    +0.000 C 
ATOM     22  C   UNL     1       2.800   5.768  17.553  0.00  0.00    +0.000 C 
ATOM     23  C   UNL     1       3.349   7.207  17.662  0.00  0.00    +0.000 C 
BRANCH  20  24
ATOM     24  C   UNL     1       1.727   8.749  19.051  0.00  0.00    +0.000 C 
BRANCH  24  26
ATOM     25  N   UNL     1       0.223   9.959  20.497  0.00  0.00    +0.000 N 
ATOM     26  C   UNL     1       1.153   8.946  20.432  0.00  0.00    +0.000 C 
ATOM     27  O   UNL     1       1.489   8.274  21.401  0.00  0.00    +0.000 OA
ATOM     28  H   UNL     1      -0.234  10.242  19.638  0.00  0.00    +0.000 HD
BRANCH  25  29
ATOM     29  C   UNL     1      -0.517  10.158  21.727  0.00  0.00    +0.000 C 
BRANCH  29  30
ATOM     30  C   UNL     1      -0.577  11.628  22.122  0.00  0.00    +0.000 C 
BRANCH  30  32
ATOM     31  C   UNL     1      -2.524  12.257  23.293  0.00  0.00    +0.000 C 
ATOM     32  O   UNL     1      -1.208  11.732  23.404  0.00  0.00    +0.000 OA
ENDBRANCH  30  32
ENDBRANCH  29  30
ENDBRANCH  25  29
ENDBRANCH  24  26
ENDBRANCH  20  24
ENDBRANCH   1  22
TORSDOF 7
ENDMDL
MODEL 4
REMARK VINA RESULT:      -8.1      3.236      4.861
REMARK  Name = 
REMARK  8 active torsions:
REMARK  status: ('A' for Active; 'I' for Inactive)
REMARK    1  A    between atoms: C_1  and  O_2
REMARK    2  A    between atoms: O_2  and  C_3
REMARK    3  A    between atoms: C_3  and  C_4
REMARK    4  A    between atoms: C_4  and  N_5
REMARK    5  A    between atoms: C_6  and  C_8
REMARK    6  A    between atoms: C_8  and  C_9
REMARK    7  A    between atoms: C_11  and  C_12
REMARK    8  A    between atoms: C_13  and  C_14
REMARK                            x       y       z     vdW  Elec       q    Type
REMARK                         _______ _______ _______ _____ _____    ______ ____
ROOT
ATOM      1  C   UNL     1       2.972   5.729  18.273  0.00  0.00    +0.000 A 
ATOM      2  C   UNL     1       2.093   6.369  19.149  0.00  0.00    +0.000 A 
ATOM      3  N   UNL     1       1.539   5.364  19.913  0.00  0.00    +0.000 N 
ATOM      4  C   UNL     1       2.039   4.133  19.569  0.00  0.00    +0.000 A 
ATOM      5  C   UNL     1       1.727   2.870  20.083  0.00  0.00    +0.000 A 
ATOM      6  F   UNL     1       0.806   2.734  21.046  0.00  0.00    +0.000 F 
ATOM      7  C   UNL     1       2.378   1.752  19.583  0.00  0.00    +0.000 A 
ATOM      8  C   UNL     1       3.334   1.917  18.596  0.00  0.00    +0.000 A 
ATOM      9  F   UNL     1       3.970   0.836  18.120  0.00  0.00    +0.000 F 
ATOM     10  C   UNL     1       3.650   3.175  18.079  0.00  0.00    +0.000 A 
ATOM     11  C   UNL     1       2.980   4.324  18.558  0.00  0.00    +0.000 A 
ATOM     12  H   UNL     1       0.869   5.503  20.656  0.00  0.00    +0.000 HD
ENDROOT
BRANCH   2  13
ATOM     13  C   UNL     1       1.755   7.783  19.384  0.00  0.00    +0.000 A 
ATOM     14  C   UNL     1       1.658   8.697  18.324  0.00  0.00    +0.000 A 
ATOM     15  C   UNL     1       1.280  10.025  18.552  0.00  0.00    +0.000 A 
ATOM     16  C   UNL     1       1.011  10.455  19.844  0.00  0.00    +0.000 A 
ATOM     17  F   UNL     1       0.642  11.724  20.062  0.00  0.00    +0.000 F 
ATOM     18  C   UNL     1       1.109   9.583  20.913  0.00  0.00    +0.000 A 
ATOM     19  C   UNL     1       1.468   8.253  20.676  0.00  0.00    +0.000 A 
ENDBRANCH   2  13
BRANCH   1  22
ATOM     20  C   UNL     1       5.895   6.389  17.455  0.00  0.00    +0.000 C 
ATOM     21  C   UNL     1       4.825   7.449  17.744  0.00  0.00    +0.000 C 
ATOM     22  C   UNL     1       3.752   6.471  17.178  0.00  0.00    +0.000 C 
ATOM     23  C   UNL     1       4.907   5.777  16.425  0.00  0.00    +0.000 C 
BRANCH  20  24
ATOM     24  C   UNL     1       7.217   6.933  16.939  0.00  0.00    +0.000 C 
BRANCH  24  26
ATOM     25  N   UNL     1       8.207   8.959  17.795  0.00  0.00    +0.000 N 
ATOM     26  C   UNL     1       8.019   7.614  18.020  0.00  0.00    +0.000 C 
ATOM     27  O   UNL     1       8.466   7.024  18.998  0.00  0.00    +0.000 OA
ATOM     28  H   UNL     1       7.564   9.433  17.171  0.00  0.00    +0.000 HD
BRANCH  25  29
ATOM     29  C   UNL     1       8.831   9.765  18.825  0.00  0.00    +0.000 C 
BRANCH  29  30
ATOM     30  C   UNL     1       9.369  11.078  18.271  0.00  0.00    +0.000 C 
BRANCH  30  32
ATOM     31  C   UNL     1      11.622  11.770  18.212  0.00  0.00    +0.000 C 
ATOM     32  O   UNL     1      10.511  11.469  19.044  0.00  0.00    +0.000 OA
ENDBRANCH  30  32
ENDBRANCH  29  30
ENDBRANCH  25  29
ENDBRANCH  24  26
ENDBRANCH  20  24
ENDBRANCH   1  22
TORSDOF 7
ENDMDL
MODEL 5
REMARK VINA RESULT:      -7.9      1.436      1.783
REMARK  Name = 
REMARK  8 active torsions:
REMARK  status: ('A' for Active; 'I' for Inactive)
REMARK    1  A    between atoms: C_1  and  O_2
REMARK    2  A    between atoms: O_2  and  C_3
REMARK    3  A    between atoms: C_3  and  C_4
REMARK    4  A    between atoms: C_4  and  N_5
REMARK    5  A    between atoms: C_6  and  C_8
REMARK    6  A    between atoms: C_8  and  C_9
REMARK    7  A    between atoms: C_11  and  C_12
REMARK    8  A    between atoms: C_13  and  C_14
REMARK                            x       y       z     vdW  Elec       q    Type
REMARK                         _______ _______ _______ _____ _____    ______ ____
ROOT
ATOM      1  C   UNL     1       3.719   5.762  18.930  0.00  0.00    +0.000 A 
ATOM      2  C   UNL     1       2.593   6.450  19.388  0.00  0.00    +0.000 A 
ATOM      3  N   UNL     1       1.947   5.575  20.234  0.00  0.00    +0.000 N 
ATOM      4  C   UNL     1       2.619   4.383  20.340  0.00  0.00    +0.000 A 
ATOM      5  C   UNL     1       2.292   3.238  21.074  0.00  0.00    +0.000 A 
ATOM      6  F   UNL     1       1.168   3.193  21.801  0.00  0.00    +0.000 F 
ATOM      7  C   UNL     1       3.141   2.142  21.039  0.00  0.00    +0.000 A 
ATOM      8  C   UNL     1       4.302   2.215  20.289  0.00  0.00    +0.000 A 
ATOM      9  F   UNL     1       5.127   1.157  20.264  0.00  0.00    +0.000 F 
ATOM     10  C   UNL     1       4.635   3.355  19.555  0.00  0.00    +0.000 A 
ATOM     11  C   UNL     1       3.771   4.474  19.558  0.00  0.00    +0.000 A 
ATOM     12  H   UNL     1       1.099   5.780  20.742  0.00  0.00    +0.000 HD
ENDROOT
BRANCH   2  13
ATOM     13  C   UNL     1       2.090   7.817  19.170  0.00  0.00    +0.000 A 
ATOM     14  C   UNL     1       1.420   8.518  20.185  0.00  0.00    +0.000 A 
ATOM     15  C   UNL     1       0.997   9.837  19.987  0.00  0.00    +0.000 A 
ATOM     16  C   UNL     1       1.223  10.461  18.768  0.00  0.00    +0.000 A 
ATOM     17  F   UNL     1       0.825  11.726  18.581  0.00  0.00    +0.000 F 
ATOM     18  C   UNL     1       1.870   9.794  17.743  0.00  0.00    +0.000 A 
ATOM     19  C   UNL     1       2.307   8.483  17.954  0.00  0.00    +0.000 A 
ENDBRANCH   2  13
BRANCH   1  22
ATOM     20  C   UNL     1       6.078   4.877  17.112  0.00  0.00    +0.000 C 
ATOM     21  C   UNL     1       6.179   5.980  18.174  0.00  0.00    +0.000 C 
ATOM     22  C   UNL     1       4.690   6.342  17.891  0.00  0.00    +0.000 C 
ATOM     23  C   UNL     1       4.875   5.660  16.519  0.00  0.00    +0.000 C 
BRANCH  20  24
ATOM     24  C   UNL     1       7.314   4.703  16.245  0.00  0.00    +0.000 C 
BRANCH  24  26
ATOM     25  N   UNL     1       5.999   3.979  14.358  0.00  0.00    +0.000 N 
ATOM     26  C   UNL     1       7.005   4.821  14.774  0.00  0.00    +0.000 C 
ATOM     27  O   UNL     1       7.598   5.589  14.023  0.00  0.00    +0.000 OA
ATOM     28  H   UNL     1       5.353   3.628  15.054  0.00  0.00    +0.000 HD
BRANCH  25  29
ATOM     29  C   UNL     1       5.499   4.095  13.002  0.00  0.00    +0.000 C 
BRANCH  29  30
ATOM     30  C   UNL     1       5.686   2.805  12.215  0.00  0.00    +0.000 C 
BRANCH  30  32
ATOM     31  C   UNL     1       7.274   1.583  10.972  0.00  0.00    +0.000 C 
ATOM     32  O   UNL     1       6.988   2.816  11.618  0.00  0.00    +0.000 OA
ENDBRANCH  30  32
ENDBRANCH  29  30
ENDBRANCH  25  29
ENDBRANCH  24  26
ENDBRANCH  20  24
ENDBRANCH   1  22
TORSDOF 7
ENDMDL
MODEL 6
REMARK VINA RESULT:      -7.9      5.559      8.888
REMARK  Name = 
REMARK  8 active torsions:
REMARK  status: ('A' for Active; 'I' for Inactive)
REMARK    1  A    between atoms: C_1  and  O_2
REMARK    2  A    between atoms: O_2  and  C_3
REMARK    3  A    between atoms: C_3  and  C_4
REMARK    4  A    between atoms: C_4  and  N_5
REMARK    5  A    between atoms: C_6  and  C_8
REMARK    6  A    between atoms: C_8  and  C_9
REMARK    7  A    between atoms: C_11  and  C_12
REMARK    8  A    between atoms: C_13  and  C_14
REMARK                            x       y       z     vdW  Elec       q    Type
REMARK                         _______ _______ _______ _____ _____    ______ ____
ROOT
ATOM      1  C   UNL     1      -1.726  11.725  19.631  0.00  0.00    +0.000 A 
ATOM      2  C   UNL     1      -2.725  12.452  20.283  0.00  0.00    +0.000 A 
ATOM      3  N   UNL     1      -3.816  12.413  19.441  0.00  0.00    +0.000 N 
ATOM      4  C   UNL     1      -3.554  11.687  18.307  0.00  0.00    +0.000 A 
ATOM      5  C   UNL     1      -4.379  11.426  17.207  0.00  0.00    +0.000 A 
ATOM      6  F   UNL     1      -5.620  11.926  17.151  0.00  0.00    +0.000 F 
ATOM      7  C   UNL     1      -3.898  10.644  16.167  0.00  0.00    +0.000 A 
ATOM      8  C   UNL     1      -2.616  10.129  16.251  0.00  0.00    +0.000 A 
ATOM      9  F   UNL     1      -2.156   9.365  15.248  0.00  0.00    +0.000 F 
ATOM     10  C   UNL     1      -1.788  10.386  17.346  0.00  0.00    +0.000 A 
ATOM     11  C   UNL     1      -2.251  11.200  18.405  0.00  0.00    +0.000 A 
ATOM     12  H   UNL     1      -4.712  12.838  19.634  0.00  0.00    +0.000 HD
ENDROOT
BRANCH   2  13
ATOM     13  C   UNL     1      -2.792  13.121  21.593  0.00  0.00    +0.000 A 
ATOM     14  C   UNL     1      -3.441  12.524  22.685  0.00  0.00    +0.000 A 
ATOM     15  C   UNL     1      -3.449  13.142  23.941  0.00  0.00    +0.000 A 
ATOM     16  C   UNL     1      -2.825  14.370  24.112  0.00  0.00    +0.000 A 
ATOM     17  F   UNL     1      -2.827  14.958  25.315  0.00  0.00    +0.000 F 
ATOM     18  C   UNL     1      -2.187  14.990  23.054  0.00  0.00    +0.000 A 
ATOM     19  C   UNL     1      -2.166  14.359  21.807  0.00  0.00    +0.000 A 
ENDBRANCH   2  13
BRANCH   1  22
ATOM     20  C   UNL     1       0.245   9.527  20.598  0.00  0.00    +0.000 C 
ATOM     21  C   UNL     1      -0.227  10.698  21.467  0.00  0.00    +0.000 C 
ATOM     22  C   UNL     1      -0.301  11.578  20.183  0.00  0.00    +0.000 C 
ATOM     23  C   UNL     1       0.692  10.581  19.548  0.00  0.00    +0.000 C 
BRANCH  20  24
ATOM     24  C   UNL     1       1.314   8.648  21.226  0.00  0.00    +0.000 C 
BRANCH  24  26
ATOM     25  N   UNL     1       1.805   6.309  20.908  0.00  0.00    +0.000 N 
ATOM     26  C   UNL     1       1.766   7.544  20.303  0.00  0.00    +0.000 C 
ATOM     27  O   UNL     1       2.074   7.732  19.131  0.00  0.00    +0.000 OA
ATOM     28  H   UNL     1       1.247   6.168  21.743  0.00  0.00    +0.000 HD
BRANCH  25  29
ATOM     29  C   UNL     1       2.077   5.136  20.100  0.00  0.00    +0.000 C 
BRANCH  29  30
ATOM     30  C   UNL     1       0.992   4.078  20.252  0.00  0.00    +0.000 C 
BRANCH  30  32
ATOM     31  C   UNL     1       1.721   2.072  19.250  0.00  0.00    +0.000 C 
ATOM     32  O   UNL     1       1.619   2.806  20.462  0.00  0.00    +0.000 OA
ENDBRANCH  30  32
ENDBRANCH  29  30
ENDBRANCH  25  29
ENDBRANCH  24  26
ENDBRANCH  20  24
ENDBRANCH   1  22
TORSDOF 7
ENDMDL
MODEL 7
REMARK VINA RESULT:      -7.9      1.239      5.293
REMARK  Name = 
REMARK  8 active torsions:
REMARK  status: ('A' for Active; 'I' for Inactive)
REMARK    1  A    between atoms: C_1  and  O_2
REMARK    2  A    between atoms: O_2  and  C_3
REMARK    3  A    between atoms: C_3  and  C_4
REMARK    4  A    between atoms: C_4  and  N_5
REMARK    5  A    between atoms: C_6  and  C_8
REMARK    6  A    between atoms: C_8  and  C_9
REMARK    7  A    between atoms: C_11  and  C_12
REMARK    8  A    between atoms: C_13  and  C_14
REMARK                            x       y       z     vdW  Elec       q    Type
REMARK                         _______ _______ _______ _____ _____    ______ ____
ROOT
ATOM      1  C   UNL     1       3.199   6.967  17.909  0.00  0.00    +0.000 A 
ATOM      2  C   UNL     1       2.813   5.925  18.754  0.00  0.00    +0.000 A 
ATOM      3  N   UNL     1       1.986   6.500  19.694  0.00  0.00    +0.000 N 
ATOM      4  C   UNL     1       1.825   7.845  19.471  0.00  0.00    +0.000 A 
ATOM      5  C   UNL     1       1.090   8.787  20.199  0.00  0.00    +0.000 A 
ATOM      6  F   UNL     1       0.422   8.425  21.302  0.00  0.00    +0.000 F 
ATOM      7  C   UNL     1       1.061  10.105  19.770  0.00  0.00    +0.000 A 
ATOM      8  C   UNL     1       1.751  10.454  18.622  0.00  0.00    +0.000 A 
ATOM      9  F   UNL     1       1.714  11.729  18.203  0.00  0.00    +0.000 F 
ATOM     10  C   UNL     1       2.486   9.519  17.890  0.00  0.00    +0.000 A 
ATOM     11  C   UNL     1       2.547   8.175  18.324  0.00  0.00    +0.000 A 
ATOM     12  H   UNL     1       1.527   6.004  20.444  0.00  0.00    +0.000 HD
ENDROOT
BRANCH   2  13
ATOM     13  C   UNL     1       3.080   4.476  18.755  0.00  0.00    +0.000 A 
ATOM     14  C   UNL     1       2.425   3.612  17.864  0.00  0.00    +0.000 A 
ATOM     15  C   UNL     1       2.729   2.246  17.834  0.00  0.00    +0.000 A 
ATOM     16  C   UNL     1       3.677   1.729  18.706  0.00  0.00    +0.000 A 
ATOM     17  F   UNL     1       3.973   0.423  18.672  0.00  0.00    +0.000 F 
ATOM     18  C   UNL     1       4.333   2.551  19.603  0.00  0.00    +0.000 A 
ATOM     19  C   UNL     1       4.039   3.917  19.616  0.00  0.00    +0.000 A 
ENDBRANCH   2  13
BRANCH   1  22
ATOM     20  C   UNL     1       5.742   5.336  17.185  0.00  0.00    +0.000 C 
ATOM     21  C   UNL     1       5.684   6.869  17.209  0.00  0.00    +0.000 C 
ATOM     22  C   UNL     1       4.196   6.785  16.755  0.00  0.00    +0.000 C 
ATOM     23  C   UNL     1       4.529   5.377  16.217  0.00  0.00    +0.000 C 
BRANCH  20  24
ATOM     24  C   UNL     1       7.046   4.750  16.671  0.00  0.00    +0.000 C 
BRANCH  24  26
ATOM     25  N   UNL     1       6.496   3.662  14.590  0.00  0.00    +0.000 N 
ATOM     26  C   UNL     1       7.121   4.746  15.165  0.00  0.00    +0.000 C 
ATOM     27  O   UNL     1       7.689   5.620  14.518  0.00  0.00    +0.000 OA
ATOM     28  H   UNL     1       5.793   3.174  15.132  0.00  0.00    +0.000 HD
BRANCH  25  29
ATOM     29  C   UNL     1       6.361   3.609  13.148  0.00  0.00    +0.000 C 
BRANCH  29  30
ATOM     30  C   UNL     1       4.903   3.653  12.712  0.00  0.00    +0.000 C 
BRANCH  30  32
ATOM     31  C   UNL     1       3.625   3.266  10.769  0.00  0.00    +0.000 C 
ATOM     32  O   UNL     1       4.754   2.859  11.529  0.00  0.00    +0.000 OA
ENDBRANCH  30  32
ENDBRANCH  29  30
ENDBRANCH  25  29
ENDBRANCH  24  26
ENDBRANCH  20  24
ENDBRANCH   1  22
TORSDOF 7
ENDMDL
MODEL 8
REMARK VINA RESULT:      -7.8      1.389      1.444
REMARK  Name = 
REMARK  8 active torsions:
REMARK  status: ('A' for Active; 'I' for Inactive)
REMARK    1  A    between atoms: C_1  and  O_2
REMARK    2  A    between atoms: O_2  and  C_3
REMARK    3  A    between atoms: C_3  and  C_4
REMARK    4  A    between atoms: C_4  and  N_5
REMARK    5  A    between atoms: C_6  and  C_8
REMARK    6  A    between atoms: C_8  and  C_9
REMARK    7  A    between atoms: C_11  and  C_12
REMARK    8  A    between atoms: C_13  and  C_14
REMARK                            x       y       z     vdW  Elec       q    Type
REMARK                         _______ _______ _______ _____ _____    ______ ____
ROOT
ATOM      1  C   UNL     1       3.786   5.789  19.010  0.00  0.00    +0.000 A 
ATOM      2  C   UNL     1       2.619   6.442  19.411  0.00  0.00    +0.000 A 
ATOM      3  N   UNL     1       1.921   5.521  20.162  0.00  0.00    +0.000 N 
ATOM      4  C   UNL     1       2.600   4.332  20.263  0.00  0.00    +0.000 A 
ATOM      5  C   UNL     1       2.233   3.149  20.914  0.00  0.00    +0.000 A 
ATOM      6  F   UNL     1       1.057   3.057  21.549  0.00  0.00    +0.000 F 
ATOM      7  C   UNL     1       3.098   2.066  20.894  0.00  0.00    +0.000 A 
ATOM      8  C   UNL     1       4.312   2.187  20.241  0.00  0.00    +0.000 A 
ATOM      9  F   UNL     1       5.152   1.140  20.230  0.00  0.00    +0.000 F 
ATOM     10  C   UNL     1       4.685   3.365  19.590  0.00  0.00    +0.000 A 
ATOM     11  C   UNL     1       3.807   4.473  19.578  0.00  0.00    +0.000 A 
ATOM     12  H   UNL     1       1.033   5.693  20.612  0.00  0.00    +0.000 HD
ENDROOT
BRANCH   2  13
ATOM     13  C   UNL     1       2.114   7.812  19.220  0.00  0.00    +0.000 A 
ATOM     14  C   UNL     1       2.192   8.452  17.973  0.00  0.00    +0.000 A 
ATOM     15  C   UNL     1       1.657   9.732  17.788  0.00  0.00    +0.000 A 
ATOM     16  C   UNL     1       1.055  10.391  18.852  0.00  0.00    +0.000 A 
ATOM     17  F   UNL     1       0.536  11.613  18.673  0.00  0.00    +0.000 F 
ATOM     18  C   UNL     1       0.972   9.793  20.096  0.00  0.00    +0.000 A 
ATOM     19  C   UNL     1       1.491   8.507  20.269  0.00  0.00    +0.000 A 
ENDBRANCH   2  13
BRANCH   1  22
ATOM     20  C   UNL     1       5.675   5.032  16.663  0.00  0.00    +0.000 C 
ATOM     21  C   UNL     1       6.156   5.619  17.995  0.00  0.00    +0.000 C 
ATOM     22  C   UNL     1       4.827   6.428  18.079  0.00  0.00    +0.000 C 
ATOM     23  C   UNL     1       4.726   6.256  16.549  0.00  0.00    +0.000 C 
BRANCH  20  24
ATOM     24  C   UNL     1       6.754   4.864  15.607  0.00  0.00    +0.000 C 
BRANCH  24  26
ATOM     25  N   UNL     1       7.125   4.536  13.246  0.00  0.00    +0.000 N 
ATOM     26  C   UNL     1       6.184   4.526  14.251  0.00  0.00    +0.000 C 
ATOM     27  O   UNL     1       4.998   4.276  14.065  0.00  0.00    +0.000 OA
ATOM     28  H   UNL     1       8.099   4.428  13.503  0.00  0.00    +0.000 HD
BRANCH  25  29
ATOM     29  C   UNL     1       6.745   4.084  11.922  0.00  0.00    +0.000 C 
BRANCH  29  30
ATOM     30  C   UNL     1       6.887   2.575  11.774  0.00  0.00    +0.000 C 
BRANCH  30  32
ATOM     31  C   UNL     1       4.631   2.886  11.168  0.00  0.00    +0.000 C 
ATOM     32  O   UNL     1       5.579   1.992  11.735  0.00  0.00    +0.000 OA
ENDBRANCH  30  32
ENDBRANCH  29  30
ENDBRANCH  25  29
ENDBRANCH  24  26
ENDBRANCH  20  24
ENDBRANCH   1  22
TORSDOF 7
ENDMDL
MODEL 9
REMARK VINA RESULT:      -7.8      3.790      7.640
REMARK  Name = 
REMARK  8 active torsions:
REMARK  status: ('A' for Active; 'I' for Inactive)
REMARK    1  A    between atoms: C_1  and  O_2
REMARK    2  A    between atoms: O_2  and  C_3
REMARK    3  A    between atoms: C_3  and  C_4
REMARK    4  A    between atoms: C_4  and  N_5
REMARK    5  A    between atoms: C_6  and  C_8
REMARK    6  A    between atoms: C_8  and  C_9
REMARK    7  A    between atoms: C_11  and  C_12
REMARK    8  A    between atoms: C_13  and  C_14
REMARK                            x       y       z     vdW  Elec       q    Type
REMARK                         _______ _______ _______ _____ _____    ______ ____
ROOT
ATOM      1  C   UNL     1       4.175   5.036  17.767  0.00  0.00    +0.000 A 
ATOM      2  C   UNL     1       4.782   4.166  16.858  0.00  0.00    +0.000 A 
ATOM      3  N   UNL     1       4.353   2.905  17.214  0.00  0.00    +0.000 N 
ATOM      4  C   UNL     1       3.498   2.946  18.287  0.00  0.00    +0.000 A 
ATOM      5  C   UNL     1       2.864   1.897  18.961  0.00  0.00    +0.000 A 
ATOM      6  F   UNL     1       3.068   0.626  18.589  0.00  0.00    +0.000 F 
ATOM      7  C   UNL     1       2.022   2.182  20.025  0.00  0.00    +0.000 A 
ATOM      8  C   UNL     1       1.818   3.503  20.385  0.00  0.00    +0.000 A 
ATOM      9  F   UNL     1       0.995   3.778  21.408  0.00  0.00    +0.000 F 
ATOM     10  C   UNL     1       2.447   4.555  19.716  0.00  0.00    +0.000 A 
ATOM     11  C   UNL     1       3.329   4.283  18.645  0.00  0.00    +0.000 A 
ATOM     12  H   UNL     1       4.605   2.051  16.737  0.00  0.00    +0.000 HD
ENDROOT
BRANCH   2  13
ATOM     13  C   UNL     1       5.656   4.375  15.691  0.00  0.00    +0.000 A 
ATOM     14  C   UNL     1       5.328   3.852  14.431  0.00  0.00    +0.000 A 
ATOM     15  C   UNL     1       6.136   4.106  13.316  0.00  0.00    +0.000 A 
ATOM     16  C   UNL     1       7.287   4.869  13.455  0.00  0.00    +0.000 A 
ATOM     17  F   UNL     1       8.056   5.118  12.387  0.00  0.00    +0.000 F 
ATOM     18  C   UNL     1       7.644   5.389  14.685  0.00  0.00    +0.000 A 
ATOM     19  C   UNL     1       6.824   5.149  15.791  0.00  0.00    +0.000 A 
ENDBRANCH   2  13
BRANCH   1  22
ATOM     20  C   UNL     1       2.637   7.733  17.870  0.00  0.00    +0.000 C 
ATOM     21  C   UNL     1       3.596   7.335  16.742  0.00  0.00    +0.000 C 
ATOM     22  C   UNL     1       4.444   6.548  17.785  0.00  0.00    +0.000 C 
ATOM     23  C   UNL     1       3.800   7.449  18.860  0.00  0.00    +0.000 C 
BRANCH  20  24
ATOM     24  C   UNL     1       2.099   9.152  17.788  0.00  0.00    +0.000 C 
BRANCH  24  26
ATOM     25  N   UNL     1       1.246   9.023  20.040  0.00  0.00    +0.000 N 
ATOM     26  C   UNL     1       0.958   9.390  18.745  0.00  0.00    +0.000 C 
ATOM     27  O   UNL     1      -0.122   9.858  18.400  0.00  0.00    +0.000 OA
ATOM     28  H   UNL     1       2.220   8.957  20.312  0.00  0.00    +0.000 HD
BRANCH  25  29
ATOM     29  C   UNL     1       0.295   9.335  21.089  0.00  0.00    +0.000 C 
BRANCH  29  30
ATOM     30  C   UNL     1       0.937   9.287  22.470  0.00  0.00    +0.000 C 
BRANCH  30  32
ATOM     31  C   UNL     1      -0.747  10.915  22.739  0.00  0.00    +0.000 C 
ATOM     32  O   UNL     1       0.081   9.967  23.397  0.00  0.00    +0.000 OA
ENDBRANCH  30  32
ENDBRANCH  29  30
ENDBRANCH  25  29
ENDBRANCH  24  26
ENDBRANCH  20  24
ENDBRANCH   1  22
TORSDOF 7
ENDMDL
