MODEL 1
REMARK VINA RESULT:      -7.0      0.000      0.000
REMARK  Name = 
REMARK  6 active torsions:
REMARK  status: ('A' for Active; 'I' for Inactive)
REMARK    1  A    between atoms: C_1  and  O_2
REMARK    2  A    between atoms: O_2  and  C_3
REMARK    3  A    between atoms: C_6  and  S_7
REMARK    4  A    between atoms: S_7  and  C_8
REMARK    5  A    between atoms: C_11  and  O_12
REMARK    6  A    between atoms: O_12  and  C_13
REMARK                            x       y       z     vdW  Elec       q    Type
REMARK                         _______ _______ _______ _____ _____    ______ ____
ROOT
ATOM      1  C   UNL     1       3.354   5.261  18.137  0.00  0.00    +0.000 A 
ATOM      2  C   UNL     1       3.220   6.644  18.298  0.00  0.00    +0.000 A 
ATOM      3  C   UNL     1       2.359   7.153  19.265  0.00  0.00    +0.000 A 
ATOM      4  C   UNL     1       1.667   6.293  20.122  0.00  0.00    +0.000 A 
ATOM      5  C   UNL     1       1.801   4.884  19.995  0.00  0.00    +0.000 A 
ATOM      6  C   UNL     1       1.254   3.950  20.905  0.00  0.00    +0.000 A 
ATOM      7  C   UNL     1       1.297   2.573  20.683  0.00  0.00    +0.000 A 
ATOM      8  C   UNL     1       1.890   2.087  19.532  0.00  0.00    +0.000 A 
ATOM      9  C   UNL     1       2.530   2.972  18.671  0.00  0.00    +0.000 A 
ATOM     10  C   UNL     1       2.568   4.367  18.913  0.00  0.00    +0.000 A 
ENDROOT
BRANCH   4  11
ATOM     11  O   UNL     1       0.950   6.955  21.089  0.00  0.00    +0.000 OA
ATOM     12  C   UNL     1       1.337   8.298  21.371  0.00  0.00    +0.000 C 
ENDBRANCH   4  11
BRANCH   1  13
ATOM     13  S   UNL     1       4.626   4.704  16.986  0.00  0.00    +0.000 S 
BRANCH  13  17
ATOM     14  C   UNL     1       8.050   7.479  18.345  0.00  0.00    +0.000 A 
ATOM     15  C   UNL     1       7.233   7.841  17.274  0.00  0.00    +0.000 A 
ATOM     16  C   UNL     1       6.208   6.989  16.841  0.00  0.00    +0.000 A 
ATOM     17  C   UNL     1       6.002   5.751  17.456  0.00  0.00    +0.000 A 
ATOM     18  C   UNL     1       6.852   5.377  18.503  0.00  0.00    +0.000 A 
ATOM     19  C   UNL     1       7.869   6.235  18.944  0.00  0.00    +0.000 A 
BRANCH  14  21
ATOM     20  C   UNL     1       8.730   9.742  18.314  0.00  0.00    +0.000 C 
ATOM     21  O   UNL     1       9.005   8.398  18.694  0.00  0.00    +0.000 OA
ENDBRANCH  14  21
ENDBRANCH  13  17
ENDBRANCH   1  13
TORSDOF 4
ENDMDL
MODEL 2
REMARK VINA RESULT:      -6.9      3.183      4.114
REMARK  Name = 
REMARK  6 active torsions:
REMARK  status: ('A' for Active; 'I' for Inactive)
REMARK    1  A    between atoms: C_1  and  O_2
REMARK    2  A    between atoms: O_2  and  C_3
REMARK    3  A    between atoms: C_6  and  S_7
REMARK    4  A    between atoms: S_7  and  C_8
REMARK    5  A    between atoms: C_11  and  O_12
REMARK    6  A    between atoms: O_12  and  C_13
REMARK                            x       y       z     vdW  Elec       q    Type
REMARK                         _______ _______ _______ _____ _____    ______ ____
ROOT
ATOM      1  C   UNL     1       4.809   5.746  18.170  0.00  0.00    +0.000 A 
ATOM      2  C   UNL     1       4.668   6.944  17.462  0.00  0.00    +0.000 A 
ATOM      3  C   UNL     1       3.531   7.726  17.634  0.00  0.00    +0.000 A 
ATOM      4  C   UNL     1       2.549   7.355  18.557  0.00  0.00    +0.000 A 
ATOM      5  C   UNL     1       2.676   6.154  19.306  0.00  0.00    +0.000 A 
ATOM      6  C   UNL     1       1.808   5.778  20.356  0.00  0.00    +0.000 A 
ATOM      7  C   UNL     1       1.886   4.535  20.985  0.00  0.00    +0.000 A 
ATOM      8  C   UNL     1       2.842   3.624  20.576  0.00  0.00    +0.000 A 
ATOM      9  C   UNL     1       3.778   4.003  19.621  0.00  0.00    +0.000 A 
ATOM     10  C   UNL     1       3.769   5.287  19.021  0.00  0.00    +0.000 A 
ENDROOT
BRANCH   4  11
ATOM     11  O   UNL     1       1.549   8.289  18.688  0.00  0.00    +0.000 OA
ATOM     12  C   UNL     1       1.677   9.481  17.916  0.00  0.00    +0.000 C 
ENDBRANCH   4  11
BRANCH   1  13
ATOM     13  S   UNL     1       6.395   4.902  18.015  0.00  0.00    +0.000 S 
BRANCH  13  17
ATOM     14  C   UNL     1       6.313   4.027  13.487  0.00  0.00    +0.000 A 
ATOM     15  C   UNL     1       5.359   3.460  14.332  0.00  0.00    +0.000 A 
ATOM     16  C   UNL     1       5.395   3.703  15.712  0.00  0.00    +0.000 A 
ATOM     17  C   UNL     1       6.403   4.494  16.271  0.00  0.00    +0.000 A 
ATOM     18  C   UNL     1       7.381   5.026  15.423  0.00  0.00    +0.000 A 
ATOM     19  C   UNL     1       7.336   4.794  14.040  0.00  0.00    +0.000 A 
BRANCH  14  21
ATOM     20  C   UNL     1       4.903   3.204  11.779  0.00  0.00    +0.000 C 
ATOM     21  O   UNL     1       6.168   3.739  12.156  0.00  0.00    +0.000 OA
ENDBRANCH  14  21
ENDBRANCH  13  17
ENDBRANCH   1  13
TORSDOF 4
ENDMDL
MODEL 3
REMARK VINA RESULT:      -6.9      3.201      4.097
REMARK  Name = 
REMARK  6 active torsions:
REMARK  status: ('A' for Active; 'I' for Inactive)
REMARK    1  A    between atoms: C_1  and  O_2
REMARK    2  A    between atoms: O_2  and  C_3
REMARK    3  A    between atoms: C_6  and  S_7
REMARK    4  A    between atoms: S_7  and  C_8
REMARK    5  A    between atoms: C_11  and  O_12
REMARK    6  A    between atoms: O_12  and  C_13
REMARK                            x       y       z     vdW  Elec       q    Type
REMARK                         _______ _______ _______ _____ _____    ______ ____
ROOT
ATOM      1  C   UNL     1       4.715   5.777  18.188  0.00  0.00    +0.000 A 
ATOM      2  C   UNL     1       4.563   7.000  17.526  0.00  0.00    +0.000 A 
ATOM      3  C   UNL     1       3.439   7.785  17.761  0.00  0.00    +0.000 A 
ATOM      4  C   UNL     1       2.483   7.390  18.701  0.00  0.00    +0.000 A 
ATOM      5  C   UNL     1       2.622   6.163  19.403  0.00  0.00    +0.000 A 
ATOM      6  C   UNL     1       1.783   5.758  20.467  0.00  0.00    +0.000 A 
ATOM      7  C   UNL     1       1.870   4.494  21.051  0.00  0.00    +0.000 A 
ATOM      8  C   UNL     1       2.805   3.589  20.580  0.00  0.00    +0.000 A 
ATOM      9  C   UNL     1       3.714   3.994  19.609  0.00  0.00    +0.000 A 
ATOM     10  C   UNL     1       3.697   5.297  19.055  0.00  0.00    +0.000 A 
ENDROOT
BRANCH   4  11
ATOM     11  O   UNL     1       1.496   8.328  18.895  0.00  0.00    +0.000 OA
ATOM     12  C   UNL     1       1.448   9.412  17.972  0.00  0.00    +0.000 C 
ENDBRANCH   4  11
BRANCH   1  13
ATOM     13  S   UNL     1       6.288   4.926  17.954  0.00  0.00    +0.000 S 
BRANCH  13  17
ATOM     14  C   UNL     1       6.306   3.985  13.439  0.00  0.00    +0.000 A 
ATOM     15  C   UNL     1       7.359   4.694  14.015  0.00  0.00    +0.000 A 
ATOM     16  C   UNL     1       7.346   5.004  15.382  0.00  0.00    +0.000 A 
ATOM     17  C   UNL     1       6.265   4.634  16.187  0.00  0.00    +0.000 A 
ATOM     18  C   UNL     1       5.192   3.959  15.594  0.00  0.00    +0.000 A 
ATOM     19  C   UNL     1       5.213   3.637  14.229  0.00  0.00    +0.000 A 
BRANCH  14  21
ATOM     20  C   UNL     1       5.819   2.518  11.652  0.00  0.00    +0.000 C 
ATOM     21  O   UNL     1       6.436   3.720  12.101  0.00  0.00    +0.000 OA
ENDBRANCH  14  21
ENDBRANCH  13  17
ENDBRANCH   1  13
TORSDOF 4
ENDMDL
MODEL 4
REMARK VINA RESULT:      -6.7      1.326      2.905
REMARK  Name = 
REMARK  6 active torsions:
REMARK  status: ('A' for Active; 'I' for Inactive)
REMARK    1  A    between atoms: C_1  and  O_2
REMARK    2  A    between atoms: O_2  and  C_3
REMARK    3  A    between atoms: C_6  and  S_7
REMARK    4  A    between atoms: S_7  and  C_8
REMARK    5  A    between atoms: C_11  and  O_12
REMARK    6  A    between atoms: O_12  and  C_13
REMARK                            x       y       z     vdW  Elec       q    Type
REMARK                         _______ _______ _______ _____ _____    ______ ____
ROOT
ATOM      1  C   UNL     1       3.816   3.806  17.736  0.00  0.00    +0.000 A 
ATOM      2  C   UNL     1       3.616   2.440  17.961  0.00  0.00    +0.000 A 
ATOM      3  C   UNL     1       2.780   2.018  18.989  0.00  0.00    +0.000 A 
ATOM      4  C   UNL     1       2.087   2.950  19.767  0.00  0.00    +0.000 A 
ATOM      5  C   UNL     1       2.255   4.343  19.547  0.00  0.00    +0.000 A 
ATOM      6  C   UNL     1       1.491   5.346  20.187  0.00  0.00    +0.000 A 
ATOM      7  C   UNL     1       1.766   6.706  20.043  0.00  0.00    +0.000 A 
ATOM      8  C   UNL     1       2.826   7.105  19.250  0.00  0.00    +0.000 A 
ATOM      9  C   UNL     1       3.530   6.152  18.523  0.00  0.00    +0.000 A 
ATOM     10  C   UNL     1       3.221   4.770  18.592  0.00  0.00    +0.000 A 
ENDROOT
BRANCH   4  11
ATOM     11  O   UNL     1       1.220   2.370  20.662  0.00  0.00    +0.000 OA
ATOM     12  C   UNL     1       1.603   2.388  22.034  0.00  0.00    +0.000 C 
ENDBRANCH   4  11
BRANCH   1  13
ATOM     13  S   UNL     1       4.769   4.249  16.270  0.00  0.00    +0.000 S 
BRANCH  13  17
ATOM     14  C   UNL     1       7.838   7.073  18.241  0.00  0.00    +0.000 A 
ATOM     15  C   UNL     1       7.040   7.523  17.189  0.00  0.00    +0.000 A 
ATOM     16  C   UNL     1       6.124   6.661  16.571  0.00  0.00    +0.000 A 
ATOM     17  C   UNL     1       6.012   5.328  16.977  0.00  0.00    +0.000 A 
ATOM     18  C   UNL     1       6.845   4.872  18.005  0.00  0.00    +0.000 A 
ATOM     19  C   UNL     1       7.752   5.739  18.633  0.00  0.00    +0.000 A 
BRANCH  14  21
ATOM     20  C   UNL     1       8.517   9.335  18.297  0.00  0.00    +0.000 C 
ATOM     21  O   UNL     1       8.680   8.007  18.783  0.00  0.00    +0.000 OA
ENDBRANCH  14  21
ENDBRANCH  13  17
ENDBRANCH   1  13
TORSDOF 4
ENDMDL
MODEL 5
REMARK VINA RESULT:      -6.7      2.542      6.319
REMARK  Name = 
REMARK  6 active torsions:
REMARK  status: ('A' for Active; 'I' for Inactive)
REMARK    1  A    between atoms: C_1  and  O_2
REMARK    2  A    between atoms: O_2  and  C_3
REMARK    3  A    between atoms: C_6  and  S_7
REMARK    4  A    between atoms: S_7  and  C_8
REMARK    5  A    between atoms: C_11  and  O_12
REMARK    6  A    between atoms: O_12  and  C_13
REMARK                            x       y       z     vdW  Elec       q    Type
REMARK                         _______ _______ _______ _____ _____    ______ ____
ROOT
ATOM      1  C   UNL     1       3.186   6.549  17.816  0.00  0.00    +0.000 A 
ATOM      2  C   UNL     1       2.222   5.576  18.102  0.00  0.00    +0.000 A 
ATOM      3  C   UNL     1       2.613   4.284  18.432  0.00  0.00    +0.000 A 
ATOM      4  C   UNL     1       3.967   3.958  18.539  0.00  0.00    +0.000 A 
ATOM      5  C   UNL     1       4.968   4.931  18.275  0.00  0.00    +0.000 A 
ATOM      6  C   UNL     1       6.350   4.730  18.498  0.00  0.00    +0.000 A 
ATOM      7  C   UNL     1       7.316   5.659  18.110  0.00  0.00    +0.000 A 
ATOM      8  C   UNL     1       6.923   6.826  17.480  0.00  0.00    +0.000 A 
ATOM      9  C   UNL     1       5.568   7.102  17.343  0.00  0.00    +0.000 A 
ATOM     10  C   UNL     1       4.565   6.211  17.798  0.00  0.00    +0.000 A 
ENDROOT
BRANCH   4  11
ATOM     11  O   UNL     1       4.182   2.675  18.983  0.00  0.00    +0.000 OA
ATOM     12  C   UNL     1       3.433   1.641  18.349  0.00  0.00    +0.000 C 
ENDBRANCH   4  11
BRANCH   1  13
ATOM     13  S   UNL     1       2.585   8.233  17.580  0.00  0.00    +0.000 S 
BRANCH  13  17
ATOM     14  C   UNL     1       0.619   9.128  21.655  0.00  0.00    +0.000 A 
ATOM     15  C   UNL     1       1.404   7.987  21.486  0.00  0.00    +0.000 A 
ATOM     16  C   UNL     1       1.983   7.698  20.243  0.00  0.00    +0.000 A 
ATOM     17  C   UNL     1       1.762   8.531  19.142  0.00  0.00    +0.000 A 
ATOM     18  C   UNL     1       0.939   9.652  19.308  0.00  0.00    +0.000 A 
ATOM     19  C   UNL     1       0.372   9.948  20.556  0.00  0.00    +0.000 A 
BRANCH  14  21
ATOM     20  C   UNL     1      -0.858  10.346  23.041  0.00  0.00    +0.000 C 
ATOM     21  O   UNL     1       0.123   9.321  22.917  0.00  0.00    +0.000 OA
ENDBRANCH  14  21
ENDBRANCH  13  17
ENDBRANCH   1  13
TORSDOF 4
ENDMDL
MODEL 6
REMARK VINA RESULT:      -6.6      2.528      6.288
REMARK  Name = 
REMARK  6 active torsions:
REMARK  status: ('A' for Active; 'I' for Inactive)
REMARK    1  A    between atoms: C_1  and  O_2
REMARK    2  A    between atoms: O_2  and  C_3
REMARK    3  A    between atoms: C_6  and  S_7
REMARK    4  A    between atoms: S_7  and  C_8
REMARK    5  A    between atoms: C_11  and  O_12
REMARK    6  A    between atoms: O_12  and  C_13
REMARK                            x       y       z     vdW  Elec       q    Type
REMARK                         _______ _______ _______ _____ _____    ______ ____
ROOT
ATOM      1  C   UNL     1       3.097   6.634  17.856  0.00  0.00    +0.000 A 
ATOM      2  C   UNL     1       2.095   5.705  18.155  0.00  0.00    +0.000 A 
ATOM      3  C   UNL     1       2.433   4.394  18.472  0.00  0.00    +0.000 A 
ATOM      4  C   UNL     1       3.773   4.007  18.554  0.00  0.00    +0.000 A 
ATOM      5  C   UNL     1       4.812   4.935  18.276  0.00  0.00    +0.000 A 
ATOM      6  C   UNL     1       6.187   4.670  18.473  0.00  0.00    +0.000 A 
ATOM      7  C   UNL     1       7.187   5.557  18.072  0.00  0.00    +0.000 A 
ATOM      8  C   UNL     1       6.837   6.744  17.455  0.00  0.00    +0.000 A 
ATOM      9  C   UNL     1       5.493   7.082  17.343  0.00  0.00    +0.000 A 
ATOM     10  C   UNL     1       4.459   6.234  17.812  0.00  0.00    +0.000 A 
ENDROOT
BRANCH   4  11
ATOM     11  O   UNL     1       3.938   2.713  18.988  0.00  0.00    +0.000 OA
ATOM     12  C   UNL     1       2.846   1.821  18.779  0.00  0.00    +0.000 C 
ENDBRANCH   4  11
BRANCH   1  13
ATOM     13  S   UNL     1       2.569   8.345  17.638  0.00  0.00    +0.000 S 
BRANCH  13  17
ATOM     14  C   UNL     1       0.126   8.925  21.507  0.00  0.00    +0.000 A 
ATOM     15  C   UNL     1      -0.095   9.750  20.404  0.00  0.00    +0.000 A 
ATOM     16  C   UNL     1       0.662   9.593  19.235  0.00  0.00    +0.000 A 
ATOM     17  C   UNL     1       1.671   8.629  19.162  0.00  0.00    +0.000 A 
ATOM     18  C   UNL     1       1.915   7.833  20.287  0.00  0.00    +0.000 A 
ATOM     19  C   UNL     1       1.147   7.980  21.451  0.00  0.00    +0.000 A 
BRANCH  14  21
ATOM     20  C   UNL     1      -0.798  10.514  22.992  0.00  0.00    +0.000 C 
ATOM     21  O   UNL     1      -0.687   9.154  22.585  0.00  0.00    +0.000 OA
ENDBRANCH  14  21
ENDBRANCH  13  17
ENDBRANCH   1  13
TORSDOF 4
ENDMDL
MODEL 7
REMARK VINA RESULT:      -6.6      2.755      6.222
REMARK  Name = 
REMARK  6 active torsions:
REMARK  status: ('A' for Active; 'I' for Inactive)
REMARK    1  A    between atoms: C_1  and  O_2
REMARK    2  A    between atoms: O_2  and  C_3
REMARK    3  A    between atoms: C_6  and  S_7
REMARK    4  A    between atoms: S_7  and  C_8
REMARK    5  A    between atoms: C_11  and  O_12
REMARK    6  A    between atoms: O_12  and  C_13
REMARK                            x       y       z     vdW  Elec       q    Type
REMARK                         _______ _______ _______ _____ _____    ______ ____
ROOT
ATOM      1  C   UNL     1       4.096   4.476  17.943  0.00  0.00    +0.000 A 
ATOM      2  C   UNL     1       3.673   4.077  16.671  0.00  0.00    +0.000 A 
ATOM      3  C   UNL     1       4.592   3.967  15.633  0.00  0.00    +0.000 A 
ATOM      4  C   UNL     1       5.951   4.195  15.863  0.00  0.00    +0.000 A 
ATOM      5  C   UNL     1       6.412   4.581  17.151  0.00  0.00    +0.000 A 
ATOM      6  C   UNL     1       7.777   4.691  17.505  0.00  0.00    +0.000 A 
ATOM      7  C   UNL     1       8.193   5.194  18.738  0.00  0.00    +0.000 A 
ATOM      8  C   UNL     1       7.248   5.607  19.659  0.00  0.00    +0.000 A 
ATOM      9  C   UNL     1       5.899   5.412  19.384  0.00  0.00    +0.000 A 
ATOM     10  C   UNL     1       5.451   4.833  18.171  0.00  0.00    +0.000 A 
ENDROOT
BRANCH   4  11
ATOM     11  O   UNL     1       6.737   3.934  14.766  0.00  0.00    +0.000 OA
ATOM     12  C   UNL     1       6.066   3.761  13.520  0.00  0.00    +0.000 C 
ENDBRANCH   4  11
BRANCH   1  13
ATOM     13  S   UNL     1       2.863   4.412  19.258  0.00  0.00    +0.000 S 
BRANCH  13  17
ATOM     14  C   UNL     1       1.500   8.807  19.568  0.00  0.00    +0.000 A 
ATOM     15  C   UNL     1       2.052   8.323  18.383  0.00  0.00    +0.000 A 
ATOM     16  C   UNL     1       2.491   6.995  18.292  0.00  0.00    +0.000 A 
ATOM     17  C   UNL     1       2.410   6.139  19.394  0.00  0.00    +0.000 A 
ATOM     18  C   UNL     1       1.893   6.644  20.593  0.00  0.00    +0.000 A 
ATOM     19  C   UNL     1       1.441   7.969  20.679  0.00  0.00    +0.000 A 
BRANCH  14  21
ATOM     20  C   UNL     1       0.050  10.404  18.603  0.00  0.00    +0.000 C 
ATOM     21  O   UNL     1       1.086  10.113  19.535  0.00  0.00    +0.000 OA
ENDBRANCH  14  21
ENDBRANCH  13  17
ENDBRANCH   1  13
TORSDOF 4
ENDMDL
MODEL 8
REMARK VINA RESULT:      -6.6      2.822      6.257
REMARK  Name = 
REMARK  6 active torsions:
REMARK  status: ('A' for Active; 'I' for Inactive)
REMARK    1  A    between atoms: C_1  and  O_2
REMARK    2  A    between atoms: O_2  and  C_3
REMARK    3  A    between atoms: C_6  and  S_7
REMARK    4  A    between atoms: S_7  and  C_8
REMARK    5  A    between atoms: C_11  and  O_12
REMARK    6  A    between atoms: O_12  and  C_13
REMARK                            x       y       z     vdW  Elec       q    Type
REMARK                         _______ _______ _______ _____ _____    ______ ____
ROOT
ATOM      1  C   UNL     1       4.006   4.658  18.460  0.00  0.00    +0.000 A 
ATOM      2  C   UNL     1       3.369   4.103  17.345  0.00  0.00    +0.000 A 
ATOM      3  C   UNL     1       4.108   3.761  16.218  0.00  0.00    +0.000 A 
ATOM      4  C   UNL     1       5.498   3.913  16.209  0.00  0.00    +0.000 A 
ATOM      5  C   UNL     1       6.174   4.455  17.335  0.00  0.00    +0.000 A 
ATOM      6  C   UNL     1       7.580   4.509  17.466  0.00  0.00    +0.000 A 
ATOM      7  C   UNL     1       8.211   5.160  18.527  0.00  0.00    +0.000 A 
ATOM      8  C   UNL     1       7.444   5.784  19.494  0.00  0.00    +0.000 A 
ATOM      9  C   UNL     1       6.060   5.657  19.452  0.00  0.00    +0.000 A 
ATOM     10  C   UNL     1       5.398   4.936  18.428  0.00  0.00    +0.000 A 
ENDROOT
BRANCH   4  11
ATOM     11  O   UNL     1       6.088   3.425  15.067  0.00  0.00    +0.000 OA
ATOM     12  C   UNL     1       6.356   4.365  14.029  0.00  0.00    +0.000 C 
ENDBRANCH   4  11
BRANCH   1  13
ATOM     13  S   UNL     1       2.991   4.895  19.932  0.00  0.00    +0.000 S 
BRANCH  13  17
ATOM     14  C   UNL     1       1.460   9.185  19.211  0.00  0.00    +0.000 A 
ATOM     15  C   UNL     1       1.248   8.559  20.439  0.00  0.00    +0.000 A 
ATOM     16  C   UNL     1       1.690   7.246  20.654  0.00  0.00    +0.000 A 
ATOM     17  C   UNL     1       2.324   6.530  19.635  0.00  0.00    +0.000 A 
ATOM     18  C   UNL     1       2.496   7.151  18.392  0.00  0.00    +0.000 A 
ATOM     19  C   UNL     1       2.066   8.470  18.182  0.00  0.00    +0.000 A 
BRANCH  14  21
ATOM     20  C   UNL     1      -0.399  10.643  19.284  0.00  0.00    +0.000 C 
ATOM     21  O   UNL     1       1.006  10.475  19.122  0.00  0.00    +0.000 OA
ENDBRANCH  14  21
ENDBRANCH  13  17
ENDBRANCH   1  13
TORSDOF 4
ENDMDL
MODEL 9
REMARK VINA RESULT:      -6.5      2.475      5.732
REMARK  Name = 
REMARK  6 active torsions:
REMARK  status: ('A' for Active; 'I' for Inactive)
REMARK    1  A    between atoms: C_1  and  O_2
REMARK    2  A    between atoms: O_2  and  C_3
REMARK    3  A    between atoms: C_6  and  S_7
REMARK    4  A    between atoms: S_7  and  C_8
REMARK    5  A    between atoms: C_11  and  O_12
REMARK    6  A    between atoms: O_12  and  C_13
REMARK                            x       y       z     vdW  Elec       q    Type
REMARK                         _______ _______ _______ _____ _____    ______ ____
ROOT
ATOM      1  C   UNL     1       3.310   6.631  17.851  0.00  0.00    +0.000 A 
ATOM      2  C   UNL     1       4.619   7.112  17.960  0.00  0.00    +0.000 A 
ATOM      3  C   UNL     1       5.669   6.229  18.187  0.00  0.00    +0.000 A 
ATOM      4  C   UNL     1       5.437   4.853  18.249  0.00  0.00    +0.000 A 
ATOM      5  C   UNL     1       4.120   4.334  18.119  0.00  0.00    +0.000 A 
ATOM      6  C   UNL     1       3.815   2.957  18.026  0.00  0.00    +0.000 A 
ATOM      7  C   UNL     1       2.505   2.477  18.027  0.00  0.00    +0.000 A 
ATOM      8  C   UNL     1       1.453   3.370  18.125  0.00  0.00    +0.000 A 
ATOM      9  C   UNL     1       1.716   4.735  18.110  0.00  0.00    +0.000 A 
ATOM     10  C   UNL     1       3.034   5.250  18.033  0.00  0.00    +0.000 A 
ENDROOT
BRANCH   4  11
ATOM     11  O   UNL     1       6.590   4.114  18.364  0.00  0.00    +0.000 OA
ATOM     12  C   UNL     1       7.695   4.516  17.558  0.00  0.00    +0.000 C 
ENDBRANCH   4  11
BRANCH   1  13
ATOM     13  S   UNL     1       2.049   7.830  17.376  0.00  0.00    +0.000 S 
BRANCH  13  17
ATOM     14  C   UNL     1       0.919   9.723  21.428  0.00  0.00    +0.000 A 
ATOM     15  C   UNL     1       0.875  10.483  20.258  0.00  0.00    +0.000 A 
ATOM     16  C   UNL     1       1.242   9.919  19.029  0.00  0.00    +0.000 A 
ATOM     17  C   UNL     1       1.684   8.595  18.954  0.00  0.00    +0.000 A 
ATOM     18  C   UNL     1       1.765   7.851  20.138  0.00  0.00    +0.000 A 
ATOM     19  C   UNL     1       1.385   8.412  21.366  0.00  0.00    +0.000 A 
BRANCH  14  21
ATOM     20  C   UNL     1      -0.454   9.688  23.351  0.00  0.00    +0.000 C 
ATOM     21  O   UNL     1       0.518  10.371  22.566  0.00  0.00    +0.000 OA
ENDBRANCH  14  21
ENDBRANCH  13  17
ENDBRANCH   1  13
TORSDOF 4
ENDMDL
