MODEL 1
REMARK VINA RESULT:      -6.7      0.000      0.000
REMARK  Name = 
REMARK  2 active torsions:
REMARK  status: ('A' for Active; 'I' for Inactive)
REMARK    1  A    between atoms: C_1  and  C_2
REMARK    2  A    between atoms: C_4  and  N_5
REMARK                            x       y       z     vdW  Elec       q    Type
REMARK                         _______ _______ _______ _____ _____    ______ ____
ROOT
ATOM      1  N   UNL     1       2.236   6.295  19.961  0.00  0.00    +0.000 N 
ATOM      2  C   UNL     1       2.231   7.477  19.253  0.00  0.00    +0.000 C 
ATOM      3  O   UNL     1       2.754   7.630  18.152  0.00  0.00    +0.000 OA
ATOM      4  N   UNL     1       1.464   8.462  19.854  0.00  0.00    +0.000 N 
ATOM      5  C   UNL     1       1.097   9.647  19.070  0.00  0.00    +0.000 C 
ATOM      6  C   UNL     1      -0.307  10.157  19.448  0.00  0.00    +0.000 C 
ATOM      7  N   UNL     1      -0.417  10.316  20.900  0.00  0.00    +0.000 N 
ATOM      8  C   UNL     1      -0.849  11.451  21.508  0.00  0.00    +0.000 A 
ATOM      9  N   UNL     1      -0.531  11.768  22.746  0.00  0.00    +0.000 NA
ATOM     10  C   UNL     1      -1.085  12.978  23.110  0.00  0.00    +0.000 A 
ATOM     11  C   UNL     1      -1.876  13.573  22.157  0.00  0.00    +0.000 A 
ATOM     12  S   UNL     1      -1.892  12.610  20.746  0.00  0.00    +0.000 S 
ATOM     13  C   UNL     1      -0.022   9.165  21.717  0.00  0.00    +0.000 C 
ATOM     14  C   UNL     1       1.369   8.660  21.309  0.00  0.00    +0.000 C 
ATOM     15  H   UNL     1       1.393   6.105  20.480  0.00  0.00    +0.000 HD
ENDROOT
BRANCH   1  19
ATOM     16  C   UNL     1       3.624   1.816  18.069  0.00  0.00    +0.000 C 
ATOM     17  C   UNL     1       3.648   3.182  18.657  0.00  0.00    +0.000 A 
ATOM     18  C   UNL     1       2.504   3.966  19.011  0.00  0.00    +0.000 A 
ATOM     19  C   UNL     1       2.903   5.192  19.483  0.00  0.00    +0.000 A 
ATOM     20  S   UNL     1       4.596   5.290  19.442  0.00  0.00    +0.000 S 
ATOM     21  N   UNL     1       4.838   3.752  18.868  0.00  0.00    +0.000 NA
ENDBRANCH   1  19
TORSDOF 1
ENDMDL
MODEL 2
REMARK VINA RESULT:      -6.4      1.535      1.612
REMARK  Name = 
REMARK  2 active torsions:
REMARK  status: ('A' for Active; 'I' for Inactive)
REMARK    1  A    between atoms: C_1  and  C_2
REMARK    2  A    between atoms: C_4  and  N_5
REMARK                            x       y       z     vdW  Elec       q    Type
REMARK                         _______ _______ _______ _____ _____    ______ ____
ROOT
ATOM      1  N   UNL     1       2.316   6.866  18.795  0.00  0.00    +0.000 N 
ATOM      2  C   UNL     1       2.209   8.143  18.289  0.00  0.00    +0.000 C 
ATOM      3  O   UNL     1       2.668   8.502  17.208  0.00  0.00    +0.000 OA
ATOM      4  N   UNL     1       1.417   8.968  19.071  0.00  0.00    +0.000 N 
ATOM      5  C   UNL     1       0.946  10.237  18.504  0.00  0.00    +0.000 C 
ATOM      6  C   UNL     1      -0.465  10.590  19.014  0.00  0.00    +0.000 C 
ATOM      7  N   UNL     1      -0.513  10.508  20.476  0.00  0.00    +0.000 N 
ATOM      8  C   UNL     1      -0.979  11.501  21.276  0.00  0.00    +0.000 A 
ATOM      9  N   UNL     1      -0.619  11.637  22.536  0.00  0.00    +0.000 NA
ATOM     10  C   UNL     1      -1.223  12.735  23.112  0.00  0.00    +0.000 A 
ATOM     11  C   UNL     1      -2.092  13.423  22.300  0.00  0.00    +0.000 A 
ATOM     12  S   UNL     1      -2.122  12.698  20.753  0.00  0.00    +0.000 S 
ATOM     13  C   UNL     1      -0.014   9.268  21.079  0.00  0.00    +0.000 C 
ATOM     14  C   UNL     1       1.382   8.925  20.541  0.00  0.00    +0.000 C 
ATOM     15  H   UNL     1       1.511   6.542  19.310  0.00  0.00    +0.000 HD
ENDROOT
BRANCH   1  19
ATOM     16  C   UNL     1       5.729   4.110  16.280  0.00  0.00    +0.000 C 
ATOM     17  C   UNL     1       4.483   4.565  16.954  0.00  0.00    +0.000 A 
ATOM     18  C   UNL     1       4.271   5.846  17.555  0.00  0.00    +0.000 A 
ATOM     19  C   UNL     1       3.020   5.898  18.120  0.00  0.00    +0.000 A 
ATOM     20  S   UNL     1       2.234   4.412  17.890  0.00  0.00    +0.000 S 
ATOM     21  N   UNL     1       3.462   3.706  17.026  0.00  0.00    +0.000 NA
ENDBRANCH   1  19
TORSDOF 1
ENDMDL
MODEL 3
REMARK VINA RESULT:      -6.4      2.711      3.171
REMARK  Name = 
REMARK  2 active torsions:
REMARK  status: ('A' for Active; 'I' for Inactive)
REMARK    1  A    between atoms: C_1  and  C_2
REMARK    2  A    between atoms: C_4  and  N_5
REMARK                            x       y       z     vdW  Elec       q    Type
REMARK                         _______ _______ _______ _____ _____    ______ ____
ROOT
ATOM      1  N   UNL     1       4.078   7.395  17.244  0.00  0.00    +0.000 N 
ATOM      2  C   UNL     1       3.237   6.938  18.236  0.00  0.00    +0.000 C 
ATOM      3  O   UNL     1       3.293   5.814  18.730  0.00  0.00    +0.000 OA
ATOM      4  N   UNL     1       2.388   7.920  18.718  0.00  0.00    +0.000 N 
ATOM      5  C   UNL     1       1.677   7.680  19.980  0.00  0.00    +0.000 C 
ATOM      6  C   UNL     1       1.514   8.982  20.788  0.00  0.00    +0.000 C 
ATOM      7  N   UNL     1       0.945  10.037  19.946  0.00  0.00    +0.000 N 
ATOM      8  C   UNL     1      -0.142  10.776  20.287  0.00  0.00    +0.000 A 
ATOM      9  N   UNL     1      -0.913  11.371  19.400  0.00  0.00    +0.000 NA
ATOM     10  C   UNL     1      -1.954  12.039  20.012  0.00  0.00    +0.000 A 
ATOM     11  C   UNL     1      -1.955  11.996  21.385  0.00  0.00    +0.000 A 
ATOM     12  S   UNL     1      -0.636  11.054  21.927  0.00  0.00    +0.000 S 
ATOM     13  C   UNL     1       1.607  10.278  18.660  0.00  0.00    +0.000 C 
ATOM     14  C   UNL     1       1.778   8.965  17.882  0.00  0.00    +0.000 C 
ATOM     15  H   UNL     1       4.335   8.367  17.317  0.00  0.00    +0.000 HD
ENDROOT
BRANCH   1  19
ATOM     16  C   UNL     1       6.704   4.070  14.485  0.00  0.00    +0.000 C 
ATOM     17  C   UNL     1       6.306   5.063  15.518  0.00  0.00    +0.000 A 
ATOM     18  C   UNL     1       5.016   5.669  15.651  0.00  0.00    +0.000 A 
ATOM     19  C   UNL     1       5.025   6.569  16.688  0.00  0.00    +0.000 A 
ATOM     20  S   UNL     1       6.571   6.612  17.387  0.00  0.00    +0.000 S 
ATOM     21  N   UNL     1       7.229   5.447  16.405  0.00  0.00    +0.000 NA
ENDBRANCH   1  19
TORSDOF 1
ENDMDL
MODEL 4
REMARK VINA RESULT:      -6.2      1.511      1.517
REMARK  Name = 
REMARK  2 active torsions:
REMARK  status: ('A' for Active; 'I' for Inactive)
REMARK    1  A    between atoms: C_1  and  C_2
REMARK    2  A    between atoms: C_4  and  N_5
REMARK                            x       y       z     vdW  Elec       q    Type
REMARK                         _______ _______ _______ _____ _____    ______ ____
ROOT
ATOM      1  N   UNL     1       1.695   6.292  20.725  0.00  0.00    +0.000 N 
ATOM      2  C   UNL     1       1.951   7.321  19.844  0.00  0.00    +0.000 C 
ATOM      3  O   UNL     1       2.564   7.193  18.787  0.00  0.00    +0.000 OA
ATOM      4  N   UNL     1       1.338   8.508  20.209  0.00  0.00    +0.000 N 
ATOM      5  C   UNL     1       1.245   9.587  19.218  0.00  0.00    +0.000 C 
ATOM      6  C   UNL     1      -0.065  10.383  19.378  0.00  0.00    +0.000 C 
ATOM      7  N   UNL     1      -0.240  10.803  20.770  0.00  0.00    +0.000 N 
ATOM      8  C   UNL     1      -0.497  12.081  21.151  0.00  0.00    +0.000 A 
ATOM      9  N   UNL     1      -0.208  12.546  22.349  0.00  0.00    +0.000 NA
ATOM     10  C   UNL     1      -0.556  13.875  22.466  0.00  0.00    +0.000 A 
ATOM     11  C   UNL     1      -1.162  14.425  21.362  0.00  0.00    +0.000 A 
ATOM     12  S   UNL     1      -1.260  13.252  20.122  0.00  0.00    +0.000 S 
ATOM     13  C   UNL     1      -0.115   9.757  21.791  0.00  0.00    +0.000 C 
ATOM     14  C   UNL     1       1.185   8.964  21.599  0.00  0.00    +0.000 C 
ATOM     15  H   UNL     1       0.799   6.338  21.185  0.00  0.00    +0.000 HD
ENDROOT
BRANCH   1  19
ATOM     16  C   UNL     1       4.502   2.167  19.903  0.00  0.00    +0.000 C 
ATOM     17  C   UNL     1       3.353   3.095  20.087  0.00  0.00    +0.000 A 
ATOM     18  C   UNL     1       3.438   4.503  20.327  0.00  0.00    +0.000 A 
ATOM     19  C   UNL     1       2.180   5.028  20.490  0.00  0.00    +0.000 A 
ATOM     20  S   UNL     1       1.029   3.789  20.355  0.00  0.00    +0.000 S 
ATOM     21  N   UNL     1       2.121   2.581  20.039  0.00  0.00    +0.000 NA
ENDBRANCH   1  19
TORSDOF 1
ENDMDL
MODEL 5
REMARK VINA RESULT:      -6.0      2.051      2.483
REMARK  Name = 
REMARK  2 active torsions:
REMARK  status: ('A' for Active; 'I' for Inactive)
REMARK    1  A    between atoms: C_1  and  C_2
REMARK    2  A    between atoms: C_4  and  N_5
REMARK                            x       y       z     vdW  Elec       q    Type
REMARK                         _______ _______ _______ _____ _____    ______ ____
ROOT
ATOM      1  N   UNL     1       3.642   7.034  18.237  0.00  0.00    +0.000 N 
ATOM      2  C   UNL     1       2.745   6.692  19.225  0.00  0.00    +0.000 C 
ATOM      3  O   UNL     1       2.694   5.589  19.764  0.00  0.00    +0.000 OA
ATOM      4  N   UNL     1       1.971   7.761  19.645  0.00  0.00    +0.000 N 
ATOM      5  C   UNL     1       1.215   7.635  20.897  0.00  0.00    +0.000 C 
ATOM      6  C   UNL     1       1.145   8.979  21.647  0.00  0.00    +0.000 C 
ATOM      7  N   UNL     1       0.686  10.042  20.749  0.00  0.00    +0.000 N 
ATOM      8  C   UNL     1      -0.341  10.883  21.033  0.00  0.00    +0.000 A 
ATOM      9  N   UNL     1      -1.039  11.503  20.103  0.00  0.00    +0.000 NA
ATOM     10  C   UNL     1      -2.033  12.280  20.661  0.00  0.00    +0.000 A 
ATOM     11  C   UNL     1      -2.067  12.296  22.035  0.00  0.00    +0.000 A 
ATOM     12  S   UNL     1      -0.845  11.271  22.648  0.00  0.00    +0.000 S 
ATOM     13  C   UNL     1       1.395  10.172  19.472  0.00  0.00    +0.000 C 
ATOM     14  C   UNL     1       1.471   8.818  18.752  0.00  0.00    +0.000 C 
ATOM     15  H   UNL     1       3.980   7.984  18.278  0.00  0.00    +0.000 HD
ENDROOT
BRANCH   1  19
ATOM     16  C   UNL     1       6.253   3.715  15.455  0.00  0.00    +0.000 C 
ATOM     17  C   UNL     1       5.772   4.567  16.576  0.00  0.00    +0.000 A 
ATOM     18  C   UNL     1       4.647   5.451  16.539  0.00  0.00    +0.000 A 
ATOM     19  C   UNL     1       4.528   6.109  17.739  0.00  0.00    +0.000 A 
ATOM     20  S   UNL     1       5.774   5.618  18.780  0.00  0.00    +0.000 S 
ATOM     21  N   UNL     1       6.449   4.526  17.728  0.00  0.00    +0.000 NA
ENDBRANCH   1  19
TORSDOF 1
ENDMDL
MODEL 6
REMARK VINA RESULT:      -5.9      1.199      1.241
REMARK  Name = 
REMARK  2 active torsions:
REMARK  status: ('A' for Active; 'I' for Inactive)
REMARK    1  A    between atoms: C_1  and  C_2
REMARK    2  A    between atoms: C_4  and  N_5
REMARK                            x       y       z     vdW  Elec       q    Type
REMARK                         _______ _______ _______ _____ _____    ______ ____
ROOT
ATOM      1  N   UNL     1       2.097   7.066  20.118  0.00  0.00    +0.000 N 
ATOM      2  C   UNL     1       1.909   8.216  19.383  0.00  0.00    +0.000 C 
ATOM      3  O   UNL     1       2.282   8.367  18.222  0.00  0.00    +0.000 OA
ATOM      4  N   UNL     1       1.140   9.159  20.045  0.00  0.00    +0.000 N 
ATOM      5  C   UNL     1       0.585  10.280  19.278  0.00  0.00    +0.000 C 
ATOM      6  C   UNL     1      -0.802  10.692  19.810  0.00  0.00    +0.000 C 
ATOM      7  N   UNL     1      -0.750  10.897  21.260  0.00  0.00    +0.000 N 
ATOM      8  C   UNL     1      -1.199  12.016  21.884  0.00  0.00    +0.000 A 
ATOM      9  N   UNL     1      -0.762  12.405  23.064  0.00  0.00    +0.000 NA
ATOM     10  C   UNL     1      -1.368  13.580  23.458  0.00  0.00    +0.000 A 
ATOM     11  C   UNL     1      -2.314  14.074  22.593  0.00  0.00    +0.000 A 
ATOM     12  S   UNL     1      -2.419  13.059  21.223  0.00  0.00    +0.000 S 
ATOM     13  C   UNL     1      -0.166   9.812  22.055  0.00  0.00    +0.000 C 
ATOM     14  C   UNL     1       1.204   9.404  21.494  0.00  0.00    +0.000 C 
ATOM     15  H   UNL     1       1.341   6.829  20.742  0.00  0.00    +0.000 HD
ENDROOT
BRANCH   1  19
ATOM     16  C   UNL     1       5.031   3.937  17.439  0.00  0.00    +0.000 C 
ATOM     17  C   UNL     1       4.072   4.486  18.435  0.00  0.00    +0.000 A 
ATOM     18  C   UNL     1       3.645   5.849  18.530  0.00  0.00    +0.000 A 
ATOM     19  C   UNL     1       2.791   6.001  19.594  0.00  0.00    +0.000 A 
ATOM     20  S   UNL     1       2.596   4.510  20.380  0.00  0.00    +0.000 S 
ATOM     21  N   UNL     1       3.560   3.648  19.341  0.00  0.00    +0.000 NA
ENDBRANCH   1  19
TORSDOF 1
ENDMDL
MODEL 7
REMARK VINA RESULT:      -5.9      2.077      2.559
REMARK  Name = 
REMARK  2 active torsions:
REMARK  status: ('A' for Active; 'I' for Inactive)
REMARK    1  A    between atoms: C_1  and  C_2
REMARK    2  A    between atoms: C_4  and  N_5
REMARK                            x       y       z     vdW  Elec       q    Type
REMARK                         _______ _______ _______ _____ _____    ______ ____
ROOT
ATOM      1  N   UNL     1       3.370   7.190  18.289  0.00  0.00    +0.000 N 
ATOM      2  C   UNL     1       2.591   6.972  19.405  0.00  0.00    +0.000 C 
ATOM      3  O   UNL     1       2.659   5.971  20.114  0.00  0.00    +0.000 OA
ATOM      4  N   UNL     1       1.795   8.059  19.728  0.00  0.00    +0.000 N 
ATOM      5  C   UNL     1       1.168   8.104  21.054  0.00  0.00    +0.000 C 
ATOM      6  C   UNL     1       1.085   9.548  21.586  0.00  0.00    +0.000 C 
ATOM      7  N   UNL     1       0.479  10.427  20.583  0.00  0.00    +0.000 N 
ATOM      8  C   UNL     1      -0.567  11.256  20.834  0.00  0.00    +0.000 A 
ATOM      9  N   UNL     1      -1.386  11.682  19.894  0.00  0.00    +0.000 NA
ATOM     10  C   UNL     1      -2.369  12.494  20.421  0.00  0.00    +0.000 A 
ATOM     11  C   UNL     1      -2.277  12.731  21.770  0.00  0.00    +0.000 A 
ATOM     12  S   UNL     1      -0.942  11.878  22.410  0.00  0.00    +0.000 S 
ATOM     13  C   UNL     1       1.056  10.380  19.236  0.00  0.00    +0.000 C 
ATOM     14  C   UNL     1       1.149   8.932  18.735  0.00  0.00    +0.000 C 
ATOM     15  H   UNL     1       3.650   8.148  18.145  0.00  0.00    +0.000 HD
ENDROOT
BRANCH   1  19
ATOM     16  C   UNL     1       7.431   4.494  16.946  0.00  0.00    +0.000 C 
ATOM     17  C   UNL     1       6.031   4.932  17.194  0.00  0.00    +0.000 A 
ATOM     18  C   UNL     1       5.627   6.200  17.721  0.00  0.00    +0.000 A 
ATOM     19  C   UNL     1       4.261   6.238  17.856  0.00  0.00    +0.000 A 
ATOM     20  S   UNL     1       3.602   4.756  17.357  0.00  0.00    +0.000 S 
ATOM     21  N   UNL     1       5.047   4.071  16.918  0.00  0.00    +0.000 NA
ENDBRANCH   1  19
TORSDOF 1
ENDMDL
MODEL 8
REMARK VINA RESULT:      -5.8      1.488      1.498
REMARK  Name = 
REMARK  2 active torsions:
REMARK  status: ('A' for Active; 'I' for Inactive)
REMARK    1  A    between atoms: C_1  and  C_2
REMARK    2  A    between atoms: C_4  and  N_5
REMARK                            x       y       z     vdW  Elec       q    Type
REMARK                         _______ _______ _______ _____ _____    ______ ____
ROOT
ATOM      1  N   UNL     1       1.981   5.821  19.846  0.00  0.00    +0.000 N 
ATOM      2  C   UNL     1       2.369   6.906  19.090  0.00  0.00    +0.000 C 
ATOM      3  O   UNL     1       3.092   6.838  18.099  0.00  0.00    +0.000 OA
ATOM      4  N   UNL     1       1.759   8.085  19.486  0.00  0.00    +0.000 N 
ATOM      5  C   UNL     1       1.814   9.244  18.587  0.00  0.00    +0.000 C 
ATOM      6  C   UNL     1       0.522  10.080  18.671  0.00  0.00    +0.000 C 
ATOM      7  N   UNL     1       0.207  10.392  20.067  0.00  0.00    +0.000 N 
ATOM      8  C   UNL     1      -0.048  11.645  20.525  0.00  0.00    +0.000 A 
ATOM      9  N   UNL     1       0.120  11.998  21.783  0.00  0.00    +0.000 NA
ATOM     10  C   UNL     1      -0.193  13.327  21.974  0.00  0.00    +0.000 A 
ATOM     11  C   UNL     1      -0.653  13.990  20.862  0.00  0.00    +0.000 A 
ATOM     12  S   UNL     1      -0.651  12.928  19.524  0.00  0.00    +0.000 S 
ATOM     13  C   UNL     1       0.182   9.263  21.002  0.00  0.00    +0.000 C 
ATOM     14  C   UNL     1       1.467   8.432  20.886  0.00  0.00    +0.000 C 
ATOM     15  H   UNL     1       1.042   5.867  20.209  0.00  0.00    +0.000 HD
ENDROOT
BRANCH   1  19
ATOM     16  C   UNL     1       4.547   1.477  19.502  0.00  0.00    +0.000 C 
ATOM     17  C   UNL     1       3.541   2.556  19.308  0.00  0.00    +0.000 A 
ATOM     18  C   UNL     1       3.553   3.841  19.938  0.00  0.00    +0.000 A 
ATOM     19  C   UNL     1       2.447   4.560  19.558  0.00  0.00    +0.000 A 
ATOM     20  S   UNL     1       1.500   3.627  18.504  0.00  0.00    +0.000 S 
ATOM     21  N   UNL     1       2.518   2.317  18.483  0.00  0.00    +0.000 NA
ENDBRANCH   1  19
TORSDOF 1
ENDMDL
MODEL 9
REMARK VINA RESULT:      -5.7      1.788      2.264
REMARK  Name = 
REMARK  2 active torsions:
REMARK  status: ('A' for Active; 'I' for Inactive)
REMARK    1  A    between atoms: C_1  and  C_2
REMARK    2  A    between atoms: C_4  and  N_5
REMARK                            x       y       z     vdW  Elec       q    Type
REMARK                         _______ _______ _______ _____ _____    ______ ____
ROOT
ATOM      1  N   UNL     1       2.730   6.825  18.805  0.00  0.00    +0.000 N 
ATOM      2  C   UNL     1       1.866   7.163  19.823  0.00  0.00    +0.000 C 
ATOM      3  O   UNL     1       1.529   6.404  20.729  0.00  0.00    +0.000 OA
ATOM      4  N   UNL     1       1.500   8.499  19.799  0.00  0.00    +0.000 N 
ATOM      5  C   UNL     1       0.861   9.076  20.988  0.00  0.00    +0.000 C 
ATOM      6  C   UNL     1       1.277  10.546  21.190  0.00  0.00    +0.000 C 
ATOM      7  N   UNL     1       1.085  11.305  19.951  0.00  0.00    +0.000 N 
ATOM      8  C   UNL     1       0.397  12.473  19.876  0.00  0.00    +0.000 A 
ATOM      9  N   UNL     1      -0.161  12.908  18.765  0.00  0.00    +0.000 NA
ATOM     10  C   UNL     1      -0.811  14.107  18.970  0.00  0.00    +0.000 A 
ATOM     11  C   UNL     1      -0.712  14.622  20.240  0.00  0.00    +0.000 A 
ATOM     12  S   UNL     1       0.188  13.551  21.221  0.00  0.00    +0.000 S 
ATOM     13  C   UNL     1       1.678  10.737  18.736  0.00  0.00    +0.000 C 
ATOM     14  C   UNL     1       1.268   9.268  18.567  0.00  0.00    +0.000 C 
ATOM     15  H   UNL     1       3.345   7.565  18.503  0.00  0.00    +0.000 HD
ENDROOT
BRANCH   1  19
ATOM     16  C   UNL     1       3.553   1.895  18.035  0.00  0.00    +0.000 C 
ATOM     17  C   UNL     1       3.716   3.323  18.421  0.00  0.00    +0.000 A 
ATOM     18  C   UNL     1       2.724   4.347  18.293  0.00  0.00    +0.000 A 
ATOM     19  C   UNL     1       3.239   5.551  18.707  0.00  0.00    +0.000 A 
ATOM     20  S   UNL     1       4.851   5.342  19.190  0.00  0.00    +0.000 S 
ATOM     21  N   UNL     1       4.894   3.705  18.923  0.00  0.00    +0.000 NA
ENDBRANCH   1  19
TORSDOF 1
ENDMDL
