MODEL 1
REMARK VINA RESULT:      -8.5      0.000      0.000
REMARK  Name = 
REMARK  7 active torsions:
REMARK  status: ('A' for Active; 'I' for Inactive)
REMARK    1  A    between atoms: C_1  and  C_2
REMARK    2  A    between atoms: C_3  and  C_4
REMARK    3  A    between atoms: N_12  and  C_13
REMARK    4  A    between atoms: C_13  and  C_14
REMARK    5  A    between atoms: C_13  and  C_15
REMARK    6  A    between atoms: C_13  and  C_16
REMARK    7  A    between atoms: C_19  and  C_20
REMARK                            x       y       z     vdW  Elec       q    Type
REMARK                         _______ _______ _______ _____ _____    ______ ____
ROOT
ATOM      1  C   UNL     1       0.201  10.708  19.418  0.00  0.00    +0.000 C 
ATOM      2  C   UNL     1       1.084  11.884  18.941  0.00  0.00    +0.000 C 
ATOM      3  C   UNL     1      -0.091  10.996  20.916  0.00  0.00    +0.000 C 
ENDROOT
BRANCH   1   9
ATOM      4  C   UNL     1      -3.176   9.590  15.787  0.00  0.00    +0.000 C 
ATOM      5  C   UNL     1      -2.617  10.194  17.027  0.00  0.00    +0.000 C 
ATOM      6  C   UNL     1      -3.245  10.966  17.926  0.00  0.00    +0.000 C 
ATOM      7  C   UNL     1      -2.245  11.318  18.962  0.00  0.00    +0.000 C 
ATOM      8  O   UNL     1      -2.458  12.081  19.887  0.00  0.00    +0.000 OA
ATOM      9  N   UNL     1      -1.086  10.615  18.675  0.00  0.00    +0.000 N 
ATOM     10  C   UNL     1      -1.197   9.935  17.404  0.00  0.00    +0.000 C 
BRANCH   6  11
ATOM     11  C   UNL     1      -4.644  11.372  17.944  0.00  0.00    +0.000 A 
ATOM     12  C   UNL     1      -5.546  10.735  18.805  0.00  0.00    +0.000 A 
ATOM     13  C   UNL     1      -6.891  11.110  18.821  0.00  0.00    +0.000 A 
ATOM     14  C   UNL     1      -7.343  12.118  17.971  0.00  0.00    +0.000 A 
ATOM     15  C   UNL     1      -6.451  12.754  17.108  0.00  0.00    +0.000 A 
ATOM     16  C   UNL     1      -5.104  12.381  17.094  0.00  0.00    +0.000 A 
ENDBRANCH   6  11
ENDBRANCH   1   9
BRANCH   1  17
ATOM     17  C   UNL     1       0.989   9.394  19.305  0.00  0.00    +0.000 A 
ATOM     18  N   UNL     1       1.158   8.546  20.304  0.00  0.00    +0.000 NA
ATOM     19  C   UNL     1       1.999   7.519  19.922  0.00  0.00    +0.000 A 
ATOM     20  C   UNL     1       2.456   7.548  18.616  0.00  0.00    +0.000 A 
ATOM     21  S   UNL     1       1.798   8.942  17.851  0.00  0.00    +0.000 S 
BRANCH  20  22
ATOM     22  C   UNL     1       3.349   6.615  17.909  0.00  0.00    +0.000 A 
ATOM     23  C   UNL     1       4.431   7.065  17.135  0.00  0.00    +0.000 A 
ATOM     24  C   UNL     1       5.246   6.168  16.436  0.00  0.00    +0.000 A 
ATOM     25  C   UNL     1       4.989   4.803  16.502  0.00  0.00    +0.000 A 
ATOM     26 CL   UNL     1       5.977   3.702  15.623  0.00  0.00    +0.000 Cl
ATOM     27  C   UNL     1       3.931   4.326  17.271  0.00  0.00    +0.000 A 
ATOM     28  C   UNL     1       3.119   5.228  17.971  0.00  0.00    +0.000 A 
ENDBRANCH  20  22
ENDBRANCH   1  17
TORSDOF 4
ENDMDL
MODEL 2
REMARK VINA RESULT:      -8.3      1.486      1.996
REMARK  Name = 
REMARK  7 active torsions:
REMARK  status: ('A' for Active; 'I' for Inactive)
REMARK    1  A    between atoms: C_1  and  C_2
REMARK    2  A    between atoms: C_3  and  C_4
REMARK    3  A    between atoms: N_12  and  C_13
REMARK    4  A    between atoms: C_13  and  C_14
REMARK    5  A    between atoms: C_13  and  C_15
REMARK    6  A    between atoms: C_13  and  C_16
REMARK    7  A    between atoms: C_19  and  C_20
REMARK                            x       y       z     vdW  Elec       q    Type
REMARK                         _______ _______ _______ _____ _____    ______ ____
ROOT
ATOM      1  C   UNL     1       0.119  11.049  19.326  0.00  0.00    +0.000 C 
ATOM      2  C   UNL     1       0.828  12.372  18.957  0.00  0.00    +0.000 C 
ATOM      3  C   UNL     1      -0.093  11.113  20.864  0.00  0.00    +0.000 C 
ENDROOT
BRANCH   1   9
ATOM      4  C   UNL     1      -3.417   9.631  15.961  0.00  0.00    +0.000 C 
ATOM      5  C   UNL     1      -2.804  10.337  17.118  0.00  0.00    +0.000 C 
ATOM      6  C   UNL     1      -3.393  11.181  17.978  0.00  0.00    +0.000 C 
ATOM      7  C   UNL     1      -2.347  11.617  18.934  0.00  0.00    +0.000 C 
ATOM      8  O   UNL     1      -2.521  12.455  19.801  0.00  0.00    +0.000 OA
ATOM      9  N   UNL     1      -1.201  10.893  18.653  0.00  0.00    +0.000 N 
ATOM     10  C   UNL     1      -1.366  10.110  17.450  0.00  0.00    +0.000 C 
BRANCH   6  11
ATOM     11  C   UNL     1      -4.791  11.586  18.027  0.00  0.00    +0.000 A 
ATOM     12  C   UNL     1      -5.293  12.482  17.075  0.00  0.00    +0.000 A 
ATOM     13  C   UNL     1      -6.629  12.885  17.122  0.00  0.00    +0.000 A 
ATOM     14  C   UNL     1      -7.469  12.401  18.123  0.00  0.00    +0.000 A 
ATOM     15  C   UNL     1      -6.974  11.511  19.077  0.00  0.00    +0.000 A 
ATOM     16  C   UNL     1      -5.637  11.106  19.030  0.00  0.00    +0.000 A 
ENDBRANCH   6  11
ENDBRANCH   1   9
BRANCH   1  17
ATOM     17  C   UNL     1       1.039   9.863  18.997  0.00  0.00    +0.000 A 
ATOM     18  N   UNL     1       1.738   9.759  17.881  0.00  0.00    +0.000 NA
ATOM     19  C   UNL     1       2.380   8.537  17.830  0.00  0.00    +0.000 A 
ATOM     20  C   UNL     1       2.208   7.704  18.922  0.00  0.00    +0.000 A 
ATOM     21  S   UNL     1       1.184   8.505  20.049  0.00  0.00    +0.000 S 
BRANCH  20  22
ATOM     22  C   UNL     1       2.750   6.358  19.176  0.00  0.00    +0.000 A 
ATOM     23  C   UNL     1       3.799   5.825  18.410  0.00  0.00    +0.000 A 
ATOM     24  C   UNL     1       4.277   4.528  18.636  0.00  0.00    +0.000 A 
ATOM     25  C   UNL     1       3.708   3.746  19.636  0.00  0.00    +0.000 A 
ATOM     26 CL   UNL     1       4.279   2.144  19.898  0.00  0.00    +0.000 Cl
ATOM     27  C   UNL     1       2.674   4.253  20.419  0.00  0.00    +0.000 A 
ATOM     28  C   UNL     1       2.202   5.551  20.190  0.00  0.00    +0.000 A 
ENDBRANCH  20  22
ENDBRANCH   1  17
TORSDOF 4
ENDMDL
MODEL 3
REMARK VINA RESULT:      -8.3      0.416      1.001
REMARK  Name = 
REMARK  7 active torsions:
REMARK  status: ('A' for Active; 'I' for Inactive)
REMARK    1  A    between atoms: C_1  and  C_2
REMARK    2  A    between atoms: C_3  and  C_4
REMARK    3  A    between atoms: N_12  and  C_13
REMARK    4  A    between atoms: C_13  and  C_14
REMARK    5  A    between atoms: C_13  and  C_15
REMARK    6  A    between atoms: C_13  and  C_16
REMARK    7  A    between atoms: C_19  and  C_20
REMARK                            x       y       z     vdW  Elec       q    Type
REMARK                         _______ _______ _______ _____ _____    ______ ____
ROOT
ATOM      1  C   UNL     1       0.142  10.951  19.532  0.00  0.00    +0.000 C 
ATOM      2  C   UNL     1       1.022  12.102  18.992  0.00  0.00    +0.000 C 
ATOM      3  C   UNL     1      -0.080  11.275  21.035  0.00  0.00    +0.000 C 
ENDROOT
BRANCH   1   9
ATOM      4  C   UNL     1      -3.425   9.733  16.122  0.00  0.00    +0.000 C 
ATOM      5  C   UNL     1      -2.791  10.397  17.293  0.00  0.00    +0.000 C 
ATOM      6  C   UNL     1      -3.349  11.256  18.158  0.00  0.00    +0.000 C 
ATOM      7  C   UNL     1      -2.293  11.634  19.128  0.00  0.00    +0.000 C 
ATOM      8  O   UNL     1      -2.436  12.469  20.004  0.00  0.00    +0.000 OA
ATOM      9  N   UNL     1      -1.177  10.863  18.847  0.00  0.00    +0.000 N 
ATOM     10  C   UNL     1      -1.368  10.102  17.633  0.00  0.00    +0.000 C 
BRANCH   6  11
ATOM     11  C   UNL     1      -4.728  11.724  18.201  0.00  0.00    +0.000 A 
ATOM     12  C   UNL     1      -5.482  11.569  19.371  0.00  0.00    +0.000 A 
ATOM     13  C   UNL     1      -6.808  12.004  19.417  0.00  0.00    +0.000 A 
ATOM     14  C   UNL     1      -7.390  12.588  18.293  0.00  0.00    +0.000 A 
ATOM     15  C   UNL     1      -6.645  12.741  17.124  0.00  0.00    +0.000 A 
ATOM     16  C   UNL     1      -5.317  12.308  17.078  0.00  0.00    +0.000 A 
ENDBRANCH   6  11
ENDBRANCH   1   9
BRANCH   1  17
ATOM     17  C   UNL     1       0.905   9.622  19.414  0.00  0.00    +0.000 A 
ATOM     18  N   UNL     1       1.082   8.780  20.416  0.00  0.00    +0.000 NA
ATOM     19  C   UNL     1       1.896   7.735  20.025  0.00  0.00    +0.000 A 
ATOM     20  C   UNL     1       2.323   7.744  18.709  0.00  0.00    +0.000 A 
ATOM     21  S   UNL     1       1.671   9.142  17.946  0.00  0.00    +0.000 S 
BRANCH  20  22
ATOM     22  C   UNL     1       3.183   6.788  17.990  0.00  0.00    +0.000 A 
ATOM     23  C   UNL     1       2.945   5.404  18.027  0.00  0.00    +0.000 A 
ATOM     24  C   UNL     1       3.795   4.505  17.372  0.00  0.00    +0.000 A 
ATOM     25  C   UNL     1       4.897   4.981  16.669  0.00  0.00    +0.000 A 
ATOM     26 CL   UNL     1       5.955   3.873  15.885  0.00  0.00    +0.000 Cl
ATOM     27  C   UNL     1       5.150   6.349  16.605  0.00  0.00    +0.000 A 
ATOM     28  C   UNL     1       4.296   7.244  17.260  0.00  0.00    +0.000 A 
ENDBRANCH  20  22
ENDBRANCH   1  17
TORSDOF 4
ENDMDL
MODEL 4
REMARK VINA RESULT:      -8.2      1.498      1.960
REMARK  Name = 
REMARK  7 active torsions:
REMARK  status: ('A' for Active; 'I' for Inactive)
REMARK    1  A    between atoms: C_1  and  C_2
REMARK    2  A    between atoms: C_3  and  C_4
REMARK    3  A    between atoms: N_12  and  C_13
REMARK    4  A    between atoms: C_13  and  C_14
REMARK    5  A    between atoms: C_13  and  C_15
REMARK    6  A    between atoms: C_13  and  C_16
REMARK    7  A    between atoms: C_19  and  C_20
REMARK                            x       y       z     vdW  Elec       q    Type
REMARK                         _______ _______ _______ _____ _____    ______ ____
ROOT
ATOM      1  C   UNL     1       0.074  11.263  19.347  0.00  0.00    +0.000 C 
ATOM      2  C   UNL     1       0.761  12.582  18.921  0.00  0.00    +0.000 C 
ATOM      3  C   UNL     1      -0.104  11.374  20.886  0.00  0.00    +0.000 C 
ENDROOT
BRANCH   1   9
ATOM      4  C   UNL     1      -3.525   9.684  16.125  0.00  0.00    +0.000 C 
ATOM      5  C   UNL     1      -2.891  10.444  17.235  0.00  0.00    +0.000 C 
ATOM      6  C   UNL     1      -3.465  11.326  18.067  0.00  0.00    +0.000 C 
ATOM      7  C   UNL     1      -2.401  11.809  18.979  0.00  0.00    +0.000 C 
ATOM      8  O   UNL     1      -2.559  12.687  19.810  0.00  0.00    +0.000 OA
ATOM      9  N   UNL     1      -1.258  11.075  18.709  0.00  0.00    +0.000 N 
ATOM     10  C   UNL     1      -1.446  10.236  17.547  0.00  0.00    +0.000 C 
BRANCH   6  11
ATOM     11  C   UNL     1      -4.862  11.732  18.125  0.00  0.00    +0.000 A 
ATOM     12  C   UNL     1      -5.659  11.338  19.208  0.00  0.00    +0.000 A 
ATOM     13  C   UNL     1      -7.004  11.713  19.266  0.00  0.00    +0.000 A 
ATOM     14  C   UNL     1      -7.560  12.475  18.240  0.00  0.00    +0.000 A 
ATOM     15  C   UNL     1      -6.773  12.866  17.157  0.00  0.00    +0.000 A 
ATOM     16  C   UNL     1      -5.427  12.494  17.099  0.00  0.00    +0.000 A 
ENDBRANCH   6  11
ENDBRANCH   1   9
BRANCH   1  17
ATOM     17  C   UNL     1       0.999  10.077  19.033  0.00  0.00    +0.000 A 
ATOM     18  N   UNL     1       1.778  10.009  17.968  0.00  0.00    +0.000 NA
ATOM     19  C   UNL     1       2.403   8.779  17.910  0.00  0.00    +0.000 A 
ATOM     20  C   UNL     1       2.139   7.903  18.949  0.00  0.00    +0.000 A 
ATOM     21  S   UNL     1       1.046   8.673  20.032  0.00  0.00    +0.000 S 
BRANCH  20  22
ATOM     22  C   UNL     1       2.642   6.538  19.181  0.00  0.00    +0.000 A 
ATOM     23  C   UNL     1       2.139   5.728  20.212  0.00  0.00    +0.000 A 
ATOM     24  C   UNL     1       2.654   4.448  20.446  0.00  0.00    +0.000 A 
ATOM     25  C   UNL     1       3.683   3.960  19.649  0.00  0.00    +0.000 A 
ATOM     26 CL   UNL     1       4.333   2.396  19.952  0.00  0.00    +0.000 Cl
ATOM     27  C   UNL     1       4.194   4.735  18.611  0.00  0.00    +0.000 A 
ATOM     28  C   UNL     1       3.673   6.015  18.379  0.00  0.00    +0.000 A 
ENDBRANCH  20  22
ENDBRANCH   1  17
TORSDOF 4
ENDMDL
MODEL 5
REMARK VINA RESULT:      -7.8      6.490      9.212
REMARK  Name = 
REMARK  7 active torsions:
REMARK  status: ('A' for Active; 'I' for Inactive)
REMARK    1  A    between atoms: C_1  and  C_2
REMARK    2  A    between atoms: C_3  and  C_4
REMARK    3  A    between atoms: N_12  and  C_13
REMARK    4  A    between atoms: C_13  and  C_14
REMARK    5  A    between atoms: C_13  and  C_15
REMARK    6  A    between atoms: C_13  and  C_16
REMARK    7  A    between atoms: C_19  and  C_20
REMARK                            x       y       z     vdW  Elec       q    Type
REMARK                         _______ _______ _______ _____ _____    ______ ____
ROOT
ATOM      1  C   UNL     1       6.623   5.891  16.859  0.00  0.00    +0.000 C 
ATOM      2  C   UNL     1       7.344   4.524  16.783  0.00  0.00    +0.000 C 
ATOM      3  C   UNL     1       6.518   6.381  15.389  0.00  0.00    +0.000 C 
ENDROOT
BRANCH   1   9
ATOM      4  C   UNL     1       1.863   7.096  18.171  0.00  0.00    +0.000 C 
ATOM      5  C   UNL     1       3.137   6.330  18.114  0.00  0.00    +0.000 C 
ATOM      6  C   UNL     1       3.426   5.163  18.708  0.00  0.00    +0.000 C 
ATOM      7  C   UNL     1       4.827   4.836  18.350  0.00  0.00    +0.000 C 
ATOM      8  O   UNL     1       5.440   3.880  18.791  0.00  0.00    +0.000 OA
ATOM      9  N   UNL     1       5.257   5.790  17.443  0.00  0.00    +0.000 N 
ATOM     10  C   UNL     1       4.275   6.841  17.296  0.00  0.00    +0.000 C 
BRANCH   6  11
ATOM     11  C   UNL     1       2.554   4.324  19.519  0.00  0.00    +0.000 A 
ATOM     12  C   UNL     1       2.690   4.319  20.913  0.00  0.00    +0.000 A 
ATOM     13  C   UNL     1       1.866   3.509  21.698  0.00  0.00    +0.000 A 
ATOM     14  C   UNL     1       0.908   2.696  21.094  0.00  0.00    +0.000 A 
ATOM     15  C   UNL     1       0.771   2.694  19.706  0.00  0.00    +0.000 A 
ATOM     16  C   UNL     1       1.594   3.506  18.920  0.00  0.00    +0.000 A 
ENDBRANCH   6  11
ENDBRANCH   1   9
BRANCH   1  17
ATOM     17  C   UNL     1       7.483   6.882  17.657  0.00  0.00    +0.000 A 
ATOM     18  N   UNL     1       8.143   6.567  18.758  0.00  0.00    +0.000 NA
ATOM     19  C   UNL     1       8.732   7.693  19.301  0.00  0.00    +0.000 A 
ATOM     20  C   UNL     1       8.561   8.876  18.604  0.00  0.00    +0.000 A 
ATOM     21  S   UNL     1       7.605   8.543  17.212  0.00  0.00    +0.000 S 
BRANCH  20  22
ATOM     22  C   UNL     1       9.055  10.230  18.909  0.00  0.00    +0.000 A 
ATOM     23  C   UNL     1       9.098  11.240  17.936  0.00  0.00    +0.000 A 
ATOM     24  C   UNL     1       9.608  12.510  18.230  0.00  0.00    +0.000 A 
ATOM     25  C   UNL     1      10.084  12.786  19.508  0.00  0.00    +0.000 A 
ATOM     26 CL   UNL     1      10.733  14.339  19.863  0.00  0.00    +0.000 Cl
ATOM     27  C   UNL     1      10.043  11.807  20.497  0.00  0.00    +0.000 A 
ATOM     28  C   UNL     1       9.529  10.538  20.198  0.00  0.00    +0.000 A 
ENDBRANCH  20  22
ENDBRANCH   1  17
TORSDOF 4
ENDMDL
MODEL 6
REMARK VINA RESULT:      -7.7      5.125     10.259
REMARK  Name = 
REMARK  7 active torsions:
REMARK  status: ('A' for Active; 'I' for Inactive)
REMARK    1  A    between atoms: C_1  and  C_2
REMARK    2  A    between atoms: C_3  and  C_4
REMARK    3  A    between atoms: N_12  and  C_13
REMARK    4  A    between atoms: C_13  and  C_14
REMARK    5  A    between atoms: C_13  and  C_15
REMARK    6  A    between atoms: C_13  and  C_16
REMARK    7  A    between atoms: C_19  and  C_20
REMARK                            x       y       z     vdW  Elec       q    Type
REMARK                         _______ _______ _______ _____ _____    ______ ____
ROOT
ATOM      1  C   UNL     1       3.024   4.320  19.088  0.00  0.00    +0.000 C 
ATOM      2  C   UNL     1       1.904   3.417  18.520  0.00  0.00    +0.000 C 
ATOM      3  C   UNL     1       3.362   3.726  20.483  0.00  0.00    +0.000 C 
ENDROOT
BRANCH   1   9
ATOM      4  C   UNL     1       7.910   4.600  17.717  0.00  0.00    +0.000 C 
ATOM      5  C   UNL     1       6.431   4.515  17.580  0.00  0.00    +0.000 C 
ATOM      6  C   UNL     1       5.709   4.427  16.453  0.00  0.00    +0.000 C 
ATOM      7  C   UNL     1       4.284   4.383  16.859  0.00  0.00    +0.000 C 
ATOM      8  O   UNL     1       3.350   4.388  16.077  0.00  0.00    +0.000 OA
ATOM      9  N   UNL     1       4.250   4.319  18.242  0.00  0.00    +0.000 N 
ATOM     10  C   UNL     1       5.573   4.488  18.800  0.00  0.00    +0.000 C 
BRANCH   6  11
ATOM     11  C   UNL     1       6.189   4.348  15.080  0.00  0.00    +0.000 A 
ATOM     12  C   UNL     1       7.238   5.173  14.657  0.00  0.00    +0.000 A 
ATOM     13  C   UNL     1       7.696   5.112  13.339  0.00  0.00    +0.000 A 
ATOM     14  C   UNL     1       7.104   4.231  12.436  0.00  0.00    +0.000 A 
ATOM     15  C   UNL     1       6.056   3.409  12.849  0.00  0.00    +0.000 A 
ATOM     16  C   UNL     1       5.598   3.469  14.169  0.00  0.00    +0.000 A 
ENDBRANCH   6  11
ENDBRANCH   1   9
BRANCH   1  17
ATOM     17  C   UNL     1       2.489   5.749  19.268  0.00  0.00    +0.000 A 
ATOM     18  N   UNL     1       2.733   6.740  18.429  0.00  0.00    +0.000 NA
ATOM     19  C   UNL     1       2.209   7.921  18.918  0.00  0.00    +0.000 A 
ATOM     20  C   UNL     1       1.526   7.843  20.119  0.00  0.00    +0.000 A 
ATOM     21  S   UNL     1       1.564   6.206  20.649  0.00  0.00    +0.000 S 
BRANCH  20  22
ATOM     22  C   UNL     1       0.858   8.902  20.894  0.00  0.00    +0.000 A 
ATOM     23  C   UNL     1       0.525   8.733  22.248  0.00  0.00    +0.000 A 
ATOM     24  C   UNL     1      -0.147   9.733  22.960  0.00  0.00    +0.000 A 
ATOM     25  C   UNL     1      -0.496  10.920  22.325  0.00  0.00    +0.000 A 
ATOM     26 CL   UNL     1      -1.342  12.139  23.195  0.00  0.00    +0.000 Cl
ATOM     27  C   UNL     1      -0.168  11.121  20.987  0.00  0.00    +0.000 A 
ATOM     28  C   UNL     1       0.506  10.118  20.279  0.00  0.00    +0.000 A 
ENDBRANCH  20  22
ENDBRANCH   1  17
TORSDOF 4
ENDMDL
MODEL 7
REMARK VINA RESULT:      -7.7      5.092     10.053
REMARK  Name = 
REMARK  7 active torsions:
REMARK  status: ('A' for Active; 'I' for Inactive)
REMARK    1  A    between atoms: C_1  and  C_2
REMARK    2  A    between atoms: C_3  and  C_4
REMARK    3  A    between atoms: N_12  and  C_13
REMARK    4  A    between atoms: C_13  and  C_14
REMARK    5  A    between atoms: C_13  and  C_15
REMARK    6  A    between atoms: C_13  and  C_16
REMARK    7  A    between atoms: C_19  and  C_20
REMARK                            x       y       z     vdW  Elec       q    Type
REMARK                         _______ _______ _______ _____ _____    ______ ____
ROOT
ATOM      1  C   UNL     1       3.047   3.613  19.049  0.00  0.00    +0.000 C 
ATOM      2  C   UNL     1       1.903   2.913  18.278  0.00  0.00    +0.000 C 
ATOM      3  C   UNL     1       3.400   2.653  20.217  0.00  0.00    +0.000 C 
ENDROOT
BRANCH   1   9
ATOM      4  C   UNL     1       7.837   4.670  17.717  0.00  0.00    +0.000 C 
ATOM      5  C   UNL     1       6.385   4.378  17.568  0.00  0.00    +0.000 C 
ATOM      6  C   UNL     1       5.680   4.247  16.435  0.00  0.00    +0.000 C 
ATOM      7  C   UNL     1       4.278   3.975  16.832  0.00  0.00    +0.000 C 
ATOM      8  O   UNL     1       3.351   3.885  16.047  0.00  0.00    +0.000 OA
ATOM      9  N   UNL     1       4.257   3.835  18.210  0.00  0.00    +0.000 N 
ATOM     10  C   UNL     1       5.543   4.164  18.782  0.00  0.00    +0.000 C 
BRANCH   6  11
ATOM     11  C   UNL     1       6.162   4.310  15.062  0.00  0.00    +0.000 A 
ATOM     12  C   UNL     1       5.572   3.508  14.077  0.00  0.00    +0.000 A 
ATOM     13  C   UNL     1       6.036   3.554  12.760  0.00  0.00    +0.000 A 
ATOM     14  C   UNL     1       7.095   4.395  12.423  0.00  0.00    +0.000 A 
ATOM     15  C   UNL     1       7.689   5.193  13.400  0.00  0.00    +0.000 A 
ATOM     16  C   UNL     1       7.225   5.149  14.718  0.00  0.00    +0.000 A 
ENDBRANCH   6  11
ENDBRANCH   1   9
BRANCH   1  17
ATOM     17  C   UNL     1       2.537   4.942  19.628  0.00  0.00    +0.000 A 
ATOM     18  N   UNL     1       1.971   5.061  20.815  0.00  0.00    +0.000 NA
ATOM     19  C   UNL     1       1.524   6.354  21.006  0.00  0.00    +0.000 A 
ATOM     20  C   UNL     1       1.775   7.250  19.981  0.00  0.00    +0.000 A 
ATOM     21  S   UNL     1       2.600   6.410  18.726  0.00  0.00    +0.000 S 
BRANCH  20  22
ATOM     22  C   UNL     1       1.436   8.680  19.876  0.00  0.00    +0.000 A 
ATOM     23  C   UNL     1       0.958   9.412  20.974  0.00  0.00    +0.000 A 
ATOM     24  C   UNL     1       0.602  10.760  20.849  0.00  0.00    +0.000 A 
ATOM     25  C   UNL     1       0.721  11.395  19.617  0.00  0.00    +0.000 A 
ATOM     26 CL   UNL     1       0.261  13.045  19.458  0.00  0.00    +0.000 Cl
ATOM     27  C   UNL     1       1.204  10.698  18.513  0.00  0.00    +0.000 A 
ATOM     28  C   UNL     1       1.561   9.350  18.644  0.00  0.00    +0.000 A 
ENDBRANCH  20  22
ENDBRANCH   1  17
TORSDOF 4
ENDMDL
MODEL 8
REMARK VINA RESULT:      -7.7      6.579      9.295
REMARK  Name = 
REMARK  7 active torsions:
REMARK  status: ('A' for Active; 'I' for Inactive)
REMARK    1  A    between atoms: C_1  and  C_2
REMARK    2  A    between atoms: C_3  and  C_4
REMARK    3  A    between atoms: N_12  and  C_13
REMARK    4  A    between atoms: C_13  and  C_14
REMARK    5  A    between atoms: C_13  and  C_15
REMARK    6  A    between atoms: C_13  and  C_16
REMARK    7  A    between atoms: C_19  and  C_20
REMARK                            x       y       z     vdW  Elec       q    Type
REMARK                         _______ _______ _______ _____ _____    ______ ____
ROOT
ATOM      1  C   UNL     1       6.794   5.816  16.992  0.00  0.00    +0.000 C 
ATOM      2  C   UNL     1       7.540   4.462  17.036  0.00  0.00    +0.000 C 
ATOM      3  C   UNL     1       6.737   6.203  15.489  0.00  0.00    +0.000 C 
ENDROOT
BRANCH   1   9
ATOM      4  C   UNL     1       1.997   7.058  18.126  0.00  0.00    +0.000 C 
ATOM      5  C   UNL     1       3.270   6.286  18.123  0.00  0.00    +0.000 C 
ATOM      6  C   UNL     1       3.533   5.125  18.741  0.00  0.00    +0.000 C 
ATOM      7  C   UNL     1       4.944   4.788  18.435  0.00  0.00    +0.000 C 
ATOM      8  O   UNL     1       5.537   3.836  18.909  0.00  0.00    +0.000 OA
ATOM      9  N   UNL     1       5.408   5.729  17.530  0.00  0.00    +0.000 N 
ATOM     10  C   UNL     1       4.437   6.782  17.337  0.00  0.00    +0.000 C 
BRANCH   6  11
ATOM     11  C   UNL     1       2.631   4.301  19.533  0.00  0.00    +0.000 A 
ATOM     12  C   UNL     1       1.650   3.528  18.898  0.00  0.00    +0.000 A 
ATOM     13  C   UNL     1       0.773   2.744  19.651  0.00  0.00    +0.000 A 
ATOM     14  C   UNL     1       0.866   2.734  21.041  0.00  0.00    +0.000 A 
ATOM     15  C   UNL     1       1.838   3.504  21.680  0.00  0.00    +0.000 A 
ATOM     16  C   UNL     1       2.718   4.287  20.927  0.00  0.00    +0.000 A 
ENDBRANCH   6  11
ENDBRANCH   1   9
BRANCH   1  17
ATOM     17  C   UNL     1       7.606   6.875  17.752  0.00  0.00    +0.000 A 
ATOM     18  N   UNL     1       8.240   6.645  18.888  0.00  0.00    +0.000 NA
ATOM     19  C   UNL     1       8.786   7.816  19.377  0.00  0.00    +0.000 A 
ATOM     20  C   UNL     1       8.607   8.950  18.605  0.00  0.00    +0.000 A 
ATOM     21  S   UNL     1       7.701   8.509  17.209  0.00  0.00    +0.000 S 
BRANCH  20  22
ATOM     22  C   UNL     1       9.060  10.332  18.840  0.00  0.00    +0.000 A 
ATOM     23  C   UNL     1       9.779  10.691  19.991  0.00  0.00    +0.000 A 
ATOM     24  C   UNL     1      10.167  12.016  20.221  0.00  0.00    +0.000 A 
ATOM     25  C   UNL     1       9.839  13.003  19.298  0.00  0.00    +0.000 A 
ATOM     26 CL   UNL     1      10.296  14.636  19.591  0.00  0.00    +0.000 Cl
ATOM     27  C   UNL     1       9.136  12.675  18.141  0.00  0.00    +0.000 A 
ATOM     28  C   UNL     1       8.753  11.347  17.915  0.00  0.00    +0.000 A 
ENDBRANCH  20  22
ENDBRANCH   1  17
TORSDOF 4
ENDMDL
MODEL 9
REMARK VINA RESULT:      -7.6      3.384      5.559
REMARK  Name = 
REMARK  7 active torsions:
REMARK  status: ('A' for Active; 'I' for Inactive)
REMARK    1  A    between atoms: C_1  and  C_2
REMARK    2  A    between atoms: C_3  and  C_4
REMARK    3  A    between atoms: N_12  and  C_13
REMARK    4  A    between atoms: C_13  and  C_14
REMARK    5  A    between atoms: C_13  and  C_15
REMARK    6  A    between atoms: C_13  and  C_16
REMARK    7  A    between atoms: C_19  and  C_20
REMARK                            x       y       z     vdW  Elec       q    Type
REMARK                         _______ _______ _______ _____ _____    ______ ____
ROOT
ATOM      1  C   UNL     1      -0.492  11.725  20.461  0.00  0.00    +0.000 C 
ATOM      2  C   UNL     1      -0.667  11.322  21.944  0.00  0.00    +0.000 C 
ATOM      3  C   UNL     1      -1.924  11.705  19.860  0.00  0.00    +0.000 C 
ENDROOT
BRANCH   1   9
ATOM      4  C   UNL     1       1.780  16.137  21.559  0.00  0.00    +0.000 C 
ATOM      5  C   UNL     1       1.042  15.112  20.773  0.00  0.00    +0.000 C 
ATOM      6  C   UNL     1       0.623  15.189  19.501  0.00  0.00    +0.000 C 
ATOM      7  C   UNL     1      -0.070  13.914  19.200  0.00  0.00    +0.000 C 
ATOM      8  O   UNL     1      -0.649  13.681  18.154  0.00  0.00    +0.000 OA
ATOM      9  N   UNL     1       0.091  13.085  20.298  0.00  0.00    +0.000 N 
ATOM     10  C   UNL     1       0.714  13.795  21.393  0.00  0.00    +0.000 C 
BRANCH   6  11
ATOM     11  C   UNL     1       0.822  16.276  18.551  0.00  0.00    +0.000 A 
ATOM     12  C   UNL     1      -0.270  17.048  18.134  0.00  0.00    +0.000 A 
ATOM     13  C   UNL     1      -0.089  18.084  17.215  0.00  0.00    +0.000 A 
ATOM     14  C   UNL     1       1.179  18.349  16.703  0.00  0.00    +0.000 A 
ATOM     15  C   UNL     1       2.270  17.582  17.112  0.00  0.00    +0.000 A 
ATOM     16  C   UNL     1       2.091  16.546  18.034  0.00  0.00    +0.000 A 
ENDBRANCH   6  11
ENDBRANCH   1   9
BRANCH   1  17
ATOM     17  C   UNL     1       0.368  10.675  19.741  0.00  0.00    +0.000 A 
ATOM     18  N   UNL     1       0.646  10.708  18.450  0.00  0.00    +0.000 NA
ATOM     19  C   UNL     1       1.346   9.575  18.082  0.00  0.00    +0.000 A 
ATOM     20  C   UNL     1       1.643   8.678  19.093  0.00  0.00    +0.000 A 
ATOM     21  S   UNL     1       0.997   9.297  20.563  0.00  0.00    +0.000 S 
BRANCH  20  22
ATOM     22  C   UNL     1       2.366   7.396  19.033  0.00  0.00    +0.000 A 
ATOM     23  C   UNL     1       2.220   6.415  20.027  0.00  0.00    +0.000 A 
ATOM     24  C   UNL     1       2.945   5.219  19.978  0.00  0.00    +0.000 A 
ATOM     25  C   UNL     1       3.829   4.988  18.929  0.00  0.00    +0.000 A 
ATOM     26 CL   UNL     1       4.738   3.528  18.881  0.00  0.00    +0.000 Cl
ATOM     27  C   UNL     1       3.986   5.938  17.922  0.00  0.00    +0.000 A 
ATOM     28  C   UNL     1       3.256   7.132  17.975  0.00  0.00    +0.000 A 
ENDBRANCH  20  22
ENDBRANCH   1  17
TORSDOF 4
ENDMDL
