MODEL 1
REMARK VINA RESULT:      -8.0      0.000      0.000
REMARK  Name = 
REMARK  7 active torsions:
REMARK  status: ('A' for Active; 'I' for Inactive)
REMARK    1  A    between atoms: C_1  and  S_2
REMARK    2  A    between atoms: S_2  and  C_5
REMARK    3  A    between atoms: C_8  and  N_9
REMARK    4  A    between atoms: N_9  and  C_10
REMARK    5  A    between atoms: C_10  and  C_11
REMARK    6  A    between atoms: C_10  and  C_18
REMARK    7  A    between atoms: C_24  and  N_25
REMARK                            x       y       z     vdW  Elec       q    Type
REMARK                         _______ _______ _______ _____ _____    ______ ____
ROOT
ATOM      1  N   UNL     1       2.646   7.277  19.187  0.00  0.00    +0.000 N 
ATOM      2  H   UNL     1       3.299   7.199  19.965  0.00  0.00    +0.000 HD
ENDROOT
BRANCH   1   6
ATOM      3  C   UNL     1       0.198  10.705  18.750  0.00  0.00    +0.000 A 
ATOM      4  C   UNL     1       0.872  10.134  17.675  0.00  0.00    +0.000 A 
ATOM      5  C   UNL     1       1.654   8.986  17.882  0.00  0.00    +0.000 A 
ATOM      6  C   UNL     1       1.811   8.378  19.151  0.00  0.00    +0.000 A 
ATOM      7  C   UNL     1       1.122   9.014  20.205  0.00  0.00    +0.000 A 
ATOM      8  C   UNL     1       0.304  10.143  20.015  0.00  0.00    +0.000 A 
BRANCH   3  10
ATOM      9  C   UNL     1      -1.598  12.326  20.115  0.00  0.00    +0.000 C 
ATOM     10  S   UNL     1      -0.827  12.135  18.527  0.00  0.00    +0.000 S 
ATOM     11  O   UNL     1      -1.850  11.782  17.566  0.00  0.00    +0.000 OA
ATOM     12  O   UNL     1       0.050  13.271  18.307  0.00  0.00    +0.000 OA
ENDBRANCH   3  10
BRANCH   7  13
ATOM     13  N   UNL     1       1.221   8.592  21.586  0.00  0.00    +0.000 N 
ATOM     14  O   UNL     1       0.974   7.411  21.858  0.00  0.00    +0.000 OA
ATOM     15  O   UNL     1       1.519   9.469  22.411  0.00  0.00    +0.000 OA
ENDBRANCH   7  13
ENDBRANCH   1   6
BRANCH   1  16
ATOM     16  C   UNL     1       2.587   6.034  18.407  0.00  0.00    +0.000 C 
BRANCH  16  17
ATOM     17  C   UNL     1       3.917   5.747  17.715  0.00  0.00    +0.000 A 
ATOM     18  C   UNL     1       4.035   4.593  16.916  0.00  0.00    +0.000 A 
ATOM     19  C   UNL     1       5.228   4.288  16.259  0.00  0.00    +0.000 A 
ATOM     20  C   UNL     1       6.326   5.135  16.385  0.00  0.00    +0.000 A 
ATOM     21  C   UNL     1       6.229   6.273  17.181  0.00  0.00    +0.000 A 
ATOM     22 CL   UNL     1       7.585   7.325  17.325  0.00  0.00    +0.000 Cl
ATOM     23  C   UNL     1       5.044   6.574  17.855  0.00  0.00    +0.000 A 
ENDBRANCH  16  17
BRANCH  16  24
ATOM     24  C   UNL     1       2.130   4.838  19.262  0.00  0.00    +0.000 A 
ATOM     25  C   UNL     1       2.592   4.769  20.581  0.00  0.00    +0.000 A 
ATOM     26  C   UNL     1       2.141   3.752  21.420  0.00  0.00    +0.000 A 
ATOM     27  C   UNL     1       1.250   2.817  20.915  0.00  0.00    +0.000 A 
ATOM     28  C   UNL     1       0.845   2.939  19.596  0.00  0.00    +0.000 A 
ATOM     29  N   UNL     1       1.256   3.925  18.755  0.00  0.00    +0.000 NA
ENDBRANCH  16  24
ENDBRANCH   1  16
TORSDOF 6
ENDMDL
MODEL 2
REMARK VINA RESULT:      -8.0      1.008      1.497
REMARK  Name = 
REMARK  7 active torsions:
REMARK  status: ('A' for Active; 'I' for Inactive)
REMARK    1  A    between atoms: C_1  and  S_2
REMARK    2  A    between atoms: S_2  and  C_5
REMARK    3  A    between atoms: C_8  and  N_9
REMARK    4  A    between atoms: N_9  and  C_10
REMARK    5  A    between atoms: C_10  and  C_11
REMARK    6  A    between atoms: C_10  and  C_18
REMARK    7  A    between atoms: C_24  and  N_25
REMARK                            x       y       z     vdW  Elec       q    Type
REMARK                         _______ _______ _______ _____ _____    ______ ____
ROOT
ATOM      1  N   UNL     1       2.843   7.247  18.937  0.00  0.00    +0.000 N 
ATOM      2  H   UNL     1       3.489   7.145  19.717  0.00  0.00    +0.000 HD
ENDROOT
BRANCH   1   6
ATOM      3  C   UNL     1       0.121  10.489  18.799  0.00  0.00    +0.000 A 
ATOM      4  C   UNL     1       0.876  10.107  17.693  0.00  0.00    +0.000 A 
ATOM      5  C   UNL     1       1.748   9.012  17.799  0.00  0.00    +0.000 A 
ATOM      6  C   UNL     1       1.917   8.272  18.994  0.00  0.00    +0.000 A 
ATOM      7  C   UNL     1       1.142   8.719  20.085  0.00  0.00    +0.000 A 
ATOM      8  C   UNL     1       0.235   9.791  19.993  0.00  0.00    +0.000 A 
BRANCH   3  10
ATOM      9  C   UNL     1      -2.120  11.349  17.400  0.00  0.00    +0.000 C 
ATOM     10  S   UNL     1      -1.017  11.845  18.700  0.00  0.00    +0.000 S 
ATOM     11  O   UNL     1      -0.270  12.998  18.245  0.00  0.00    +0.000 OA
ATOM     12  O   UNL     1      -1.765  11.879  19.943  0.00  0.00    +0.000 OA
ENDBRANCH   3  10
BRANCH   7  13
ATOM     13  N   UNL     1       1.233   8.145  21.410  0.00  0.00    +0.000 N 
ATOM     14  O   UNL     1       1.354   8.910  22.375  0.00  0.00    +0.000 OA
ATOM     15  O   UNL     1       1.218   6.906  21.478  0.00  0.00    +0.000 OA
ENDBRANCH   7  13
ENDBRANCH   1   6
BRANCH   1  16
ATOM     16  C   UNL     1       2.901   6.090  18.033  0.00  0.00    +0.000 C 
BRANCH  16  17
ATOM     17  C   UNL     1       4.297   5.917  17.442  0.00  0.00    +0.000 A 
ATOM     18  C   UNL     1       4.558   4.799  16.625  0.00  0.00    +0.000 A 
ATOM     19  C   UNL     1       5.815   4.596  16.057  0.00  0.00    +0.000 A 
ATOM     20  C   UNL     1       6.838   5.511  16.290  0.00  0.00    +0.000 A 
ATOM     21  C   UNL     1       6.601   6.615  17.105  0.00  0.00    +0.000 A 
ATOM     22 CL   UNL     1       7.864   7.752  17.382  0.00  0.00    +0.000 Cl
ATOM     23  C   UNL     1       5.350   6.814  17.691  0.00  0.00    +0.000 A 
ENDBRANCH  16  17
BRANCH  16  24
ATOM     24  C   UNL     1       2.417   4.799  18.718  0.00  0.00    +0.000 A 
ATOM     25  C   UNL     1       1.450   4.036  18.055  0.00  0.00    +0.000 A 
ATOM     26  C   UNL     1       1.041   2.818  18.594  0.00  0.00    +0.000 A 
ATOM     27  C   UNL     1       1.596   2.399  19.794  0.00  0.00    +0.000 A 
ATOM     28  C   UNL     1       2.539   3.211  20.402  0.00  0.00    +0.000 A 
ATOM     29  N   UNL     1       2.969   4.398  19.897  0.00  0.00    +0.000 NA
ENDBRANCH  16  24
ENDBRANCH   1  16
TORSDOF 6
ENDMDL
MODEL 3
REMARK VINA RESULT:      -8.0      2.755      4.698
REMARK  Name = 
REMARK  7 active torsions:
REMARK  status: ('A' for Active; 'I' for Inactive)
REMARK    1  A    between atoms: C_1  and  S_2
REMARK    2  A    between atoms: S_2  and  C_5
REMARK    3  A    between atoms: C_8  and  N_9
REMARK    4  A    between atoms: N_9  and  C_10
REMARK    5  A    between atoms: C_10  and  C_11
REMARK    6  A    between atoms: C_10  and  C_18
REMARK    7  A    between atoms: C_24  and  N_25
REMARK                            x       y       z     vdW  Elec       q    Type
REMARK                         _______ _______ _______ _____ _____    ______ ____
ROOT
ATOM      1  N   UNL     1       2.276   7.336  18.981  0.00  0.00    +0.000 N 
ATOM      2  H   UNL     1       2.326   7.376  17.965  0.00  0.00    +0.000 HD
ENDROOT
BRANCH   1   6
ATOM      3  C   UNL     1       0.274  10.327  21.215  0.00  0.00    +0.000 A 
ATOM      4  C   UNL     1       0.333   9.002  21.636  0.00  0.00    +0.000 A 
ATOM      5  C   UNL     1       1.027   8.061  20.859  0.00  0.00    +0.000 A 
ATOM      6  C   UNL     1       1.668   8.389  19.640  0.00  0.00    +0.000 A 
ATOM      7  C   UNL     1       1.556   9.742  19.255  0.00  0.00    +0.000 A 
ATOM      8  C   UNL     1       0.897  10.709  20.034  0.00  0.00    +0.000 A 
BRANCH   3  10
ATOM      9  C   UNL     1      -2.008  11.911  21.211  0.00  0.00    +0.000 C 
ATOM     10  S   UNL     1      -0.564  11.554  22.182  0.00  0.00    +0.000 S 
ATOM     11  O   UNL     1       0.275  12.733  22.197  0.00  0.00    +0.000 OA
ATOM     12  O   UNL     1      -0.992  10.921  23.416  0.00  0.00    +0.000 OA
ENDBRANCH   3  10
BRANCH   7  13
ATOM     13  N   UNL     1       2.074  10.255  18.004  0.00  0.00    +0.000 N 
ATOM     14  O   UNL     1       2.329  11.463  17.925  0.00  0.00    +0.000 OA
ATOM     15  O   UNL     1       2.192   9.437  17.078  0.00  0.00    +0.000 OA
ENDBRANCH   7  13
ENDBRANCH   1   6
BRANCH   1  16
ATOM     16  C   UNL     1       3.104   6.250  19.521  0.00  0.00    +0.000 C 
BRANCH  16  17
ATOM     17  C   UNL     1       2.326   4.940  19.595  0.00  0.00    +0.000 A 
ATOM     18  C   UNL     1       1.809   4.385  18.408  0.00  0.00    +0.000 A 
ATOM     19  C   UNL     1       1.093   3.188  18.421  0.00  0.00    +0.000 A 
ATOM     20  C   UNL     1       0.885   2.517  19.624  0.00  0.00    +0.000 A 
ATOM     21  C   UNL     1       1.379   3.057  20.808  0.00  0.00    +0.000 A 
ATOM     22 CL   UNL     1       1.131   2.220  22.292  0.00  0.00    +0.000 Cl
ATOM     23  C   UNL     1       2.080   4.265  20.803  0.00  0.00    +0.000 A 
ENDBRANCH  16  17
BRANCH  16  24
ATOM     24  C   UNL     1       4.415   6.080  18.731  0.00  0.00    +0.000 A 
ATOM     25  C   UNL     1       4.515   6.723  17.492  0.00  0.00    +0.000 A 
ATOM     26  C   UNL     1       5.710   6.667  16.779  0.00  0.00    +0.000 A 
ATOM     27  C   UNL     1       6.774   5.956  17.312  0.00  0.00    +0.000 A 
ATOM     28  C   UNL     1       6.600   5.333  18.537  0.00  0.00    +0.000 A 
ATOM     29  N   UNL     1       5.453   5.377  19.265  0.00  0.00    +0.000 NA
ENDBRANCH  16  24
ENDBRANCH   1  16
TORSDOF 6
ENDMDL
MODEL 4
REMARK VINA RESULT:      -7.9      1.293      1.831
REMARK  Name = 
REMARK  7 active torsions:
REMARK  status: ('A' for Active; 'I' for Inactive)
REMARK    1  A    between atoms: C_1  and  S_2
REMARK    2  A    between atoms: S_2  and  C_5
REMARK    3  A    between atoms: C_8  and  N_9
REMARK    4  A    between atoms: N_9  and  C_10
REMARK    5  A    between atoms: C_10  and  C_11
REMARK    6  A    between atoms: C_10  and  C_18
REMARK    7  A    between atoms: C_24  and  N_25
REMARK                            x       y       z     vdW  Elec       q    Type
REMARK                         _______ _______ _______ _____ _____    ______ ____
ROOT
ATOM      1  N   UNL     1       2.997   7.082  18.883  0.00  0.00    +0.000 N 
ATOM      2  H   UNL     1       3.605   6.917  19.683  0.00  0.00    +0.000 HD
ENDROOT
BRANCH   1   6
ATOM      3  C   UNL     1       0.499  10.500  18.757  0.00  0.00    +0.000 A 
ATOM      4  C   UNL     1       1.307  10.133  17.685  0.00  0.00    +0.000 A 
ATOM      5  C   UNL     1       2.100   8.978  17.783  0.00  0.00    +0.000 A 
ATOM      6  C   UNL     1       2.135   8.162  18.939  0.00  0.00    +0.000 A 
ATOM      7  C   UNL     1       1.311   8.596  19.999  0.00  0.00    +0.000 A 
ATOM      8  C   UNL     1       0.482   9.729  19.911  0.00  0.00    +0.000 A 
BRANCH   3  10
ATOM      9  C   UNL     1      -1.269  12.005  20.283  0.00  0.00    +0.000 C 
ATOM     10  S   UNL     1      -0.543  11.932  18.664  0.00  0.00    +0.000 S 
ATOM     11  O   UNL     1      -1.591  11.637  17.710  0.00  0.00    +0.000 OA
ATOM     12  O   UNL     1       0.318  13.089  18.499  0.00  0.00    +0.000 OA
ENDBRANCH   3  10
BRANCH   7  13
ATOM     13  N   UNL     1       1.271   7.942  21.290  0.00  0.00    +0.000 N 
ATOM     14  O   UNL     1       1.234   8.649  22.305  0.00  0.00    +0.000 OA
ATOM     15  O   UNL     1       1.311   6.703  21.283  0.00  0.00    +0.000 OA
ENDBRANCH   7  13
ENDBRANCH   1   6
BRANCH   1  16
ATOM     16  C   UNL     1       3.020   5.953  17.945  0.00  0.00    +0.000 C 
BRANCH  16  17
ATOM     17  C   UNL     1       4.391   5.796  17.295  0.00  0.00    +0.000 A 
ATOM     18  C   UNL     1       5.469   6.562  17.782  0.00  0.00    +0.000 A 
ATOM     19  C   UNL     1       6.743   6.453  17.226  0.00  0.00    +0.000 A 
ATOM     20  C   UNL     1       6.968   5.571  16.172  0.00  0.00    +0.000 A 
ATOM     21  C   UNL     1       5.911   4.815  15.670  0.00  0.00    +0.000 A 
ATOM     22 CL   UNL     1       6.194   3.716  14.375  0.00  0.00    +0.000 Cl
ATOM     23  C   UNL     1       4.630   4.933  16.211  0.00  0.00    +0.000 A 
ENDBRANCH  16  17
BRANCH  16  24
ATOM     24  C   UNL     1       2.562   4.642  18.611  0.00  0.00    +0.000 A 
ATOM     25  C   UNL     1       1.481   3.965  18.036  0.00  0.00    +0.000 A 
ATOM     26  C   UNL     1       1.082   2.734  18.551  0.00  0.00    +0.000 A 
ATOM     27  C   UNL     1       1.763   2.215  19.642  0.00  0.00    +0.000 A 
ATOM     28  C   UNL     1       2.815   2.946  20.169  0.00  0.00    +0.000 A 
ATOM     29  N   UNL     1       3.238   4.143  19.683  0.00  0.00    +0.000 NA
ENDBRANCH  16  24
ENDBRANCH   1  16
TORSDOF 6
ENDMDL
MODEL 5
REMARK VINA RESULT:      -7.9      1.374      1.657
REMARK  Name = 
REMARK  7 active torsions:
REMARK  status: ('A' for Active; 'I' for Inactive)
REMARK    1  A    between atoms: C_1  and  S_2
REMARK    2  A    between atoms: S_2  and  C_5
REMARK    3  A    between atoms: C_8  and  N_9
REMARK    4  A    between atoms: N_9  and  C_10
REMARK    5  A    between atoms: C_10  and  C_11
REMARK    6  A    between atoms: C_10  and  C_18
REMARK    7  A    between atoms: C_24  and  N_25
REMARK                            x       y       z     vdW  Elec       q    Type
REMARK                         _______ _______ _______ _____ _____    ______ ____
ROOT
ATOM      1  N   UNL     1       2.235   7.458  19.898  0.00  0.00    +0.000 N 
ATOM      2  H   UNL     1       2.664   7.330  20.813  0.00  0.00    +0.000 HD
ENDROOT
BRANCH   1   6
ATOM      3  C   UNL     1      -0.240  10.785  19.038  0.00  0.00    +0.000 A 
ATOM      4  C   UNL     1       0.437  10.088  18.042  0.00  0.00    +0.000 A 
ATOM      5  C   UNL     1       1.229   8.982  18.390  0.00  0.00    +0.000 A 
ATOM      6  C   UNL     1       1.392   8.540  19.725  0.00  0.00    +0.000 A 
ATOM      7  C   UNL     1       0.698   9.299  20.692  0.00  0.00    +0.000 A 
ATOM      8  C   UNL     1      -0.129  10.388  20.363  0.00  0.00    +0.000 A 
BRANCH   3  10
ATOM      9  C   UNL     1      -0.113  13.492  18.425  0.00  0.00    +0.000 C 
ATOM     10  S   UNL     1      -1.276  12.168  18.638  0.00  0.00    +0.000 S 
ATOM     11  O   UNL     1      -2.079  12.453  19.809  0.00  0.00    +0.000 OA
ATOM     12  O   UNL     1      -1.894  11.894  17.353  0.00  0.00    +0.000 OA
ENDBRANCH   3  10
BRANCH   7  13
ATOM     13  N   UNL     1       0.803   9.055  22.115  0.00  0.00    +0.000 N 
ATOM     14  O   UNL     1      -0.215   8.709  22.728  0.00  0.00    +0.000 OA
ATOM     15  O   UNL     1       1.915   9.247  22.628  0.00  0.00    +0.000 OA
ENDBRANCH   7  13
ENDBRANCH   1   6
BRANCH   1  16
ATOM     16  C   UNL     1       2.437   6.285  19.039  0.00  0.00    +0.000 C 
BRANCH  16  17
ATOM     17  C   UNL     1       3.854   6.247  18.473  0.00  0.00    +0.000 A 
ATOM     18  C   UNL     1       4.061   6.604  17.126  0.00  0.00    +0.000 A 
ATOM     19  C   UNL     1       5.336   6.590  16.562  0.00  0.00    +0.000 A 
ATOM     20  C   UNL     1       6.433   6.223  17.336  0.00  0.00    +0.000 A 
ATOM     21  C   UNL     1       6.246   5.855  18.666  0.00  0.00    +0.000 A 
ATOM     22 CL   UNL     1       7.606   5.413  19.624  0.00  0.00    +0.000 Cl
ATOM     23  C   UNL     1       4.969   5.850  19.231  0.00  0.00    +0.000 A 
ENDBRANCH  16  17
BRANCH  16  24
ATOM     24  C   UNL     1       2.087   4.972  19.764  0.00  0.00    +0.000 A 
ATOM     25  C   UNL     1       1.563   3.926  18.997  0.00  0.00    +0.000 A 
ATOM     26  C   UNL     1       1.308   2.692  19.591  0.00  0.00    +0.000 A 
ATOM     27  C   UNL     1       1.568   2.537  20.945  0.00  0.00    +0.000 A 
ATOM     28  C   UNL     1       2.074   3.619  21.645  0.00  0.00    +0.000 A 
ATOM     29  N   UNL     1       2.345   4.832  21.094  0.00  0.00    +0.000 NA
ENDBRANCH  16  24
ENDBRANCH   1  16
TORSDOF 6
ENDMDL
MODEL 6
REMARK VINA RESULT:      -7.9      0.742      1.048
REMARK  Name = 
REMARK  7 active torsions:
REMARK  status: ('A' for Active; 'I' for Inactive)
REMARK    1  A    between atoms: C_1  and  S_2
REMARK    2  A    between atoms: S_2  and  C_5
REMARK    3  A    between atoms: C_8  and  N_9
REMARK    4  A    between atoms: N_9  and  C_10
REMARK    5  A    between atoms: C_10  and  C_11
REMARK    6  A    between atoms: C_10  and  C_18
REMARK    7  A    between atoms: C_24  and  N_25
REMARK                            x       y       z     vdW  Elec       q    Type
REMARK                         _______ _______ _______ _____ _____    ______ ____
ROOT
ATOM      1  N   UNL     1       2.741   7.265  19.035  0.00  0.00    +0.000 N 
ATOM      2  H   UNL     1       3.419   7.207  19.792  0.00  0.00    +0.000 HD
ENDROOT
BRANCH   1   6
ATOM      3  C   UNL     1       0.048  10.526  18.804  0.00  0.00    +0.000 A 
ATOM      4  C   UNL     1       0.767  10.079  17.699  0.00  0.00    +0.000 A 
ATOM      5  C   UNL     1       1.631   8.981  17.837  0.00  0.00    +0.000 A 
ATOM      6  C   UNL     1       1.826   8.302  19.064  0.00  0.00    +0.000 A 
ATOM      7  C   UNL     1       1.087   8.813  20.151  0.00  0.00    +0.000 A 
ATOM      8  C   UNL     1       0.189   9.889  20.029  0.00  0.00    +0.000 A 
BRANCH   3  10
ATOM      9  C   UNL     1       0.000  13.278  18.433  0.00  0.00    +0.000 C 
ATOM     10  S   UNL     1      -1.079  11.888  18.667  0.00  0.00    +0.000 S 
ATOM     11  O   UNL     1      -1.734  12.032  19.950  0.00  0.00    +0.000 OA
ATOM     12  O   UNL     1      -1.847  11.699  17.449  0.00  0.00    +0.000 OA
ENDBRANCH   3  10
BRANCH   7  13
ATOM     13  N   UNL     1       1.211   8.307  21.502  0.00  0.00    +0.000 N 
ATOM     14  O   UNL     1       1.444   9.113  22.412  0.00  0.00    +0.000 OA
ATOM     15  O   UNL     1       1.106   7.079  21.643  0.00  0.00    +0.000 OA
ENDBRANCH   7  13
ENDBRANCH   1   6
BRANCH   1  16
ATOM     16  C   UNL     1       2.750   6.052  18.207  0.00  0.00    +0.000 C 
BRANCH  16  17
ATOM     17  C   UNL     1       4.123   5.813  17.584  0.00  0.00    +0.000 A 
ATOM     18  C   UNL     1       4.330   4.653  16.813  0.00  0.00    +0.000 A 
ATOM     19  C   UNL     1       5.564   4.390  16.219  0.00  0.00    +0.000 A 
ATOM     20  C   UNL     1       6.617   5.288  16.380  0.00  0.00    +0.000 A 
ATOM     21  C   UNL     1       6.433   6.434  17.149  0.00  0.00    +0.000 A 
ATOM     22 CL   UNL     1       7.732   7.548  17.337  0.00  0.00    +0.000 Cl
ATOM     23  C   UNL     1       5.205   6.692  17.761  0.00  0.00    +0.000 A 
ENDBRANCH  16  17
BRANCH  16  24
ATOM     24  C   UNL     1       2.267   4.817  18.990  0.00  0.00    +0.000 A 
ATOM     25  C   UNL     1       2.788   4.617  20.273  0.00  0.00    +0.000 A 
ATOM     26  C   UNL     1       2.321   3.561  21.053  0.00  0.00    +0.000 A 
ATOM     27  C   UNL     1       1.354   2.719  20.525  0.00  0.00    +0.000 A 
ATOM     28  C   UNL     1       0.893   2.968  19.243  0.00  0.00    +0.000 A 
ATOM     29  N   UNL     1       1.318   3.995  18.460  0.00  0.00    +0.000 NA
ENDBRANCH  16  24
ENDBRANCH   1  16
TORSDOF 6
ENDMDL
MODEL 7
REMARK VINA RESULT:      -7.9      0.887      1.017
REMARK  Name = 
REMARK  7 active torsions:
REMARK  status: ('A' for Active; 'I' for Inactive)
REMARK    1  A    between atoms: C_1  and  S_2
REMARK    2  A    between atoms: S_2  and  C_5
REMARK    3  A    between atoms: C_8  and  N_9
REMARK    4  A    between atoms: N_9  and  C_10
REMARK    5  A    between atoms: C_10  and  C_11
REMARK    6  A    between atoms: C_10  and  C_18
REMARK    7  A    between atoms: C_24  and  N_25
REMARK                            x       y       z     vdW  Elec       q    Type
REMARK                         _______ _______ _______ _____ _____    ______ ____
ROOT
ATOM      1  N   UNL     1       2.782   7.141  18.956  0.00  0.00    +0.000 N 
ATOM      2  H   UNL     1       3.359   6.947  19.772  0.00  0.00    +0.000 HD
ENDROOT
BRANCH   1   6
ATOM      3  C   UNL     1       0.277  10.554  18.825  0.00  0.00    +0.000 A 
ATOM      4  C   UNL     1       1.022  10.139  17.726  0.00  0.00    +0.000 A 
ATOM      5  C   UNL     1       1.820   8.989  17.828  0.00  0.00    +0.000 A 
ATOM      6  C   UNL     1       1.923   8.224  19.015  0.00  0.00    +0.000 A 
ATOM      7  C   UNL     1       1.162   8.705  20.101  0.00  0.00    +0.000 A 
ATOM      8  C   UNL     1       0.328   9.835  20.011  0.00  0.00    +0.000 A 
BRANCH   3  10
ATOM      9  C   UNL     1      -1.987  11.507  17.529  0.00  0.00    +0.000 C 
ATOM     10  S   UNL     1      -0.769  11.983  18.730  0.00  0.00    +0.000 S 
ATOM     11  O   UNL     1       0.023  13.057  18.172  0.00  0.00    +0.000 OA
ATOM     12  O   UNL     1      -1.430  12.127  20.015  0.00  0.00    +0.000 OA
ENDBRANCH   3  10
BRANCH   7  13
ATOM     13  N   UNL     1       1.197   8.109  21.419  0.00  0.00    +0.000 N 
ATOM     14  O   UNL     1       1.195   6.875  21.506  0.00  0.00    +0.000 OA
ATOM     15  O   UNL     1       1.192   8.893  22.380  0.00  0.00    +0.000 OA
ENDBRANCH   7  13
ENDBRANCH   1   6
BRANCH   1  16
ATOM     16  C   UNL     1       2.833   6.041  17.985  0.00  0.00    +0.000 C 
BRANCH  16  17
ATOM     17  C   UNL     1       4.234   5.880  17.401  0.00  0.00    +0.000 A 
ATOM     18  C   UNL     1       4.500   4.779  16.563  0.00  0.00    +0.000 A 
ATOM     19  C   UNL     1       5.763   4.587  16.001  0.00  0.00    +0.000 A 
ATOM     20  C   UNL     1       6.783   5.498  16.261  0.00  0.00    +0.000 A 
ATOM     21  C   UNL     1       6.540   6.585  17.096  0.00  0.00    +0.000 A 
ATOM     22 CL   UNL     1       7.801   7.715  17.407  0.00  0.00    +0.000 Cl
ATOM     23  C   UNL     1       5.284   6.771  17.676  0.00  0.00    +0.000 A 
ENDBRANCH  16  17
BRANCH  16  24
ATOM     24  C   UNL     1       2.318   4.720  18.584  0.00  0.00    +0.000 A 
ATOM     25  C   UNL     1       2.789   4.354  19.850  0.00  0.00    +0.000 A 
ATOM     26  C   UNL     1       2.291   3.211  20.470  0.00  0.00    +0.000 A 
ATOM     27  C   UNL     1       1.344   2.448  19.802  0.00  0.00    +0.000 A 
ATOM     28  C   UNL     1       0.933   2.862  18.545  0.00  0.00    +0.000 A 
ATOM     29  N   UNL     1       1.390   3.979  17.917  0.00  0.00    +0.000 NA
ENDBRANCH  16  24
ENDBRANCH   1  16
TORSDOF 6
ENDMDL
MODEL 8
REMARK VINA RESULT:      -7.9      1.525      1.978
REMARK  Name = 
REMARK  7 active torsions:
REMARK  status: ('A' for Active; 'I' for Inactive)
REMARK    1  A    between atoms: C_1  and  S_2
REMARK    2  A    between atoms: S_2  and  C_5
REMARK    3  A    between atoms: C_8  and  N_9
REMARK    4  A    between atoms: N_9  and  C_10
REMARK    5  A    between atoms: C_10  and  C_11
REMARK    6  A    between atoms: C_10  and  C_18
REMARK    7  A    between atoms: C_24  and  N_25
REMARK                            x       y       z     vdW  Elec       q    Type
REMARK                         _______ _______ _______ _____ _____    ______ ____
ROOT
ATOM      1  N   UNL     1       3.148   7.043  18.788  0.00  0.00    +0.000 N 
ATOM      2  H   UNL     1       3.829   6.921  19.535  0.00  0.00    +0.000 HD
ENDROOT
BRANCH   1   6
ATOM      3  C   UNL     1       0.504  10.352  18.857  0.00  0.00    +0.000 A 
ATOM      4  C   UNL     1       1.325  10.083  17.767  0.00  0.00    +0.000 A 
ATOM      5  C   UNL     1       2.167   8.959  17.798  0.00  0.00    +0.000 A 
ATOM      6  C   UNL     1       2.239   8.080  18.905  0.00  0.00    +0.000 A 
ATOM      7  C   UNL     1       1.399   8.416  19.988  0.00  0.00    +0.000 A 
ATOM      8  C   UNL     1       0.522   9.515  19.964  0.00  0.00    +0.000 A 
BRANCH   3  10
ATOM      9  C   UNL     1      -1.866  11.236  17.709  0.00  0.00    +0.000 C 
ATOM     10  S   UNL     1      -0.599  11.740  18.846  0.00  0.00    +0.000 S 
ATOM     11  O   UNL     1       0.119  12.852  18.261  0.00  0.00    +0.000 OA
ATOM     12  O   UNL     1      -1.189  11.841  20.169  0.00  0.00    +0.000 OA
ENDBRANCH   3  10
BRANCH   7  13
ATOM     13  N   UNL     1       1.388   7.687  21.239  0.00  0.00    +0.000 N 
ATOM     14  O   UNL     1       1.453   6.452  21.200  0.00  0.00    +0.000 OA
ATOM     15  O   UNL     1       1.278   8.365  22.272  0.00  0.00    +0.000 OA
ENDBRANCH   7  13
ENDBRANCH   1   6
BRANCH   1  16
ATOM     16  C   UNL     1       3.147   5.901  17.864  0.00  0.00    +0.000 C 
BRANCH  16  17
ATOM     17  C   UNL     1       4.514   5.711  17.214  0.00  0.00    +0.000 A 
ATOM     18  C   UNL     1       5.616   6.430  17.718  0.00  0.00    +0.000 A 
ATOM     19  C   UNL     1       6.887   6.289  17.162  0.00  0.00    +0.000 A 
ATOM     20  C   UNL     1       7.084   5.421  16.091  0.00  0.00    +0.000 A 
ATOM     21  C   UNL     1       6.003   4.712  15.573  0.00  0.00    +0.000 A 
ATOM     22 CL   UNL     1       6.251   3.630  14.256  0.00  0.00    +0.000 Cl
ATOM     23  C   UNL     1       4.725   4.863  16.114  0.00  0.00    +0.000 A 
ENDBRANCH  16  17
BRANCH  16  24
ATOM     24  C   UNL     1       2.666   4.608  18.548  0.00  0.00    +0.000 A 
ATOM     25  C   UNL     1       1.506   4.004  18.052  0.00  0.00    +0.000 A 
ATOM     26  C   UNL     1       1.077   2.789  18.582  0.00  0.00    +0.000 A 
ATOM     27  C   UNL     1       1.809   2.214  19.609  0.00  0.00    +0.000 A 
ATOM     28  C   UNL     1       2.940   2.874  20.061  0.00  0.00    +0.000 A 
ATOM     29  N   UNL     1       3.393   4.053  19.558  0.00  0.00    +0.000 NA
ENDBRANCH  16  24
ENDBRANCH   1  16
TORSDOF 6
ENDMDL
MODEL 9
REMARK VINA RESULT:      -7.8      1.273      1.718
REMARK  Name = 
REMARK  7 active torsions:
REMARK  status: ('A' for Active; 'I' for Inactive)
REMARK    1  A    between atoms: C_1  and  S_2
REMARK    2  A    between atoms: S_2  and  C_5
REMARK    3  A    between atoms: C_8  and  N_9
REMARK    4  A    between atoms: N_9  and  C_10
REMARK    5  A    between atoms: C_10  and  C_11
REMARK    6  A    between atoms: C_10  and  C_18
REMARK    7  A    between atoms: C_24  and  N_25
REMARK                            x       y       z     vdW  Elec       q    Type
REMARK                         _______ _______ _______ _____ _____    ______ ____
ROOT
ATOM      1  N   UNL     1       2.720   7.391  19.099  0.00  0.00    +0.000 N 
ATOM      2  H   UNL     1       3.354   7.338  19.894  0.00  0.00    +0.000 HD
ENDROOT
BRANCH   1   6
ATOM      3  C   UNL     1      -0.090  10.539  18.740  0.00  0.00    +0.000 A 
ATOM      4  C   UNL     1       0.555   9.992  17.635  0.00  0.00    +0.000 A 
ATOM      5  C   UNL     1       1.463   8.938  17.819  0.00  0.00    +0.000 A 
ATOM      6  C   UNL     1       1.776   8.402  19.091  0.00  0.00    +0.000 A 
ATOM      7  C   UNL     1       1.107   9.011  20.174  0.00  0.00    +0.000 A 
ATOM      8  C   UNL     1       0.167  10.044  20.011  0.00  0.00    +0.000 A 
BRANCH   3  10
ATOM      9  C   UNL     1      -2.287  11.281  17.211  0.00  0.00    +0.000 C 
ATOM     10  S   UNL     1      -1.270  11.850  18.550  0.00  0.00    +0.000 S 
ATOM     11  O   UNL     1      -0.542  13.018  18.103  0.00  0.00    +0.000 OA
ATOM     12  O   UNL     1      -2.081  11.886  19.754  0.00  0.00    +0.000 OA
ENDBRANCH   3  10
BRANCH   7  13
ATOM     13  N   UNL     1       1.353   8.659  21.557  0.00  0.00    +0.000 N 
ATOM     14  O   UNL     1       1.306   7.464  21.876  0.00  0.00    +0.000 OA
ATOM     15  O   UNL     1       1.562   9.600  22.338  0.00  0.00    +0.000 OA
ENDBRANCH   7  13
ENDBRANCH   1   6
BRANCH   1  16
ATOM     16  C   UNL     1       2.812   6.193  18.254  0.00  0.00    +0.000 C 
BRANCH  16  17
ATOM     17  C   UNL     1       4.265   5.828  17.963  0.00  0.00    +0.000 A 
ATOM     18  C   UNL     1       5.156   5.662  19.041  0.00  0.00    +0.000 A 
ATOM     19  C   UNL     1       6.493   5.324  18.829  0.00  0.00    +0.000 A 
ATOM     20  C   UNL     1       6.964   5.140  17.532  0.00  0.00    +0.000 A 
ATOM     21  C   UNL     1       6.100   5.312  16.454  0.00  0.00    +0.000 A 
ATOM     22 CL   UNL     1       6.683   5.073  14.852  0.00  0.00    +0.000 Cl
ATOM     23  C   UNL     1       4.766   5.668  16.660  0.00  0.00    +0.000 A 
ENDBRANCH  16  17
BRANCH  16  24
ATOM     24  C   UNL     1       2.044   5.002  18.857  0.00  0.00    +0.000 A 
ATOM     25  C   UNL     1       1.649   3.978  17.989  0.00  0.00    +0.000 A 
ATOM     26  C   UNL     1       1.026   2.842  18.498  0.00  0.00    +0.000 A 
ATOM     27  C   UNL     1       0.795   2.762  19.864  0.00  0.00    +0.000 A 
ATOM     28  C   UNL     1       1.201   3.819  20.662  0.00  0.00    +0.000 A 
ATOM     29  N   UNL     1       1.822   4.936  20.199  0.00  0.00    +0.000 NA
ENDBRANCH  16  24
ENDBRANCH   1  16
TORSDOF 6
ENDMDL
