MODEL 1
REMARK VINA RESULT:      -7.5      0.000      0.000
REMARK  Name = 
REMARK  7 active torsions:
REMARK  status: ('A' for Active; 'I' for Inactive)
REMARK    1  A    between atoms: C_1  and  N_2
REMARK    2  A    between atoms: N_2  and  C_3
REMARK    3  A    between atoms: N_2  and  C_15
REMARK    4  A    between atoms: C_3  and  C_4
REMARK    5  A    between atoms: C_5  and  C_6
REMARK    6  A    between atoms: C_11  and  N_12
REMARK    7  A    between atoms: C_15  and  C_16
REMARK                            x       y       z     vdW  Elec       q    Type
REMARK                         _______ _______ _______ _____ _____    ______ ____
ROOT
ATOM      1  C   UNL     1       7.364   5.961  18.752  0.00  0.00    +0.000 C 
ATOM      2  N   UNL     1       6.867   6.977  17.816  0.00  0.00    +0.000 NA
ENDROOT
BRANCH   2   3
ATOM      3  C   UNL     1       7.912   7.915  17.364  0.00  0.00    +0.000 C 
BRANCH   3   4
ATOM      4  C   UNL     1       8.348   8.846  18.462  0.00  0.00    +0.000 C 
ATOM      5  C   UNL     1       8.890  10.058  18.214  0.00  0.00    +0.000 C 
BRANCH   5   6
ATOM      6  C   UNL     1       9.347  10.985  19.306  0.00  0.00    +0.000 A 
ATOM      7  C   UNL     1       8.827  10.777  20.608  0.00  0.00    +0.000 A 
ATOM      8  C   UNL     1       9.220  11.576  21.679  0.00  0.00    +0.000 A 
ATOM      9  C   UNL     1      10.127  12.605  21.487  0.00  0.00    +0.000 A 
ATOM     10  C   UNL     1      10.663  12.841  20.225  0.00  0.00    +0.000 A 
ATOM     11  C   UNL     1      10.294  12.050  19.114  0.00  0.00    +0.000 A 
BRANCH  11  12
ATOM     12  N   UNL     1      10.876  12.390  17.838  0.00  0.00    +0.000 N 
ATOM     13  O   UNL     1      11.882  11.881  17.451  0.00  0.00    +0.000 OA
ATOM     14  O   UNL     1      10.252  13.215  17.028  0.00  0.00    +0.000 OA
ENDBRANCH  11  12
ENDBRANCH   5   6
ENDBRANCH   3   4
ENDBRANCH   2   3
BRANCH   2  15
ATOM     15  C   UNL     1       6.172   6.364  16.667  0.00  0.00    +0.000 C 
BRANCH  15  16
ATOM     16  C   UNL     1       4.786   5.925  17.042  0.00  0.00    +0.000 A 
ATOM     17  C   UNL     1       3.878   6.771  17.715  0.00  0.00    +0.000 A 
ATOM     18  C   UNL     1       2.688   6.241  18.245  0.00  0.00    +0.000 A 
ATOM     19  C   UNL     1       2.438   4.868  18.125  0.00  0.00    +0.000 A 
ATOM     20  C   UNL     1       3.323   4.058  17.400  0.00  0.00    +0.000 A 
ATOM     21  C   UNL     1       4.470   4.580  16.857  0.00  0.00    +0.000 A 
ATOM     22  O   UNL     1       3.106   2.734  17.342  0.00  0.00    +0.000 OA
ATOM     23  C   UNL     1       2.594   2.166  18.481  0.00  0.00    +0.000 C 
ATOM     24  C   UNL     1       1.284   2.881  18.879  0.00  0.00    +0.000 C 
ATOM     25  O   UNL     1       1.383   4.270  18.739  0.00  0.00    +0.000 OA
ENDBRANCH  15  16
ENDBRANCH   2  15
TORSDOF 6
ENDMDL
MODEL 2
REMARK VINA RESULT:      -7.3      5.205      7.792
REMARK  Name = 
REMARK  7 active torsions:
REMARK  status: ('A' for Active; 'I' for Inactive)
REMARK    1  A    between atoms: C_1  and  N_2
REMARK    2  A    between atoms: N_2  and  C_3
REMARK    3  A    between atoms: N_2  and  C_15
REMARK    4  A    between atoms: C_3  and  C_4
REMARK    5  A    between atoms: C_5  and  C_6
REMARK    6  A    between atoms: C_11  and  N_12
REMARK    7  A    between atoms: C_15  and  C_16
REMARK                            x       y       z     vdW  Elec       q    Type
REMARK                         _______ _______ _______ _____ _____    ______ ____
ROOT
ATOM      1  C   UNL     1       2.471   6.771  18.113  0.00  0.00    +0.000 C 
ATOM      2  N   UNL     1       3.063   6.222  19.339  0.00  0.00    +0.000 NA
ENDROOT
BRANCH   2   3
ATOM      3  C   UNL     1       2.121   6.179  20.474  0.00  0.00    +0.000 C 
BRANCH   3   4
ATOM      4  C   UNL     1       1.644   7.550  20.864  0.00  0.00    +0.000 C 
ATOM      5  C   UNL     1       0.336   7.846  21.020  0.00  0.00    +0.000 C 
BRANCH   5   6
ATOM      6  C   UNL     1      -0.151   9.221  21.389  0.00  0.00    +0.000 A 
ATOM      7  C   UNL     1      -0.499   9.455  22.742  0.00  0.00    +0.000 A 
ATOM      8  C   UNL     1      -0.933  10.707  23.170  0.00  0.00    +0.000 A 
ATOM      9  C   UNL     1      -1.044  11.754  22.270  0.00  0.00    +0.000 A 
ATOM     10  C   UNL     1      -0.709  11.566  20.932  0.00  0.00    +0.000 A 
ATOM     11  C   UNL     1      -0.260  10.312  20.460  0.00  0.00    +0.000 A 
BRANCH  11  12
ATOM     12  N   UNL     1       0.032  10.203  19.051  0.00  0.00    +0.000 N 
ATOM     13  O   UNL     1      -0.832  10.094  18.237  0.00  0.00    +0.000 OA
ATOM     14  O   UNL     1       1.270  10.312  18.624  0.00  0.00    +0.000 OA
ENDBRANCH  11  12
ENDBRANCH   5   6
ENDBRANCH   3   4
ENDBRANCH   2   3
BRANCH   2  15
ATOM     15  C   UNL     1       3.673   4.898  19.105  0.00  0.00    +0.000 C 
BRANCH  15  16
ATOM     16  C   UNL     1       4.870   5.003  18.205  0.00  0.00    +0.000 A 
ATOM     17  C   UNL     1       5.781   6.080  18.276  0.00  0.00    +0.000 A 
ATOM     18  C   UNL     1       6.745   6.248  17.267  0.00  0.00    +0.000 A 
ATOM     19  C   UNL     1       6.764   5.360  16.183  0.00  0.00    +0.000 A 
ATOM     20  C   UNL     1       5.892   4.264  16.164  0.00  0.00    +0.000 A 
ATOM     21  C   UNL     1       4.970   4.081  17.164  0.00  0.00    +0.000 A 
ATOM     22  O   UNL     1       5.877   3.454  15.094  0.00  0.00    +0.000 OA
ATOM     23  C   UNL     1       6.071   4.067  13.882  0.00  0.00    +0.000 C 
ATOM     24  C   UNL     1       7.397   4.861  13.904  0.00  0.00    +0.000 C 
ATOM     25  O   UNL     1       7.571   5.553  15.106  0.00  0.00    +0.000 OA
ENDBRANCH  15  16
ENDBRANCH   2  15
TORSDOF 6
ENDMDL
MODEL 3
REMARK VINA RESULT:      -7.2      4.325      6.393
REMARK  Name = 
REMARK  7 active torsions:
REMARK  status: ('A' for Active; 'I' for Inactive)
REMARK    1  A    between atoms: C_1  and  N_2
REMARK    2  A    between atoms: N_2  and  C_3
REMARK    3  A    between atoms: N_2  and  C_15
REMARK    4  A    between atoms: C_3  and  C_4
REMARK    5  A    between atoms: C_5  and  C_6
REMARK    6  A    between atoms: C_11  and  N_12
REMARK    7  A    between atoms: C_15  and  C_16
REMARK                            x       y       z     vdW  Elec       q    Type
REMARK                         _______ _______ _______ _____ _____    ______ ____
ROOT
ATOM      1  C   UNL     1       1.364   1.809  19.275  0.00  0.00    +0.000 C 
ATOM      2  N   UNL     1       2.306   2.931  19.378  0.00  0.00    +0.000 NA
ENDROOT
BRANCH   2   3
ATOM      3  C   UNL     1       3.718   2.518  19.281  0.00  0.00    +0.000 C 
BRANCH   3   4
ATOM      4  C   UNL     1       4.649   3.697  19.229  0.00  0.00    +0.000 C 
ATOM      5  C   UNL     1       5.318   4.046  18.108  0.00  0.00    +0.000 C 
BRANCH   5   6
ATOM      6  C   UNL     1       6.266   5.211  18.054  0.00  0.00    +0.000 A 
ATOM      7  C   UNL     1       7.112   5.425  19.171  0.00  0.00    +0.000 A 
ATOM      8  C   UNL     1       8.036   6.467  19.189  0.00  0.00    +0.000 A 
ATOM      9  C   UNL     1       8.140   7.327  18.109  0.00  0.00    +0.000 A 
ATOM     10  C   UNL     1       7.330   7.150  16.991  0.00  0.00    +0.000 A 
ATOM     11  C   UNL     1       6.383   6.103  16.933  0.00  0.00    +0.000 A 
BRANCH  11  12
ATOM     12  N   UNL     1       5.565   6.018  15.748  0.00  0.00    +0.000 N 
ATOM     13  O   UNL     1       5.057   6.981  15.264  0.00  0.00    +0.000 OA
ATOM     14  O   UNL     1       5.433   4.871  15.119  0.00  0.00    +0.000 OA
ENDBRANCH  11  12
ENDBRANCH   5   6
ENDBRANCH   3   4
ENDBRANCH   2   3
BRANCH   2  15
ATOM     15  C   UNL     1       1.995   3.994  18.401  0.00  0.00    +0.000 C 
BRANCH  15  16
ATOM     16  C   UNL     1       2.025   5.349  19.045  0.00  0.00    +0.000 A 
ATOM     17  C   UNL     1       1.621   5.564  20.381  0.00  0.00    +0.000 A 
ATOM     18  C   UNL     1       1.449   6.875  20.858  0.00  0.00    +0.000 A 
ATOM     19  C   UNL     1       1.649   7.953  19.986  0.00  0.00    +0.000 A 
ATOM     20  C   UNL     1       2.109   7.719  18.683  0.00  0.00    +0.000 A 
ATOM     21  C   UNL     1       2.306   6.440  18.225  0.00  0.00    +0.000 A 
ATOM     22  O   UNL     1       2.241   8.753  17.836  0.00  0.00    +0.000 OA
ATOM     23  C   UNL     1       1.295   9.741  17.954  0.00  0.00    +0.000 C 
ATOM     24  C   UNL     1       1.269  10.269  19.406  0.00  0.00    +0.000 C 
ATOM     25  O   UNL     1       1.359   9.233  20.341  0.00  0.00    +0.000 OA
ENDBRANCH  15  16
ENDBRANCH   2  15
TORSDOF 6
ENDMDL
MODEL 4
REMARK VINA RESULT:      -7.2      1.051      1.720
REMARK  Name = 
REMARK  7 active torsions:
REMARK  status: ('A' for Active; 'I' for Inactive)
REMARK    1  A    between atoms: C_1  and  N_2
REMARK    2  A    between atoms: N_2  and  C_3
REMARK    3  A    between atoms: N_2  and  C_15
REMARK    4  A    between atoms: C_3  and  C_4
REMARK    5  A    between atoms: C_5  and  C_6
REMARK    6  A    between atoms: C_11  and  N_12
REMARK    7  A    between atoms: C_15  and  C_16
REMARK                            x       y       z     vdW  Elec       q    Type
REMARK                         _______ _______ _______ _____ _____    ______ ____
ROOT
ATOM      1  C   UNL     1       7.826   5.667  18.604  0.00  0.00    +0.000 C 
ATOM      2  N   UNL     1       7.079   6.836  18.123  0.00  0.00    +0.000 NA
ENDROOT
BRANCH   2   3
ATOM      3  C   UNL     1       7.944   7.889  17.559  0.00  0.00    +0.000 C 
BRANCH   3   4
ATOM      4  C   UNL     1       8.352   8.900  18.595  0.00  0.00    +0.000 C 
ATOM      5  C   UNL     1       8.990  10.047  18.278  0.00  0.00    +0.000 C 
BRANCH   5   6
ATOM      6  C   UNL     1       9.420  11.053  19.310  0.00  0.00    +0.000 A 
ATOM      7  C   UNL     1       9.000  10.845  20.648  0.00  0.00    +0.000 A 
ATOM      8  C   UNL     1       9.377  11.716  21.667  0.00  0.00    +0.000 A 
ATOM      9  C   UNL     1      10.167  12.818  21.387  0.00  0.00    +0.000 A 
ATOM     10  C   UNL     1      10.603  13.057  20.087  0.00  0.00    +0.000 A 
ATOM     11  C   UNL     1      10.245  12.195  19.027  0.00  0.00    +0.000 A 
BRANCH  11  12
ATOM     12  N   UNL     1      10.716  12.541  17.707  0.00  0.00    +0.000 N 
ATOM     13  O   UNL     1      10.190  13.390  17.056  0.00  0.00    +0.000 OA
ATOM     14  O   UNL     1      11.802  11.980  17.226  0.00  0.00    +0.000 OA
ENDBRANCH  11  12
ENDBRANCH   5   6
ENDBRANCH   3   4
ENDBRANCH   2   3
BRANCH   2  15
ATOM     15  C   UNL     1       6.020   6.451  17.170  0.00  0.00    +0.000 C 
BRANCH  15  16
ATOM     16  C   UNL     1       5.164   5.350  17.724  0.00  0.00    +0.000 A 
ATOM     17  C   UNL     1       4.852   4.186  16.987  0.00  0.00    +0.000 A 
ATOM     18  C   UNL     1       3.866   3.302  17.460  0.00  0.00    +0.000 A 
ATOM     19  C   UNL     1       3.183   3.608  18.644  0.00  0.00    +0.000 A 
ATOM     20  C   UNL     1       3.551   4.735  19.391  0.00  0.00    +0.000 A 
ATOM     21  C   UNL     1       4.534   5.584  18.946  0.00  0.00    +0.000 A 
ATOM     22  O   UNL     1       2.851   5.053  20.491  0.00  0.00    +0.000 OA
ATOM     23  C   UNL     1       1.502   4.810  20.427  0.00  0.00    +0.000 C 
ATOM     24  C   UNL     1       1.254   3.326  20.075  0.00  0.00    +0.000 C 
ATOM     25  O   UNL     1       2.123   2.874  19.076  0.00  0.00    +0.000 OA
ENDBRANCH  15  16
ENDBRANCH   2  15
TORSDOF 6
ENDMDL
MODEL 5
REMARK VINA RESULT:      -7.2      5.559      7.982
REMARK  Name = 
REMARK  7 active torsions:
REMARK  status: ('A' for Active; 'I' for Inactive)
REMARK    1  A    between atoms: C_1  and  N_2
REMARK    2  A    between atoms: N_2  and  C_3
REMARK    3  A    between atoms: N_2  and  C_15
REMARK    4  A    between atoms: C_3  and  C_4
REMARK    5  A    between atoms: C_5  and  C_6
REMARK    6  A    between atoms: C_11  and  N_12
REMARK    7  A    between atoms: C_15  and  C_16
REMARK                            x       y       z     vdW  Elec       q    Type
REMARK                         _______ _______ _______ _____ _____    ______ ____
ROOT
ATOM      1  C   UNL     1       2.380   7.529  18.642  0.00  0.00    +0.000 C 
ATOM      2  N   UNL     1       2.574   6.610  19.770  0.00  0.00    +0.000 NA
ENDROOT
BRANCH   2   3
ATOM      3  C   UNL     1       1.571   6.778  20.839  0.00  0.00    +0.000 C 
BRANCH   3   4
ATOM      4  C   UNL     1       1.146   8.212  20.994  0.00  0.00    +0.000 C 
ATOM      5  C   UNL     1      -0.105   8.562  21.364  0.00  0.00    +0.000 C 
BRANCH   5   6
ATOM      6  C   UNL     1      -0.543   9.994  21.501  0.00  0.00    +0.000 A 
ATOM      7  C   UNL     1      -0.738  10.502  22.810  0.00  0.00    +0.000 A 
ATOM      8  C   UNL     1      -1.118  11.825  23.023  0.00  0.00    +0.000 A 
ATOM      9  C   UNL     1      -1.325  12.674  21.949  0.00  0.00    +0.000 A 
ATOM     10  C   UNL     1      -1.141  12.216  20.648  0.00  0.00    +0.000 A 
ATOM     11  C   UNL     1      -0.751  10.882  20.391  0.00  0.00    +0.000 A 
BRANCH  11  12
ATOM     12  N   UNL     1      -0.618  10.488  19.008  0.00  0.00    +0.000 N 
ATOM     13  O   UNL     1       0.438  10.479  18.457  0.00  0.00    +0.000 OA
ATOM     14  O   UNL     1      -1.662  10.042  18.346  0.00  0.00    +0.000 OA
ENDBRANCH  11  12
ENDBRANCH   5   6
ENDBRANCH   3   4
ENDBRANCH   2   3
BRANCH   2  15
ATOM     15  C   UNL     1       2.642   5.205  19.322  0.00  0.00    +0.000 C 
BRANCH  15  16
ATOM     16  C   UNL     1       3.962   4.905  18.673  0.00  0.00    +0.000 A 
ATOM     17  C   UNL     1       5.196   5.218  19.284  0.00  0.00    +0.000 A 
ATOM     18  C   UNL     1       6.386   5.130  18.541  0.00  0.00    +0.000 A 
ATOM     19  C   UNL     1       6.325   4.764  17.190  0.00  0.00    +0.000 A 
ATOM     20  C   UNL     1       5.097   4.398  16.622  0.00  0.00    +0.000 A 
ATOM     21  C   UNL     1       3.938   4.455  17.354  0.00  0.00    +0.000 A 
ATOM     22  O   UNL     1       5.039   4.107  15.312  0.00  0.00    +0.000 OA
ATOM     23  C   UNL     1       5.860   4.850  14.502  0.00  0.00    +0.000 C 
ATOM     24  C   UNL     1       7.322   4.731  14.988  0.00  0.00    +0.000 C 
ATOM     25  O   UNL     1       7.417   4.801  16.381  0.00  0.00    +0.000 OA
ENDBRANCH  15  16
ENDBRANCH   2  15
TORSDOF 6
ENDMDL
MODEL 6
REMARK VINA RESULT:      -7.1      1.778      2.053
REMARK  Name = 
REMARK  7 active torsions:
REMARK  status: ('A' for Active; 'I' for Inactive)
REMARK    1  A    between atoms: C_1  and  N_2
REMARK    2  A    between atoms: N_2  and  C_3
REMARK    3  A    between atoms: N_2  and  C_15
REMARK    4  A    between atoms: C_3  and  C_4
REMARK    5  A    between atoms: C_5  and  C_6
REMARK    6  A    between atoms: C_11  and  N_12
REMARK    7  A    between atoms: C_15  and  C_16
REMARK                            x       y       z     vdW  Elec       q    Type
REMARK                         _______ _______ _______ _____ _____    ______ ____
ROOT
ATOM      1  C   UNL     1       7.382   5.919  18.923  0.00  0.00    +0.000 C 
ATOM      2  N   UNL     1       7.001   6.938  17.937  0.00  0.00    +0.000 NA
ENDROOT
BRANCH   2   3
ATOM      3  C   UNL     1       8.124   7.804  17.530  0.00  0.00    +0.000 C 
BRANCH   3   4
ATOM      4  C   UNL     1       7.890   9.243  17.899  0.00  0.00    +0.000 C 
ATOM      5  C   UNL     1       8.835  10.195  17.741  0.00  0.00    +0.000 C 
BRANCH   5   6
ATOM      6  C   UNL     1       8.616  11.632  18.127  0.00  0.00    +0.000 A 
ATOM      7  C   UNL     1       7.856  12.443  17.248  0.00  0.00    +0.000 A 
ATOM      8  C   UNL     1       7.587  13.777  17.545  0.00  0.00    +0.000 A 
ATOM      9  C   UNL     1       8.070  14.343  18.713  0.00  0.00    +0.000 A 
ATOM     10  C   UNL     1       8.818  13.581  19.605  0.00  0.00    +0.000 A 
ATOM     11  C   UNL     1       9.109  12.224  19.341  0.00  0.00    +0.000 A 
BRANCH  11  12
ATOM     12  N   UNL     1       9.919  11.522  20.308  0.00  0.00    +0.000 N 
ATOM     13  O   UNL     1      11.094  11.701  20.390  0.00  0.00    +0.000 OA
ATOM     14  O   UNL     1       9.354  10.725  21.187  0.00  0.00    +0.000 OA
ENDBRANCH  11  12
ENDBRANCH   5   6
ENDBRANCH   3   4
ENDBRANCH   2   3
BRANCH   2  15
ATOM     15  C   UNL     1       6.339   6.339  16.762  0.00  0.00    +0.000 C 
BRANCH  15  16
ATOM     16  C   UNL     1       4.926   5.943  17.078  0.00  0.00    +0.000 A 
ATOM     17  C   UNL     1       4.009   6.824  17.690  0.00  0.00    +0.000 A 
ATOM     18  C   UNL     1       2.782   6.334  18.171  0.00  0.00    +0.000 A 
ATOM     19  C   UNL     1       2.503   4.965  18.065  0.00  0.00    +0.000 A 
ATOM     20  C   UNL     1       3.400   4.120  17.399  0.00  0.00    +0.000 A 
ATOM     21  C   UNL     1       4.585   4.602  16.902  0.00  0.00    +0.000 A 
ATOM     22  O   UNL     1       3.152   2.801  17.355  0.00  0.00    +0.000 OA
ATOM     23  C   UNL     1       2.572   2.268  18.479  0.00  0.00    +0.000 C 
ATOM     24  C   UNL     1       1.263   3.024  18.799  0.00  0.00    +0.000 C 
ATOM     25  O   UNL     1       1.404   4.406  18.639  0.00  0.00    +0.000 OA
ENDBRANCH  15  16
ENDBRANCH   2  15
TORSDOF 6
ENDMDL
MODEL 7
REMARK VINA RESULT:      -7.1      5.256      6.852
REMARK  Name = 
REMARK  7 active torsions:
REMARK  status: ('A' for Active; 'I' for Inactive)
REMARK    1  A    between atoms: C_1  and  N_2
REMARK    2  A    between atoms: N_2  and  C_3
REMARK    3  A    between atoms: N_2  and  C_15
REMARK    4  A    between atoms: C_3  and  C_4
REMARK    5  A    between atoms: C_5  and  C_6
REMARK    6  A    between atoms: C_11  and  N_12
REMARK    7  A    between atoms: C_15  and  C_16
REMARK                            x       y       z     vdW  Elec       q    Type
REMARK                         _______ _______ _______ _____ _____    ______ ____
ROOT
ATOM      1  C   UNL     1       6.101   7.224  17.121  0.00  0.00    +0.000 C 
ATOM      2  N   UNL     1       4.857   6.509  17.434  0.00  0.00    +0.000 NA
ENDROOT
BRANCH   2   3
ATOM      3  C   UNL     1       3.643   7.282  17.108  0.00  0.00    +0.000 C 
BRANCH   3   4
ATOM      4  C   UNL     1       2.855   7.638  18.338  0.00  0.00    +0.000 C 
ATOM      5  C   UNL     1       1.975   8.662  18.364  0.00  0.00    +0.000 C 
BRANCH   5   6
ATOM      6  C   UNL     1       1.198   9.038  19.596  0.00  0.00    +0.000 A 
ATOM      7  C   UNL     1       1.610   8.478  20.831  0.00  0.00    +0.000 A 
ATOM      8  C   UNL     1       0.959   8.795  22.021  0.00  0.00    +0.000 A 
ATOM      9  C   UNL     1      -0.119   9.664  22.017  0.00  0.00    +0.000 A 
ATOM     10  C   UNL     1      -0.553  10.238  20.826  0.00  0.00    +0.000 A 
ATOM     11  C   UNL     1       0.084   9.945  19.599  0.00  0.00    +0.000 A 
BRANCH  11  12
ATOM     12  N   UNL     1      -0.457  10.561  18.411  0.00  0.00    +0.000 N 
ATOM     13  O   UNL     1      -0.989   9.922  17.558  0.00  0.00    +0.000 OA
ATOM     14  O   UNL     1      -0.450  11.870  18.286  0.00  0.00    +0.000 OA
ENDBRANCH  11  12
ENDBRANCH   5   6
ENDBRANCH   3   4
ENDBRANCH   2   3
BRANCH   2  15
ATOM     15  C   UNL     1       4.823   5.175  16.803  0.00  0.00    +0.000 C 
BRANCH  15  16
ATOM     16  C   UNL     1       3.917   4.243  17.553  0.00  0.00    +0.000 A 
ATOM     17  C   UNL     1       2.756   3.683  16.976  0.00  0.00    +0.000 A 
ATOM     18  C   UNL     1       1.827   3.008  17.787  0.00  0.00    +0.000 A 
ATOM     19  C   UNL     1       2.053   2.931  19.168  0.00  0.00    +0.000 A 
ATOM     20  C   UNL     1       3.240   3.439  19.710  0.00  0.00    +0.000 A 
ATOM     21  C   UNL     1       4.163   4.072  18.915  0.00  0.00    +0.000 A 
ATOM     22  O   UNL     1       3.420   3.413  21.040  0.00  0.00    +0.000 OA
ATOM     23  C   UNL     1       2.295   3.628  21.796  0.00  0.00    +0.000 C 
ATOM     24  C   UNL     1       1.203   2.606  21.408  0.00  0.00    +0.000 C 
ATOM     25  O   UNL     1       1.126   2.423  20.023  0.00  0.00    +0.000 OA
ENDBRANCH  15  16
ENDBRANCH   2  15
TORSDOF 6
ENDMDL
MODEL 8
REMARK VINA RESULT:      -7.0      5.945      9.109
REMARK  Name = 
REMARK  7 active torsions:
REMARK  status: ('A' for Active; 'I' for Inactive)
REMARK    1  A    between atoms: C_1  and  N_2
REMARK    2  A    between atoms: N_2  and  C_3
REMARK    3  A    between atoms: N_2  and  C_15
REMARK    4  A    between atoms: C_3  and  C_4
REMARK    5  A    between atoms: C_5  and  C_6
REMARK    6  A    between atoms: C_11  and  N_12
REMARK    7  A    between atoms: C_15  and  C_16
REMARK                            x       y       z     vdW  Elec       q    Type
REMARK                         _______ _______ _______ _____ _____    ______ ____
ROOT
ATOM      1  C   UNL     1       0.407   9.443  19.909  0.00  0.00    +0.000 C 
ATOM      2  N   UNL     1       1.130  10.506  19.201  0.00  0.00    +0.000 NA
ENDROOT
BRANCH   2   3
ATOM      3  C   UNL     1       1.845  10.028  18.003  0.00  0.00    +0.000 C 
BRANCH   3   4
ATOM      4  C   UNL     1       1.944   8.528  17.966  0.00  0.00    +0.000 C 
ATOM      5  C   UNL     1       3.113   7.883  17.762  0.00  0.00    +0.000 C 
BRANCH   5   6
ATOM      6  C   UNL     1       3.216   6.383  17.703  0.00  0.00    +0.000 A 
ATOM      7  C   UNL     1       2.155   5.627  18.260  0.00  0.00    +0.000 A 
ATOM      8  C   UNL     1       2.162   4.235  18.222  0.00  0.00    +0.000 A 
ATOM      9  C   UNL     1       3.223   3.557  17.644  0.00  0.00    +0.000 A 
ATOM     10  C   UNL     1       4.284   4.263  17.084  0.00  0.00    +0.000 A 
ATOM     11  C   UNL     1       4.311   5.675  17.098  0.00  0.00    +0.000 A 
BRANCH  11  12
ATOM     12  N   UNL     1       5.467   6.319  16.523  0.00  0.00    +0.000 N 
ATOM     13  O   UNL     1       6.502   6.394  17.111  0.00  0.00    +0.000 OA
ATOM     14  O   UNL     1       5.428   6.765  15.288  0.00  0.00    +0.000 OA
ENDBRANCH  11  12
ENDBRANCH   5   6
ENDBRANCH   3   4
ENDBRANCH   2   3
BRANCH   2  15
ATOM     15  C   UNL     1       0.244  11.641  18.873  0.00  0.00    +0.000 C 
BRANCH  15  16
ATOM     16  C   UNL     1      -1.150  11.172  18.572  0.00  0.00    +0.000 A 
ATOM     17  C   UNL     1      -1.443  10.298  17.503  0.00  0.00    +0.000 A 
ATOM     18  C   UNL     1      -2.779  10.077  17.125  0.00  0.00    +0.000 A 
ATOM     19  C   UNL     1      -3.802  10.758  17.798  0.00  0.00    +0.000 A 
ATOM     20  C   UNL     1      -3.493  11.573  18.895  0.00  0.00    +0.000 A 
ATOM     21  C   UNL     1      -2.191  11.767  19.284  0.00  0.00    +0.000 A 
ATOM     22  O   UNL     1      -4.473  12.268  19.495  0.00  0.00    +0.000 OA
ATOM     23  C   UNL     1      -5.451  12.753  18.664  0.00  0.00    +0.000 C 
ATOM     24  C   UNL     1      -6.070  11.593  17.852  0.00  0.00    +0.000 C 
ATOM     25  O   UNL     1      -5.097  10.702  17.388  0.00  0.00    +0.000 OA
ENDBRANCH  15  16
ENDBRANCH   2  15
TORSDOF 6
ENDMDL
MODEL 9
REMARK VINA RESULT:      -7.0      6.804     10.424
REMARK  Name = 
REMARK  7 active torsions:
REMARK  status: ('A' for Active; 'I' for Inactive)
REMARK    1  A    between atoms: C_1  and  N_2
REMARK    2  A    between atoms: N_2  and  C_3
REMARK    3  A    between atoms: N_2  and  C_15
REMARK    4  A    between atoms: C_3  and  C_4
REMARK    5  A    between atoms: C_5  and  C_6
REMARK    6  A    between atoms: C_11  and  N_12
REMARK    7  A    between atoms: C_15  and  C_16
REMARK                            x       y       z     vdW  Elec       q    Type
REMARK                         _______ _______ _______ _____ _____    ______ ____
ROOT
ATOM      1  C   UNL     1       0.813   9.883  18.849  0.00  0.00    +0.000 C 
ATOM      2  N   UNL     1       0.381   9.893  20.252  0.00  0.00    +0.000 NA
ENDROOT
BRANCH   2   3
ATOM      3  C   UNL     1       0.982   8.811  21.055  0.00  0.00    +0.000 C 
BRANCH   3   4
ATOM      4  C   UNL     1       1.752   7.839  20.205  0.00  0.00    +0.000 C 
ATOM      5  C   UNL     1       1.841   6.525  20.505  0.00  0.00    +0.000 C 
BRANCH   5   6
ATOM      6  C   UNL     1       2.627   5.550  19.671  0.00  0.00    +0.000 A 
ATOM      7  C   UNL     1       3.430   6.073  18.627  0.00  0.00    +0.000 A 
ATOM      8  C   UNL     1       4.207   5.240  17.826  0.00  0.00    +0.000 A 
ATOM      9  C   UNL     1       4.202   3.871  18.031  0.00  0.00    +0.000 A 
ATOM     10  C   UNL     1       3.430   3.317  19.048  0.00  0.00    +0.000 A 
ATOM     11  C   UNL     1       2.631   4.129  19.884  0.00  0.00    +0.000 A 
BRANCH  11  12
ATOM     12  N   UNL     1       1.838   3.463  20.890  0.00  0.00    +0.000 N 
ATOM     13  O   UNL     1       0.829   2.892  20.617  0.00  0.00    +0.000 OA
ATOM     14  O   UNL     1       2.266   3.399  22.131  0.00  0.00    +0.000 OA
ENDBRANCH  11  12
ENDBRANCH   5   6
ENDBRANCH   3   4
ENDBRANCH   2   3
BRANCH   2  15
ATOM     15  C   UNL     1       0.606  11.209  20.882  0.00  0.00    +0.000 C 
BRANCH  15  16
ATOM     16  C   UNL     1      -0.660  11.748  21.482  0.00  0.00    +0.000 A 
ATOM     17  C   UNL     1      -1.016  11.527  22.830  0.00  0.00    +0.000 A 
ATOM     18  C   UNL     1      -2.310  11.852  23.274  0.00  0.00    +0.000 A 
ATOM     19  C   UNL     1      -3.240  12.361  22.359  0.00  0.00    +0.000 A 
ATOM     20  C   UNL     1      -2.847  12.629  21.042  0.00  0.00    +0.000 A 
ATOM     21  C   UNL     1      -1.576  12.340  20.613  0.00  0.00    +0.000 A 
ATOM     22  O   UNL     1      -3.761  13.060  20.157  0.00  0.00    +0.000 OA
ATOM     23  C   UNL     1      -5.018  12.527  20.295  0.00  0.00    +0.000 C 
ATOM     24  C   UNL     1      -5.537  12.775  21.729  0.00  0.00    +0.000 C 
ATOM     25  O   UNL     1      -4.545  12.556  22.689  0.00  0.00    +0.000 OA
ENDBRANCH  15  16
ENDBRANCH   2  15
TORSDOF 6
ENDMDL
