MODEL 1
REMARK VINA RESULT:      -8.2      0.000      0.000
REMARK  Name = 
REMARK  6 active torsions:
REMARK  status: ('A' for Active; 'I' for Inactive)
REMARK    1  A    between atoms: C_1  and  O_2
REMARK    2  A    between atoms: O_2  and  C_3
REMARK    3  A    between atoms: C_9  and  C_10
REMARK    4  A    between atoms: C_10  and  C_11
REMARK    5  A    between atoms: C_23  and  O_24
REMARK    6  A    between atoms: O_24  and  C_25
REMARK                            x       y       z     vdW  Elec       q    Type
REMARK                         _______ _______ _______ _____ _____    ______ ____
ROOT
ATOM      1  C   UNL     1       6.397   4.651  16.646  0.00  0.00    +0.000 A 
ATOM      2  C   UNL     1       5.234   3.910  16.388  0.00  0.00    +0.000 A 
ATOM      3  C   UNL     1       4.106   3.998  17.218  0.00  0.00    +0.000 A 
ATOM      4  C   UNL     1       2.911   3.337  16.925  0.00  0.00    +0.000 A 
ATOM      5  N   UNL     1       1.778   3.436  17.653  0.00  0.00    +0.000 NA
ATOM      6  C   UNL     1       1.818   4.263  18.716  0.00  0.00    +0.000 A 
ATOM      7  C   UNL     1       2.941   4.986  19.108  0.00  0.00    +0.000 A 
ATOM      8  C   UNL     1       4.133   4.815  18.366  0.00  0.00    +0.000 A 
ATOM      9  C   UNL     1       5.363   5.435  18.682  0.00  0.00    +0.000 A 
ATOM     10  C   UNL     1       6.491   5.365  17.843  0.00  0.00    +0.000 A 
ENDROOT
BRANCH   1  12
ATOM     11  C   UNL     1       7.047   4.831  14.380  0.00  0.00    +0.000 C 
ATOM     12  O   UNL     1       7.433   4.667  15.749  0.00  0.00    +0.000 OA
ENDBRANCH   1  12
BRANCH  10  13
ATOM     13  O   UNL     1       7.531   6.082  18.363  0.00  0.00    +0.000 OA
ATOM     14  C   UNL     1       7.780   7.405  17.924  0.00  0.00    +0.000 C 
ENDBRANCH  10  13
BRANCH   7  15
ATOM     15  C   UNL     1       2.793   6.015  20.208  0.00  0.00    +0.000 C 
BRANCH  15  16
ATOM     16  C   UNL     1       2.019   7.271  19.914  0.00  0.00    +0.000 A 
ATOM     17  C   UNL     1       2.230   7.924  18.704  0.00  0.00    +0.000 A 
ATOM     18  N   UNL     1       1.770   9.159  18.402  0.00  0.00    +0.000 NA
ATOM     19  C   UNL     1       1.076   9.814  19.344  0.00  0.00    +0.000 A 
ATOM     20  C   UNL     1       0.683  11.125  19.113  0.00  0.00    +0.000 A 
ATOM     21  C   UNL     1      -0.009  11.865  20.075  0.00  0.00    +0.000 A 
ATOM     22  C   UNL     1      -0.346  11.277  21.288  0.00  0.00    +0.000 A 
ATOM     23  C   UNL     1       0.031   9.960  21.545  0.00  0.00    +0.000 A 
ATOM     24  C   UNL     1       0.758   9.231  20.589  0.00  0.00    +0.000 A 
ATOM     25  C   UNL     1       1.232   7.937  20.854  0.00  0.00    +0.000 A 
ENDBRANCH  15  16
ENDBRANCH   7  15
TORSDOF 4
ENDMDL
MODEL 2
REMARK VINA RESULT:      -7.9      1.305      1.911
REMARK  Name = 
REMARK  6 active torsions:
REMARK  status: ('A' for Active; 'I' for Inactive)
REMARK    1  A    between atoms: C_1  and  O_2
REMARK    2  A    between atoms: O_2  and  C_3
REMARK    3  A    between atoms: C_9  and  C_10
REMARK    4  A    between atoms: C_10  and  C_11
REMARK    5  A    between atoms: C_23  and  O_24
REMARK    6  A    between atoms: O_24  and  C_25
REMARK                            x       y       z     vdW  Elec       q    Type
REMARK                         _______ _______ _______ _____ _____    ______ ____
ROOT
ATOM      1  C   UNL     1       6.201   4.861  16.355  0.00  0.00    +0.000 A 
ATOM      2  C   UNL     1       5.123   4.035  16.710  0.00  0.00    +0.000 A 
ATOM      3  C   UNL     1       3.945   4.559  17.263  0.00  0.00    +0.000 A 
ATOM      4  C   UNL     1       2.832   3.762  17.538  0.00  0.00    +0.000 A 
ATOM      5  N   UNL     1       1.654   4.221  18.011  0.00  0.00    +0.000 NA
ATOM      6  C   UNL     1       1.559   5.553  18.193  0.00  0.00    +0.000 A 
ATOM      7  C   UNL     1       2.590   6.456  17.947  0.00  0.00    +0.000 A 
ATOM      8  C   UNL     1       3.834   5.941  17.513  0.00  0.00    +0.000 A 
ATOM      9  C   UNL     1       4.983   6.729  17.282  0.00  0.00    +0.000 A 
ATOM     10  C   UNL     1       6.161   6.212  16.710  0.00  0.00    +0.000 A 
ENDROOT
BRANCH   1  12
ATOM     11  C   UNL     1       7.263   4.558  14.264  0.00  0.00    +0.000 C 
ATOM     12  O   UNL     1       7.282   4.356  15.682  0.00  0.00    +0.000 OA
ENDBRANCH   1  12
BRANCH  10  13
ATOM     13  O   UNL     1       7.102   7.191  16.561  0.00  0.00    +0.000 OA
ATOM     14  C   UNL     1       7.572   7.910  17.687  0.00  0.00    +0.000 C 
ENDBRANCH  10  13
BRANCH   7  15
ATOM     15  C   UNL     1       2.288   7.937  18.017  0.00  0.00    +0.000 C 
BRANCH  15  16
ATOM     16  C   UNL     1       1.813   8.510  19.325  0.00  0.00    +0.000 A 
ATOM     17  C   UNL     1       1.914   7.734  20.476  0.00  0.00    +0.000 A 
ATOM     18  N   UNL     1       1.340   8.034  21.662  0.00  0.00    +0.000 NA
ATOM     19  C   UNL     1       0.600   9.150  21.734  0.00  0.00    +0.000 A 
ATOM     20  C   UNL     1      -0.096   9.433  22.901  0.00  0.00    +0.000 A 
ATOM     21  C   UNL     1      -0.911  10.562  23.015  0.00  0.00    +0.000 A 
ATOM     22  C   UNL     1      -1.014  11.450  21.950  0.00  0.00    +0.000 A 
ATOM     23  C   UNL     1      -0.323  11.194  20.768  0.00  0.00    +0.000 A 
ATOM     24  C   UNL     1       0.468  10.038  20.645  0.00  0.00    +0.000 A 
ATOM     25  C   UNL     1       1.101   9.705  19.438  0.00  0.00    +0.000 A 
ENDBRANCH  15  16
ENDBRANCH   7  15
TORSDOF 4
ENDMDL
MODEL 3
REMARK VINA RESULT:      -7.8      4.388      8.496
REMARK  Name = 
REMARK  6 active torsions:
REMARK  status: ('A' for Active; 'I' for Inactive)
REMARK    1  A    between atoms: C_1  and  O_2
REMARK    2  A    between atoms: O_2  and  C_3
REMARK    3  A    between atoms: C_9  and  C_10
REMARK    4  A    between atoms: C_10  and  C_11
REMARK    5  A    between atoms: C_23  and  O_24
REMARK    6  A    between atoms: O_24  and  C_25
REMARK                            x       y       z     vdW  Elec       q    Type
REMARK                         _______ _______ _______ _____ _____    ______ ____
ROOT
ATOM      1  C   UNL     1      -3.327  11.145  17.582  0.00  0.00    +0.000 A 
ATOM      2  C   UNL     1      -2.776  11.636  18.776  0.00  0.00    +0.000 A 
ATOM      3  C   UNL     1      -1.474  11.302  19.177  0.00  0.00    +0.000 A 
ATOM      4  C   UNL     1      -0.881  11.853  20.315  0.00  0.00    +0.000 A 
ATOM      5  N   UNL     1       0.387  11.616  20.714  0.00  0.00    +0.000 NA
ATOM      6  C   UNL     1       1.125  10.812  19.922  0.00  0.00    +0.000 A 
ATOM      7  C   UNL     1       0.656  10.210  18.757  0.00  0.00    +0.000 A 
ATOM      8  C   UNL     1      -0.696  10.423  18.398  0.00  0.00    +0.000 A 
ATOM      9  C   UNL     1      -1.324   9.830  17.280  0.00  0.00    +0.000 A 
ATOM     10  C   UNL     1      -2.623  10.175  16.862  0.00  0.00    +0.000 A 
ENDROOT
BRANCH   1  12
ATOM     11  C   UNL     1      -5.575  11.642  18.120  0.00  0.00    +0.000 C 
ATOM     12  O   UNL     1      -4.540  11.594  17.130  0.00  0.00    +0.000 OA
ENDBRANCH   1  12
BRANCH  10  13
ATOM     13  O   UNL     1      -2.974   9.485  15.737  0.00  0.00    +0.000 OA
ATOM     14  C   UNL     1      -3.032  10.141  14.483  0.00  0.00    +0.000 C 
ENDBRANCH  10  13
BRANCH   7  15
ATOM     15  C   UNL     1       1.642   9.483  17.870  0.00  0.00    +0.000 C 
BRANCH  15  16
ATOM     16  C   UNL     1       2.289   8.230  18.394  0.00  0.00    +0.000 A 
ATOM     17  C   UNL     1       3.327   7.654  17.668  0.00  0.00    +0.000 A 
ATOM     18  N   UNL     1       3.849   6.430  17.904  0.00  0.00    +0.000 NA
ATOM     19  C   UNL     1       3.316   5.705  18.898  0.00  0.00    +0.000 A 
ATOM     20  C   UNL     1       3.748   4.401  19.100  0.00  0.00    +0.000 A 
ATOM     21  C   UNL     1       3.199   3.590  20.096  0.00  0.00    +0.000 A 
ATOM     22  C   UNL     1       2.214   4.099  20.935  0.00  0.00    +0.000 A 
ATOM     23  C   UNL     1       1.764   5.406  20.759  0.00  0.00    +0.000 A 
ATOM     24  C   UNL     1       2.294   6.206  19.732  0.00  0.00    +0.000 A 
ATOM     25  C   UNL     1       1.797   7.492  19.471  0.00  0.00    +0.000 A 
ENDBRANCH  15  16
ENDBRANCH   7  15
TORSDOF 4
ENDMDL
MODEL 4
REMARK VINA RESULT:      -7.7      4.360      8.775
REMARK  Name = 
REMARK  6 active torsions:
REMARK  status: ('A' for Active; 'I' for Inactive)
REMARK    1  A    between atoms: C_1  and  O_2
REMARK    2  A    between atoms: O_2  and  C_3
REMARK    3  A    between atoms: C_9  and  C_10
REMARK    4  A    between atoms: C_10  and  C_11
REMARK    5  A    between atoms: C_23  and  O_24
REMARK    6  A    between atoms: O_24  and  C_25
REMARK                            x       y       z     vdW  Elec       q    Type
REMARK                         _______ _______ _______ _____ _____    ______ ____
ROOT
ATOM      1  C   UNL     1      -3.420  11.335  17.893  0.00  0.00    +0.000 A 
ATOM      2  C   UNL     1      -2.883  11.927  19.047  0.00  0.00    +0.000 A 
ATOM      3  C   UNL     1      -1.549  11.719  19.428  0.00  0.00    +0.000 A 
ATOM      4  C   UNL     1      -0.977  12.372  20.522  0.00  0.00    +0.000 A 
ATOM      5  N   UNL     1       0.315  12.258  20.897  0.00  0.00    +0.000 NA
ATOM      6  C   UNL     1       1.097  11.478  20.125  0.00  0.00    +0.000 A 
ATOM      7  C   UNL     1       0.652  10.782  19.003  0.00  0.00    +0.000 A 
ATOM      8  C   UNL     1      -0.720  10.868  18.671  0.00  0.00    +0.000 A 
ATOM      9  C   UNL     1      -1.324  10.172  17.600  0.00  0.00    +0.000 A 
ATOM     10  C   UNL     1      -2.656  10.391  17.201  0.00  0.00    +0.000 A 
ENDROOT
BRANCH   1  12
ATOM     11  C   UNL     1      -5.748  11.003  18.137  0.00  0.00    +0.000 C 
ATOM     12  O   UNL     1      -4.675  11.662  17.454  0.00  0.00    +0.000 OA
ENDBRANCH   1  12
BRANCH  10  13
ATOM     13  O   UNL     1      -2.975   9.619  16.120  0.00  0.00    +0.000 OA
ATOM     14  C   UNL     1      -2.990  10.180  14.820  0.00  0.00    +0.000 C 
ENDBRANCH  10  13
BRANCH   7  15
ATOM     15  C   UNL     1       1.674  10.094  18.125  0.00  0.00    +0.000 C 
BRANCH  15  16
ATOM     16  C   UNL     1       2.012   8.656  18.411  0.00  0.00    +0.000 A 
ATOM     17  C   UNL     1       1.655   8.113  19.641  0.00  0.00    +0.000 A 
ATOM     18  N   UNL     1       2.077   6.917  20.110  0.00  0.00    +0.000 NA
ATOM     19  C   UNL     1       2.919   6.209  19.344  0.00  0.00    +0.000 A 
ATOM     20  C   UNL     1       3.462   5.030  19.837  0.00  0.00    +0.000 A 
ATOM     21  C   UNL     1       4.374   4.274  19.095  0.00  0.00    +0.000 A 
ATOM     22  C   UNL     1       4.732   4.685  17.816  0.00  0.00    +0.000 A 
ATOM     23  C   UNL     1       4.199   5.861  17.293  0.00  0.00    +0.000 A 
ATOM     24  C   UNL     1       3.310   6.637  18.057  0.00  0.00    +0.000 A 
ATOM     25  C   UNL     1       2.829   7.872  17.596  0.00  0.00    +0.000 A 
ENDBRANCH  15  16
ENDBRANCH   7  15
TORSDOF 4
ENDMDL
MODEL 5
REMARK VINA RESULT:      -7.6      2.769      6.370
REMARK  Name = 
REMARK  6 active torsions:
REMARK  status: ('A' for Active; 'I' for Inactive)
REMARK    1  A    between atoms: C_1  and  O_2
REMARK    2  A    between atoms: O_2  and  C_3
REMARK    3  A    between atoms: C_9  and  C_10
REMARK    4  A    between atoms: C_10  and  C_11
REMARK    5  A    between atoms: C_23  and  O_24
REMARK    6  A    between atoms: O_24  and  C_25
REMARK                            x       y       z     vdW  Elec       q    Type
REMARK                         _______ _______ _______ _____ _____    ______ ____
ROOT
ATOM      1  C   UNL     1       1.475   7.103  20.476  0.00  0.00    +0.000 A 
ATOM      2  C   UNL     1       1.065   5.795  20.778  0.00  0.00    +0.000 A 
ATOM      3  C   UNL     1       1.443   4.703  19.983  0.00  0.00    +0.000 A 
ATOM      4  C   UNL     1       1.119   3.387  20.320  0.00  0.00    +0.000 A 
ATOM      5  N   UNL     1       1.509   2.296  19.627  0.00  0.00    +0.000 NA
ATOM      6  C   UNL     1       2.294   2.516  18.554  0.00  0.00    +0.000 A 
ATOM      7  C   UNL     1       2.697   3.776  18.118  0.00  0.00    +0.000 A 
ATOM      8  C   UNL     1       2.221   4.905  18.825  0.00  0.00    +0.000 A 
ATOM      9  C   UNL     1       2.497   6.243  18.465  0.00  0.00    +0.000 A 
ATOM     10  C   UNL     1       2.137   7.341  19.268  0.00  0.00    +0.000 A 
ENDROOT
BRANCH   1  12
ATOM     11  C   UNL     1      -0.161   8.481  21.484  0.00  0.00    +0.000 C 
ATOM     12  O   UNL     1       1.222   8.136  21.340  0.00  0.00    +0.000 OA
ENDBRANCH   1  12
BRANCH  10  13
ATOM     13  O   UNL     1       2.555   8.515  18.708  0.00  0.00    +0.000 OA
ATOM     14  C   UNL     1       1.627   9.375  18.073  0.00  0.00    +0.000 C 
ENDBRANCH  10  13
BRANCH   7  15
ATOM     15  C   UNL     1       3.725   3.865  17.012  0.00  0.00    +0.000 C 
BRANCH  15  16
ATOM     16  C   UNL     1       5.020   4.577  17.294  0.00  0.00    +0.000 A 
ATOM     17  C   UNL     1       5.915   4.013  18.199  0.00  0.00    +0.000 A 
ATOM     18  N   UNL     1       7.003   4.639  18.702  0.00  0.00    +0.000 NA
ATOM     19  C   UNL     1       7.228   5.904  18.319  0.00  0.00    +0.000 A 
ATOM     20  C   UNL     1       8.269   6.617  18.898  0.00  0.00    +0.000 A 
ATOM     21  C   UNL     1       8.523   7.949  18.563  0.00  0.00    +0.000 A 
ATOM     22  C   UNL     1       7.739   8.582  17.604  0.00  0.00    +0.000 A 
ATOM     23  C   UNL     1       6.690   7.890  17.003  0.00  0.00    +0.000 A 
ATOM     24  C   UNL     1       6.416   6.560  17.369  0.00  0.00    +0.000 A 
ATOM     25  C   UNL     1       5.311   5.867  16.851  0.00  0.00    +0.000 A 
ENDBRANCH  15  16
ENDBRANCH   7  15
TORSDOF 4
ENDMDL
MODEL 6
REMARK VINA RESULT:      -7.6      2.382      3.736
REMARK  Name = 
REMARK  6 active torsions:
REMARK  status: ('A' for Active; 'I' for Inactive)
REMARK    1  A    between atoms: C_1  and  O_2
REMARK    2  A    between atoms: O_2  and  C_3
REMARK    3  A    between atoms: C_9  and  C_10
REMARK    4  A    between atoms: C_10  and  C_11
REMARK    5  A    between atoms: C_23  and  O_24
REMARK    6  A    between atoms: O_24  and  C_25
REMARK                            x       y       z     vdW  Elec       q    Type
REMARK                         _______ _______ _______ _____ _____    ______ ____
ROOT
ATOM      1  C   UNL     1       3.783   4.028  17.909  0.00  0.00    +0.000 A 
ATOM      2  C   UNL     1       3.084   4.188  19.115  0.00  0.00    +0.000 A 
ATOM      3  C   UNL     1       2.610   5.442  19.530  0.00  0.00    +0.000 A 
ATOM      4  C   UNL     1       1.836   5.603  20.681  0.00  0.00    +0.000 A 
ATOM      5  N   UNL     1       1.302   6.773  21.093  0.00  0.00    +0.000 NA
ATOM      6  C   UNL     1       1.518   7.842  20.301  0.00  0.00    +0.000 A 
ATOM      7  C   UNL     1       2.262   7.813  19.124  0.00  0.00    +0.000 A 
ATOM      8  C   UNL     1       2.864   6.589  18.750  0.00  0.00    +0.000 A 
ATOM      9  C   UNL     1       3.692   6.423  17.618  0.00  0.00    +0.000 A 
ATOM     10  C   UNL     1       4.155   5.165  17.187  0.00  0.00    +0.000 A 
ENDROOT
BRANCH   1  12
ATOM     11  C   UNL     1       3.528   1.693  18.174  0.00  0.00    +0.000 C 
ATOM     12  O   UNL     1       4.111   2.780  17.447  0.00  0.00    +0.000 OA
ENDBRANCH   1  12
BRANCH  10  13
ATOM     13  O   UNL     1       4.902   5.283  16.050  0.00  0.00    +0.000 OA
ATOM     14  C   UNL     1       6.316   5.309  16.121  0.00  0.00    +0.000 C 
ENDBRANCH  10  13
BRANCH   7  15
ATOM     15  C   UNL     1       2.269   9.042  18.241  0.00  0.00    +0.000 C 
BRANCH  15  16
ATOM     16  C   UNL     1       1.036   9.903  18.202  0.00  0.00    +0.000 A 
ATOM     17  C   UNL     1       1.023  11.092  18.926  0.00  0.00    +0.000 A 
ATOM     18  N   UNL     1      -0.075  11.847  19.151  0.00  0.00    +0.000 NA
ATOM     19  C   UNL     1      -1.244  11.411  18.660  0.00  0.00    +0.000 A 
ATOM     20  C   UNL     1      -2.411  12.099  18.965  0.00  0.00    +0.000 A 
ATOM     21  C   UNL     1      -3.659  11.665  18.511  0.00  0.00    +0.000 A 
ATOM     22  C   UNL     1      -3.748  10.534  17.708  0.00  0.00    +0.000 A 
ATOM     23  C   UNL     1      -2.592   9.826  17.382  0.00  0.00    +0.000 A 
ATOM     24  C   UNL     1      -1.342  10.246  17.870  0.00  0.00    +0.000 A 
ATOM     25  C   UNL     1      -0.174   9.504  17.637  0.00  0.00    +0.000 A 
ENDBRANCH  15  16
ENDBRANCH   7  15
TORSDOF 4
ENDMDL
MODEL 7
REMARK VINA RESULT:      -7.5      3.001      7.694
REMARK  Name = 
REMARK  6 active torsions:
REMARK  status: ('A' for Active; 'I' for Inactive)
REMARK    1  A    between atoms: C_1  and  O_2
REMARK    2  A    between atoms: O_2  and  C_3
REMARK    3  A    between atoms: C_9  and  C_10
REMARK    4  A    between atoms: C_10  and  C_11
REMARK    5  A    between atoms: C_23  and  O_24
REMARK    6  A    between atoms: O_24  and  C_25
REMARK                            x       y       z     vdW  Elec       q    Type
REMARK                         _______ _______ _______ _____ _____    ______ ____
ROOT
ATOM      1  C   UNL     1       1.140   7.364  20.682  0.00  0.00    +0.000 A 
ATOM      2  C   UNL     1       1.457   6.007  20.855  0.00  0.00    +0.000 A 
ATOM      3  C   UNL     1       2.468   5.387  20.105  0.00  0.00    +0.000 A 
ATOM      4  C   UNL     1       2.856   4.064  20.328  0.00  0.00    +0.000 A 
ATOM      5  N   UNL     1       3.862   3.437  19.682  0.00  0.00    +0.000 NA
ATOM      6  C   UNL     1       4.547   4.171  18.783  0.00  0.00    +0.000 A 
ATOM      7  C   UNL     1       4.268   5.501  18.476  0.00  0.00    +0.000 A 
ATOM      8  C   UNL     1       3.168   6.114  19.122  0.00  0.00    +0.000 A 
ATOM      9  C   UNL     1       2.731   7.433  18.868  0.00  0.00    +0.000 A 
ATOM     10  C   UNL     1       1.731   8.066  19.629  0.00  0.00    +0.000 A 
ENDROOT
BRANCH   1  12
ATOM     11  C   UNL     1       0.796   9.094  22.256  0.00  0.00    +0.000 C 
ATOM     12  O   UNL     1       0.255   7.991  21.520  0.00  0.00    +0.000 OA
ENDBRANCH   1  12
BRANCH  10  13
ATOM     13  O   UNL     1       1.528   9.347  19.200  0.00  0.00    +0.000 OA
ATOM     14  C   UNL     1       1.665   9.673  17.829  0.00  0.00    +0.000 C 
ENDBRANCH  10  13
BRANCH   7  15
ATOM     15  C   UNL     1       5.230   6.257  17.586  0.00  0.00    +0.000 C 
BRANCH  15  16
ATOM     16  C   UNL     1       5.819   5.543  16.400  0.00  0.00    +0.000 A 
ATOM     17  C   UNL     1       7.130   5.827  16.027  0.00  0.00    +0.000 A 
ATOM     18  N   UNL     1       7.709   5.427  14.874  0.00  0.00    +0.000 NA
ATOM     19  C   UNL     1       6.961   4.722  14.012  0.00  0.00    +0.000 A 
ATOM     20  C   UNL     1       7.484   4.389  12.769  0.00  0.00    +0.000 A 
ATOM     21  C   UNL     1       6.734   3.688  11.821  0.00  0.00    +0.000 A 
ATOM     22  C   UNL     1       5.440   3.282  12.126  0.00  0.00    +0.000 A 
ATOM     23  C   UNL     1       4.892   3.598  13.367  0.00  0.00    +0.000 A 
ATOM     24  C   UNL     1       5.637   4.333  14.305  0.00  0.00    +0.000 A 
ATOM     25  C   UNL     1       5.081   4.746  15.526  0.00  0.00    +0.000 A 
ENDBRANCH  15  16
ENDBRANCH   7  15
TORSDOF 4
ENDMDL
MODEL 8
REMARK VINA RESULT:      -7.5      0.927      1.027
REMARK  Name = 
REMARK  6 active torsions:
REMARK  status: ('A' for Active; 'I' for Inactive)
REMARK    1  A    between atoms: C_1  and  O_2
REMARK    2  A    between atoms: O_2  and  C_3
REMARK    3  A    between atoms: C_9  and  C_10
REMARK    4  A    between atoms: C_10  and  C_11
REMARK    5  A    between atoms: C_23  and  O_24
REMARK    6  A    between atoms: O_24  and  C_25
REMARK                            x       y       z     vdW  Elec       q    Type
REMARK                         _______ _______ _______ _____ _____    ______ ____
ROOT
ATOM      1  C   UNL     1       5.259   3.879  16.718  0.00  0.00    +0.000 A 
ATOM      2  C   UNL     1       4.075   3.143  16.874  0.00  0.00    +0.000 A 
ATOM      3  C   UNL     1       3.161   3.429  17.900  0.00  0.00    +0.000 A 
ATOM      4  C   UNL     1       1.937   2.766  18.014  0.00  0.00    +0.000 A 
ATOM      5  N   UNL     1       0.995   3.042  18.941  0.00  0.00    +0.000 NA
ATOM      6  C   UNL     1       1.264   4.058  19.785  0.00  0.00    +0.000 A 
ATOM      7  C   UNL     1       2.439   4.805  19.769  0.00  0.00    +0.000 A 
ATOM      8  C   UNL     1       3.436   4.451  18.830  0.00  0.00    +0.000 A 
ATOM      9  C   UNL     1       4.699   5.079  18.737  0.00  0.00    +0.000 A 
ATOM     10  C   UNL     1       5.612   4.808  17.700  0.00  0.00    +0.000 A 
ENDROOT
BRANCH   1  12
ATOM     11  C   UNL     1       5.810   4.555  14.520  0.00  0.00    +0.000 C 
ATOM     12  O   UNL     1       6.068   3.686  15.629  0.00  0.00    +0.000 OA
ENDBRANCH   1  12
BRANCH  10  13
ATOM     13  O   UNL     1       6.735   5.576  17.825  0.00  0.00    +0.000 OA
ATOM     14  C   UNL     1       7.400   5.673  19.071  0.00  0.00    +0.000 C 
ENDBRANCH  10  13
BRANCH   7  15
ATOM     15  C   UNL     1       2.530   6.031  20.650  0.00  0.00    +0.000 C 
BRANCH  15  16
ATOM     16  C   UNL     1       1.845   7.292  20.196  0.00  0.00    +0.000 A 
ATOM     17  C   UNL     1       2.160   7.816  18.946  0.00  0.00    +0.000 A 
ATOM     18  N   UNL     1       1.788   9.038  18.504  0.00  0.00    +0.000 NA
ATOM     19  C   UNL     1       1.081   9.814  19.339  0.00  0.00    +0.000 A 
ATOM     20  C   UNL     1       0.776  11.116  18.965  0.00  0.00    +0.000 A 
ATOM     21  C   UNL     1       0.074  11.978  19.812  0.00  0.00    +0.000 A 
ATOM     22  C   UNL     1      -0.362  11.526  21.052  0.00  0.00    +0.000 A 
ATOM     23  C   UNL     1      -0.075  10.222  21.451  0.00  0.00    +0.000 A 
ATOM     24  C   UNL     1       0.662   9.369  20.610  0.00  0.00    +0.000 A 
ATOM     25  C   UNL     1       1.047   8.083  21.021  0.00  0.00    +0.000 A 
ENDBRANCH  15  16
ENDBRANCH   7  15
TORSDOF 4
ENDMDL
MODEL 9
REMARK VINA RESULT:      -7.4      1.121      1.684
REMARK  Name = 
REMARK  6 active torsions:
REMARK  status: ('A' for Active; 'I' for Inactive)
REMARK    1  A    between atoms: C_1  and  O_2
REMARK    2  A    between atoms: O_2  and  C_3
REMARK    3  A    between atoms: C_9  and  C_10
REMARK    4  A    between atoms: C_10  and  C_11
REMARK    5  A    between atoms: C_23  and  O_24
REMARK    6  A    between atoms: O_24  and  C_25
REMARK                            x       y       z     vdW  Elec       q    Type
REMARK                         _______ _______ _______ _____ _____    ______ ____
ROOT
ATOM      1  C   UNL     1       5.891   4.907  16.798  0.00  0.00    +0.000 A 
ATOM      2  C   UNL     1       4.767   4.134  16.470  0.00  0.00    +0.000 A 
ATOM      3  C   UNL     1       3.674   4.019  17.342  0.00  0.00    +0.000 A 
ATOM      4  C   UNL     1       2.512   3.328  16.993  0.00  0.00    +0.000 A 
ATOM      5  N   UNL     1       1.408   3.238  17.766  0.00  0.00    +0.000 NA
ATOM      6  C   UNL     1       1.443   3.897  18.941  0.00  0.00    +0.000 A 
ATOM      7  C   UNL     1       2.534   4.630  19.400  0.00  0.00    +0.000 A 
ATOM      8  C   UNL     1       3.700   4.655  18.599  0.00  0.00    +0.000 A 
ATOM      9  C   UNL     1       4.901   5.305  18.963  0.00  0.00    +0.000 A 
ATOM     10  C   UNL     1       5.993   5.440  18.085  0.00  0.00    +0.000 A 
ENDROOT
BRANCH   1  12
ATOM     11  C   UNL     1       6.707   4.463  14.623  0.00  0.00    +0.000 C 
ATOM     12  O   UNL     1       6.883   5.129  15.879  0.00  0.00    +0.000 OA
ENDBRANCH   1  12
BRANCH  10  13
ATOM     13  O   UNL     1       7.007   6.141  18.673  0.00  0.00    +0.000 OA
ATOM     14  C   UNL     1       7.996   5.470  19.433  0.00  0.00    +0.000 C 
ENDBRANCH  10  13
BRANCH   7  15
ATOM     15  C   UNL     1       2.370   5.470  20.647  0.00  0.00    +0.000 C 
BRANCH  15  16
ATOM     16  C   UNL     1       1.938   6.903  20.494  0.00  0.00    +0.000 A 
ATOM     17  C   UNL     1       1.056   7.444  21.426  0.00  0.00    +0.000 A 
ATOM     18  N   UNL     1       0.427   8.632  21.295  0.00  0.00    +0.000 NA
ATOM     19  C   UNL     1       0.650   9.337  20.175  0.00  0.00    +0.000 A 
ATOM     20  C   UNL     1      -0.062  10.508  19.953  0.00  0.00    +0.000 A 
ATOM     21  C   UNL     1       0.104  11.259  18.787  0.00  0.00    +0.000 A 
ATOM     22  C   UNL     1       1.026  10.852  17.828  0.00  0.00    +0.000 A 
ATOM     23  C   UNL     1       1.758   9.683  18.028  0.00  0.00    +0.000 A 
ATOM     24  C   UNL     1       1.562   8.912  19.186  0.00  0.00    +0.000 A 
ATOM     25  C   UNL     1       2.215   7.684  19.372  0.00  0.00    +0.000 A 
ENDBRANCH  15  16
ENDBRANCH   7  15
TORSDOF 4
ENDMDL
