MODEL 1
REMARK VINA RESULT:      -7.3      0.000      0.000
REMARK  Name = 
REMARK  12 active torsions:
REMARK  status: ('A' for Active; 'I' for Inactive)
REMARK    1  A    between atoms: CD1_1  and  CG_2
REMARK    2  A    between atoms: CG_2  and  CD2_3
REMARK    3  A    between atoms: CG_2  and  CB_4
REMARK    4  A    between atoms: CB_4  and  CA_5
REMARK    5  A    between atoms: CA_5  and  C_6
REMARK    6  A    between atoms: CA_5  and  N_8
REMARK    7  A    between atoms: C_9  and  CA_11
REMARK    8  A    between atoms: CA_11  and  N_12
REMARK    9  A    between atoms: CA_11  and  CB_20
REMARK   10  A    between atoms: C_13  and  CA_15
REMARK   11  A    between atoms: CB_20  and  CG1_21
REMARK   12  A    between atoms: CB_20  and  CG2_22
REMARK                            x       y       z     vdW  Elec       q    Type
REMARK                         _______ _______ _______ _____ _____    ______ ____
ROOT
ATOM      1  CA  PRO A   1       6.652   6.257  17.043  0.00  0.00    +0.000 C 
ENDROOT
BRANCH   1   3
ATOM      2  N   PRO A   1       6.191   5.024  14.957  0.00  0.00    +0.000 N 
ATOM      3  C   PRO A   1       7.007   5.112  16.066  0.00  0.00    +0.000 C 
ATOM      4  O   PRO A   1       7.903   4.298  16.280  0.00  0.00    +0.000 OA
ATOM      5  H   PRO A   1       5.507   5.762  14.802  0.00  0.00    +0.000 HD
BRANCH   2   6
ATOM      6  CA  PRO A   1       6.534   4.137  13.851  0.00  0.00    +0.000 C 
BRANCH   6   7
ATOM      7  C   PRO A   1       7.278   4.976  12.817  0.00  0.00    +0.000 C 
ATOM      8  O   PRO A   1       8.341   5.555  13.029  0.00  0.00    +0.000 OA
ENDBRANCH   6   7
BRANCH   6   9
ATOM      9  CB  PRO A   1       5.270   3.503  13.259  0.00  0.00    +0.000 C 
BRANCH   9  11
ATOM     10  CD1 PRO A   1       5.859   1.827  11.424  0.00  0.00    +0.000 C 
ATOM     11  CG  PRO A   1       5.313   3.219  11.743  0.00  0.00    +0.000 C 
ATOM     12  CD2 PRO A   1       3.908   3.369  11.147  0.00  0.00    +0.000 C 
ENDBRANCH   9  11
ENDBRANCH   6   9
ENDBRANCH   2   6
ENDBRANCH   1   3
BRANCH   1  13
ATOM     13  N   PRO A   1       5.568   5.757  17.885  0.00  0.00    +0.000 N 
ATOM     14  C   PRO A   1       4.286   6.243  17.795  0.00  0.00    +0.000 C 
ATOM     15  O   PRO A   1       3.984   7.153  17.030  0.00  0.00    +0.000 OA
ATOM     16  H   PRO A   1       5.719   4.879  18.360  0.00  0.00    +0.000 HD
BRANCH  14  17
ATOM     17  CA  PRO A   1       3.324   5.597  18.663  0.00  0.00    +0.000 A 
ATOM     18  CB  PRO A   1       2.025   5.153  18.451  0.00  0.00    +0.000 A 
ATOM     19  CG  PRO A   1       1.554   4.561  19.647  0.00  0.00    +0.000 A 
ATOM     20  CD  PRO A   1       2.569   4.646  20.570  0.00  0.00    +0.000 A 
ATOM     21  N   PRO A   1       3.629   5.278  19.976  0.00  0.00    +0.000 N 
ATOM     22  H   PRO A   1       4.523   5.482  20.407  0.00  0.00    +0.000 HD
ENDBRANCH  14  17
ENDBRANCH   1  13
BRANCH   1  23
ATOM     23  CB  PRO A   1       7.885   6.653  17.893  0.00  0.00    +0.000 C 
ATOM     24  CG1 PRO A   1       8.076   8.175  17.917  0.00  0.00    +0.000 C 
ATOM     25  CG2 PRO A   1       7.775   6.150  19.337  0.00  0.00    +0.000 C 
ENDBRANCH   1  23
TORSDOF 8
ENDMDL
MODEL 2
REMARK VINA RESULT:      -7.3      2.138      6.429
REMARK  Name = 
REMARK  12 active torsions:
REMARK  status: ('A' for Active; 'I' for Inactive)
REMARK    1  A    between atoms: CD1_1  and  CG_2
REMARK    2  A    between atoms: CG_2  and  CD2_3
REMARK    3  A    between atoms: CG_2  and  CB_4
REMARK    4  A    between atoms: CB_4  and  CA_5
REMARK    5  A    between atoms: CA_5  and  C_6
REMARK    6  A    between atoms: CA_5  and  N_8
REMARK    7  A    between atoms: C_9  and  CA_11
REMARK    8  A    between atoms: CA_11  and  N_12
REMARK    9  A    between atoms: CA_11  and  CB_20
REMARK   10  A    between atoms: C_13  and  CA_15
REMARK   11  A    between atoms: CB_20  and  CG1_21
REMARK   12  A    between atoms: CB_20  and  CG2_22
REMARK                            x       y       z     vdW  Elec       q    Type
REMARK                         _______ _______ _______ _____ _____    ______ ____
ROOT
ATOM      1  CA  PRO A   1       6.416   4.818  16.875  0.00  0.00    +0.000 C 
ENDROOT
BRANCH   1   3
ATOM      2  N   PRO A   1       4.220   3.937  17.571  0.00  0.00    +0.000 N 
ATOM      3  C   PRO A   1       5.490   4.277  17.989  0.00  0.00    +0.000 C 
ATOM      4  O   PRO A   1       5.825   4.212  19.169  0.00  0.00    +0.000 OA
ATOM      5  H   PRO A   1       4.020   3.954  16.573  0.00  0.00    +0.000 HD
BRANCH   2   6
ATOM      6  CA  PRO A   1       3.313   3.218  18.459  0.00  0.00    +0.000 C 
BRANCH   6   7
ATOM      7  C   PRO A   1       3.318   1.758  18.018  0.00  0.00    +0.000 C 
ATOM      8  O   PRO A   1       3.930   0.862  18.596  0.00  0.00    +0.000 OA
ENDBRANCH   6   7
BRANCH   6   9
ATOM      9  CB  PRO A   1       1.906   3.822  18.393  0.00  0.00    +0.000 C 
BRANCH   9  11
ATOM     10  CD1 PRO A   1       1.074   3.156  20.714  0.00  0.00    +0.000 C 
ATOM     11  CG  PRO A   1       1.324   4.306  19.738  0.00  0.00    +0.000 C 
ATOM     12  CD2 PRO A   1       2.272   5.326  20.379  0.00  0.00    +0.000 C 
ENDBRANCH   9  11
ENDBRANCH   6   9
ENDBRANCH   2   6
ENDBRANCH   1   3
BRANCH   1  13
ATOM     13  N   PRO A   1       5.918   4.261  15.620  0.00  0.00    +0.000 N 
ATOM     14  C   PRO A   1       6.565   4.453  14.423  0.00  0.00    +0.000 C 
ATOM     15  O   PRO A   1       7.580   5.137  14.331  0.00  0.00    +0.000 OA
ATOM     16  H   PRO A   1       5.227   3.527  15.681  0.00  0.00    +0.000 HD
BRANCH  14  17
ATOM     17  CA  PRO A   1       5.965   3.785  13.287  0.00  0.00    +0.000 A 
ATOM     18  CB  PRO A   1       4.715   3.893  12.692  0.00  0.00    +0.000 A 
ATOM     19  CG  PRO A   1       4.672   3.019  11.581  0.00  0.00    +0.000 A 
ATOM     20  CD  PRO A   1       5.892   2.392  11.508  0.00  0.00    +0.000 A 
ATOM     21  N   PRO A   1       6.665   2.850  12.542  0.00  0.00    +0.000 N 
ATOM     22  H   PRO A   1       7.617   2.572  12.746  0.00  0.00    +0.000 HD
ENDBRANCH  14  17
ENDBRANCH   1  13
BRANCH   1  23
ATOM     23  CB  PRO A   1       6.395   6.366  16.848  0.00  0.00    +0.000 C 
ATOM     24  CG1 PRO A   1       5.018   6.908  17.254  0.00  0.00    +0.000 C 
ATOM     25  CG2 PRO A   1       7.454   6.974  17.774  0.00  0.00    +0.000 C 
ENDBRANCH   1  23
TORSDOF 8
ENDMDL
MODEL 3
REMARK VINA RESULT:      -7.1      1.053      1.232
REMARK  Name = 
REMARK  12 active torsions:
REMARK  status: ('A' for Active; 'I' for Inactive)
REMARK    1  A    between atoms: CD1_1  and  CG_2
REMARK    2  A    between atoms: CG_2  and  CD2_3
REMARK    3  A    between atoms: CG_2  and  CB_4
REMARK    4  A    between atoms: CB_4  and  CA_5
REMARK    5  A    between atoms: CA_5  and  C_6
REMARK    6  A    between atoms: CA_5  and  N_8
REMARK    7  A    between atoms: C_9  and  CA_11
REMARK    8  A    between atoms: CA_11  and  N_12
REMARK    9  A    between atoms: CA_11  and  CB_20
REMARK   10  A    between atoms: C_13  and  CA_15
REMARK   11  A    between atoms: CB_20  and  CG1_21
REMARK   12  A    between atoms: CB_20  and  CG2_22
REMARK                            x       y       z     vdW  Elec       q    Type
REMARK                         _______ _______ _______ _____ _____    ______ ____
ROOT
ATOM      1  CA  PRO A   1       5.964   5.626  17.280  0.00  0.00    +0.000 C 
ENDROOT
BRANCH   1   3
ATOM      2  N   PRO A   1       6.340   5.102  14.899  0.00  0.00    +0.000 N 
ATOM      3  C   PRO A   1       6.028   4.584  16.138  0.00  0.00    +0.000 C 
ATOM      4  O   PRO A   1       5.761   3.395  16.298  0.00  0.00    +0.000 OA
ATOM      5  H   PRO A   1       6.610   6.081  14.840  0.00  0.00    +0.000 HD
BRANCH   2   6
ATOM      6  CA  PRO A   1       6.644   4.218  13.779  0.00  0.00    +0.000 C 
BRANCH   6   7
ATOM      7  C   PRO A   1       7.432   5.038  12.762  0.00  0.00    +0.000 C 
ATOM      8  O   PRO A   1       8.336   5.819  13.052  0.00  0.00    +0.000 OA
ENDBRANCH   6   7
BRANCH   6   9
ATOM      9  CB  PRO A   1       5.354   3.656  13.172  0.00  0.00    +0.000 C 
BRANCH   9  11
ATOM     10  CD1 PRO A   1       6.043   1.843  11.511  0.00  0.00    +0.000 C 
ATOM     11  CG  PRO A   1       5.441   3.236  11.690  0.00  0.00    +0.000 C 
ATOM     12  CD2 PRO A   1       4.046   3.278  11.055  0.00  0.00    +0.000 C 
ENDBRANCH   9  11
ENDBRANCH   6   9
ENDBRANCH   2   6
ENDBRANCH   1   3
BRANCH   1  13
ATOM     13  N   PRO A   1       5.208   5.002  18.363  0.00  0.00    +0.000 N 
ATOM     14  C   PRO A   1       3.899   5.326  18.626  0.00  0.00    +0.000 C 
ATOM     15  O   PRO A   1       3.298   6.186  17.989  0.00  0.00    +0.000 OA
ATOM     16  H   PRO A   1       5.583   4.153  18.760  0.00  0.00    +0.000 HD
BRANCH  14  17
ATOM     17  CA  PRO A   1       3.284   4.573  19.698  0.00  0.00    +0.000 A 
ATOM     18  CB  PRO A   1       3.312   3.224  20.028  0.00  0.00    +0.000 A 
ATOM     19  CG  PRO A   1       2.554   3.037  21.208  0.00  0.00    +0.000 A 
ATOM     20  CD  PRO A   1       2.076   4.269  21.585  0.00  0.00    +0.000 A 
ATOM     21  N   PRO A   1       2.511   5.189  20.669  0.00  0.00    +0.000 N 
ATOM     22  H   PRO A   1       2.322   6.184  20.684  0.00  0.00    +0.000 HD
ENDBRANCH  14  17
ENDBRANCH   1  13
BRANCH   1  23
ATOM     23  CB  PRO A   1       7.389   6.017  17.744  0.00  0.00    +0.000 C 
ATOM     24  CG1 PRO A   1       7.650   7.514  17.528  0.00  0.00    +0.000 C 
ATOM     25  CG2 PRO A   1       7.625   5.686  19.221  0.00  0.00    +0.000 C 
ENDBRANCH   1  23
TORSDOF 8
ENDMDL
MODEL 4
REMARK VINA RESULT:      -7.0      2.864      5.074
REMARK  Name = 
REMARK  12 active torsions:
REMARK  status: ('A' for Active; 'I' for Inactive)
REMARK    1  A    between atoms: CD1_1  and  CG_2
REMARK    2  A    between atoms: CG_2  and  CD2_3
REMARK    3  A    between atoms: CG_2  and  CB_4
REMARK    4  A    between atoms: CB_4  and  CA_5
REMARK    5  A    between atoms: CA_5  and  C_6
REMARK    6  A    between atoms: CA_5  and  N_8
REMARK    7  A    between atoms: C_9  and  CA_11
REMARK    8  A    between atoms: CA_11  and  N_12
REMARK    9  A    between atoms: CA_11  and  CB_20
REMARK   10  A    between atoms: C_13  and  CA_15
REMARK   11  A    between atoms: CB_20  and  CG1_21
REMARK   12  A    between atoms: CB_20  and  CG2_22
REMARK                            x       y       z     vdW  Elec       q    Type
REMARK                         _______ _______ _______ _____ _____    ______ ____
ROOT
ATOM      1  CA  PRO A   1       2.997   3.956  19.275  0.00  0.00    +0.000 C 
ENDROOT
BRANCH   1   3
ATOM      2  N   PRO A   1       5.139   4.442  18.151  0.00  0.00    +0.000 N 
ATOM      3  C   PRO A   1       4.526   3.745  19.172  0.00  0.00    +0.000 C 
ATOM      4  O   PRO A   1       5.149   2.972  19.896  0.00  0.00    +0.000 OA
ATOM      5  H   PRO A   1       4.583   5.113  17.625  0.00  0.00    +0.000 HD
BRANCH   2   6
ATOM      6  CA  PRO A   1       6.593   4.510  18.066  0.00  0.00    +0.000 C 
BRANCH   6   7
ATOM      7  C   PRO A   1       7.043   5.646  18.979  0.00  0.00    +0.000 C 
ATOM      8  O   PRO A   1       7.543   5.487  20.090  0.00  0.00    +0.000 OA
ENDBRANCH   6   7
BRANCH   6   9
ATOM      9  CB  PRO A   1       7.037   4.741  16.618  0.00  0.00    +0.000 C 
BRANCH   9  11
ATOM     10  CD1 PRO A   1       5.370   6.157  15.297  0.00  0.00    +0.000 C 
ATOM     11  CG  PRO A   1       5.906   4.751  15.566  0.00  0.00    +0.000 C 
ATOM     12  CD2 PRO A   1       6.410   4.133  14.256  0.00  0.00    +0.000 C 
ENDBRANCH   9  11
ENDBRANCH   6   9
ENDBRANCH   2   6
ENDBRANCH   1   3
BRANCH   1  13
ATOM     13  N   PRO A   1       2.743   5.331  18.854  0.00  0.00    +0.000 N 
ATOM     14  C   PRO A   1       2.203   6.270  19.701  0.00  0.00    +0.000 C 
ATOM     15  O   PRO A   1       1.867   5.997  20.849  0.00  0.00    +0.000 OA
ATOM     16  H   PRO A   1       3.197   5.649  18.010  0.00  0.00    +0.000 HD
BRANCH  14  17
ATOM     17  CA  PRO A   1       2.070   7.597  19.139  0.00  0.00    +0.000 A 
ATOM     18  CB  PRO A   1       2.490   8.149  17.936  0.00  0.00    +0.000 A 
ATOM     19  CG  PRO A   1       2.060   9.496  17.888  0.00  0.00    +0.000 A 
ATOM     20  CD  PRO A   1       1.383   9.750  19.057  0.00  0.00    +0.000 A 
ATOM     21  N   PRO A   1       1.399   8.606  19.810  0.00  0.00    +0.000 N 
ATOM     22  H   PRO A   1       0.975   8.484  20.723  0.00  0.00    +0.000 HD
ENDBRANCH  14  17
ENDBRANCH   1  13
BRANCH   1  23
ATOM     23  CB  PRO A   1       2.244   2.946  18.373  0.00  0.00    +0.000 C 
ATOM     24  CG1 PRO A   1       3.058   1.659  18.183  0.00  0.00    +0.000 C 
ATOM     25  CG2 PRO A   1       0.870   2.577  18.944  0.00  0.00    +0.000 C 
ENDBRANCH   1  23
TORSDOF 8
ENDMDL
MODEL 5
REMARK VINA RESULT:      -6.9      2.101      6.111
REMARK  Name = 
REMARK  12 active torsions:
REMARK  status: ('A' for Active; 'I' for Inactive)
REMARK    1  A    between atoms: CD1_1  and  CG_2
REMARK    2  A    between atoms: CG_2  and  CD2_3
REMARK    3  A    between atoms: CG_2  and  CB_4
REMARK    4  A    between atoms: CB_4  and  CA_5
REMARK    5  A    between atoms: CA_5  and  C_6
REMARK    6  A    between atoms: CA_5  and  N_8
REMARK    7  A    between atoms: C_9  and  CA_11
REMARK    8  A    between atoms: CA_11  and  N_12
REMARK    9  A    between atoms: CA_11  and  CB_20
REMARK   10  A    between atoms: C_13  and  CA_15
REMARK   11  A    between atoms: CB_20  and  CG1_21
REMARK   12  A    between atoms: CB_20  and  CG2_22
REMARK                            x       y       z     vdW  Elec       q    Type
REMARK                         _______ _______ _______ _____ _____    ______ ____
ROOT
ATOM      1  CA  PRO A   1       7.030   5.021  16.855  0.00  0.00    +0.000 C 
ENDROOT
BRANCH   1   3
ATOM      2  N   PRO A   1       5.052   3.878  17.786  0.00  0.00    +0.000 N 
ATOM      3  C   PRO A   1       6.268   4.461  18.079  0.00  0.00    +0.000 C 
ATOM      4  O   PRO A   1       6.672   4.576  19.234  0.00  0.00    +0.000 OA
ATOM      5  H   PRO A   1       4.799   3.756  16.808  0.00  0.00    +0.000 HD
BRANCH   2   6
ATOM      6  CA  PRO A   1       4.327   3.122  18.801  0.00  0.00    +0.000 C 
BRANCH   6   7
ATOM      7  C   PRO A   1       3.682   1.932  18.098  0.00  0.00    +0.000 C 
ATOM      8  O   PRO A   1       3.789   0.765  18.469  0.00  0.00    +0.000 OA
ENDBRANCH   6   7
BRANCH   6   9
ATOM      9  CB  PRO A   1       3.280   4.008  19.485  0.00  0.00    +0.000 C 
BRANCH   9  11
ATOM     10  CD1 PRO A   1       1.488   4.818  17.856  0.00  0.00    +0.000 C 
ATOM     11  CG  PRO A   1       2.747   5.185  18.641  0.00  0.00    +0.000 C 
ATOM     12  CD2 PRO A   1       2.455   6.386  19.549  0.00  0.00    +0.000 C 
ENDBRANCH   9  11
ENDBRANCH   6   9
ENDBRANCH   2   6
ENDBRANCH   1   3
BRANCH   1  13
ATOM     13  N   PRO A   1       6.409   4.423  15.676  0.00  0.00    +0.000 N 
ATOM     14  C   PRO A   1       6.889   4.636  14.406  0.00  0.00    +0.000 C 
ATOM     15  O   PRO A   1       7.844   5.373  14.184  0.00  0.00    +0.000 OA
ATOM     16  H   PRO A   1       5.773   3.653  15.827  0.00  0.00    +0.000 HD
BRANCH  14  17
ATOM     17  CA  PRO A   1       6.189   3.923  13.358  0.00  0.00    +0.000 A 
ATOM     18  CB  PRO A   1       4.898   4.030  12.857  0.00  0.00    +0.000 A 
ATOM     19  CG  PRO A   1       4.751   3.099  11.801  0.00  0.00    +0.000 A 
ATOM     20  CD  PRO A   1       5.950   2.440  11.668  0.00  0.00    +0.000 A 
ATOM     21  N   PRO A   1       6.810   2.934  12.614  0.00  0.00    +0.000 N 
ATOM     22  H   PRO A   1       7.770   2.645  12.758  0.00  0.00    +0.000 HD
ENDBRANCH  14  17
ENDBRANCH   1  13
BRANCH   1  23
ATOM     23  CB  PRO A   1       6.938   6.566  16.814  0.00  0.00    +0.000 C 
ATOM     24  CG1 PRO A   1       5.486   7.039  16.957  0.00  0.00    +0.000 C 
ATOM     25  CG2 PRO A   1       7.779   7.223  17.915  0.00  0.00    +0.000 C 
ENDBRANCH   1  23
TORSDOF 8
ENDMDL
MODEL 6
REMARK VINA RESULT:      -6.9      2.113      6.506
REMARK  Name = 
REMARK  12 active torsions:
REMARK  status: ('A' for Active; 'I' for Inactive)
REMARK    1  A    between atoms: CD1_1  and  CG_2
REMARK    2  A    between atoms: CG_2  and  CD2_3
REMARK    3  A    between atoms: CG_2  and  CB_4
REMARK    4  A    between atoms: CB_4  and  CA_5
REMARK    5  A    between atoms: CA_5  and  C_6
REMARK    6  A    between atoms: CA_5  and  N_8
REMARK    7  A    between atoms: C_9  and  CA_11
REMARK    8  A    between atoms: CA_11  and  N_12
REMARK    9  A    between atoms: CA_11  and  CB_20
REMARK   10  A    between atoms: C_13  and  CA_15
REMARK   11  A    between atoms: CB_20  and  CG1_21
REMARK   12  A    between atoms: CB_20  and  CG2_22
REMARK                            x       y       z     vdW  Elec       q    Type
REMARK                         _______ _______ _______ _____ _____    ______ ____
ROOT
ATOM      1  CA  PRO A   1       6.161   5.051  17.423  0.00  0.00    +0.000 C 
ENDROOT
BRANCH   1   3
ATOM      2  N   PRO A   1       3.939   4.228  18.108  0.00  0.00    +0.000 N 
ATOM      3  C   PRO A   1       5.281   4.269  18.426  0.00  0.00    +0.000 C 
ATOM      4  O   PRO A   1       5.719   3.773  19.461  0.00  0.00    +0.000 OA
ATOM      5  H   PRO A   1       3.645   4.603  17.208  0.00  0.00    +0.000 HD
BRANCH   2   6
ATOM      6  CA  PRO A   1       3.029   3.355  18.840  0.00  0.00    +0.000 C 
BRANCH   6   7
ATOM      7  C   PRO A   1       2.929   2.052  18.053  0.00  0.00    +0.000 C 
ATOM      8  O   PRO A   1       2.149   1.862  17.122  0.00  0.00    +0.000 OA
ENDBRANCH   6   7
BRANCH   6   9
ATOM      9  CB  PRO A   1       1.659   4.022  19.002  0.00  0.00    +0.000 C 
BRANCH   9  11
ATOM     10  CD1 PRO A   1       1.933   3.554  21.499  0.00  0.00    +0.000 C 
ATOM     11  CG  PRO A   1       1.291   4.450  20.439  0.00  0.00    +0.000 C 
ATOM     12  CD2 PRO A   1       1.714   5.905  20.672  0.00  0.00    +0.000 C 
ENDBRANCH   9  11
ENDBRANCH   6   9
ENDBRANCH   2   6
ENDBRANCH   1   3
BRANCH   1  13
ATOM     13  N   PRO A   1       5.777   4.588  16.092  0.00  0.00    +0.000 N 
ATOM     14  C   PRO A   1       6.687   4.453  15.070  0.00  0.00    +0.000 C 
ATOM     15  O   PRO A   1       7.869   4.751  15.205  0.00  0.00    +0.000 OA
ATOM     16  H   PRO A   1       4.880   4.133  16.001  0.00  0.00    +0.000 HD
BRANCH  14  17
ATOM     17  CA  PRO A   1       6.147   3.929  13.833  0.00  0.00    +0.000 A 
ATOM     18  CB  PRO A   1       4.865   3.935  13.297  0.00  0.00    +0.000 A 
ATOM     19  CG  PRO A   1       4.909   3.305  12.031  0.00  0.00    +0.000 A 
ATOM     20  CD  PRO A   1       6.211   2.926  11.808  0.00  0.00    +0.000 A 
ATOM     21  N   PRO A   1       6.951   3.296  12.900  0.00  0.00    +0.000 N 
ATOM     22  H   PRO A   1       7.946   3.153  13.025  0.00  0.00    +0.000 HD
ENDBRANCH  14  17
ENDBRANCH   1  13
BRANCH   1  23
ATOM     23  CB  PRO A   1       5.939   6.576  17.571  0.00  0.00    +0.000 C 
ATOM     24  CG1 PRO A   1       7.260   7.344  17.439  0.00  0.00    +0.000 C 
ATOM     25  CG2 PRO A   1       4.949   7.118  16.533  0.00  0.00    +0.000 C 
ENDBRANCH   1  23
TORSDOF 8
ENDMDL
MODEL 7
REMARK VINA RESULT:      -6.7      2.660      4.475
REMARK  Name = 
REMARK  12 active torsions:
REMARK  status: ('A' for Active; 'I' for Inactive)
REMARK    1  A    between atoms: CD1_1  and  CG_2
REMARK    2  A    between atoms: CG_2  and  CD2_3
REMARK    3  A    between atoms: CG_2  and  CB_4
REMARK    4  A    between atoms: CB_4  and  CA_5
REMARK    5  A    between atoms: CA_5  and  C_6
REMARK    6  A    between atoms: CA_5  and  N_8
REMARK    7  A    between atoms: C_9  and  CA_11
REMARK    8  A    between atoms: CA_11  and  N_12
REMARK    9  A    between atoms: CA_11  and  CB_20
REMARK   10  A    between atoms: C_13  and  CA_15
REMARK   11  A    between atoms: CB_20  and  CG1_21
REMARK   12  A    between atoms: CB_20  and  CG2_22
REMARK                            x       y       z     vdW  Elec       q    Type
REMARK                         _______ _______ _______ _____ _____    ______ ____
ROOT
ATOM      1  CA  PRO A   1       3.331   4.331  18.922  0.00  0.00    +0.000 C 
ENDROOT
BRANCH   1   3
ATOM      2  N   PRO A   1       5.255   4.856  17.470  0.00  0.00    +0.000 N 
ATOM      3  C   PRO A   1       4.856   4.292  18.664  0.00  0.00    +0.000 C 
ATOM      4  O   PRO A   1       5.652   3.749  19.425  0.00  0.00    +0.000 OA
ATOM      5  H   PRO A   1       4.559   5.345  16.911  0.00  0.00    +0.000 HD
BRANCH   2   6
ATOM      6  CA  PRO A   1       6.668   5.083  17.192  0.00  0.00    +0.000 C 
BRANCH   6   7
ATOM      7  C   PRO A   1       6.865   6.590  17.072  0.00  0.00    +0.000 C 
ATOM      8  O   PRO A   1       7.903   7.126  16.688  0.00  0.00    +0.000 OA
ENDBRANCH   6   7
BRANCH   6   9
ATOM      9  CB  PRO A   1       7.087   4.355  15.909  0.00  0.00    +0.000 C 
BRANCH   9  11
ATOM     10  CD1 PRO A   1       7.584   5.178  13.543  0.00  0.00    +0.000 C 
ATOM     11  CG  PRO A   1       6.507   4.927  14.598  0.00  0.00    +0.000 C 
ATOM     12  CD2 PRO A   1       5.451   3.968  14.036  0.00  0.00    +0.000 C 
ENDBRANCH   9  11
ENDBRANCH   6   9
ENDBRANCH   2   6
ENDBRANCH   1   3
BRANCH   1  13
ATOM     13  N   PRO A   1       2.897   5.692  18.615  0.00  0.00    +0.000 N 
ATOM     14  C   PRO A   1       2.283   6.494  19.547  0.00  0.00    +0.000 C 
ATOM     15  O   PRO A   1       2.028   6.101  20.681  0.00  0.00    +0.000 OA
ATOM     16  H   PRO A   1       3.275   6.122  17.784  0.00  0.00    +0.000 HD
BRANCH  14  17
ATOM     17  CA  PRO A   1       1.969   7.832  19.092  0.00  0.00    +0.000 A 
ATOM     18  CB  PRO A   1       2.181   8.481  17.882  0.00  0.00    +0.000 A 
ATOM     19  CG  PRO A   1       1.641   9.786  17.975  0.00  0.00    +0.000 A 
ATOM     20  CD  PRO A   1       1.104   9.916  19.233  0.00  0.00    +0.000 A 
ATOM     21  N   PRO A   1       1.312   8.740  19.905  0.00  0.00    +0.000 N 
ATOM     22  H   PRO A   1       1.024   8.534  20.854  0.00  0.00    +0.000 HD
ENDBRANCH  14  17
ENDBRANCH   1  13
BRANCH   1  23
ATOM     23  CB  PRO A   1       2.599   3.296  18.032  0.00  0.00    +0.000 C 
ATOM     24  CG1 PRO A   1       3.324   1.943  18.046  0.00  0.00    +0.000 C 
ATOM     25  CG2 PRO A   1       1.148   3.079  18.475  0.00  0.00    +0.000 C 
ENDBRANCH   1  23
TORSDOF 8
ENDMDL
MODEL 8
REMARK VINA RESULT:      -6.6      2.111      6.419
REMARK  Name = 
REMARK  12 active torsions:
REMARK  status: ('A' for Active; 'I' for Inactive)
REMARK    1  A    between atoms: CD1_1  and  CG_2
REMARK    2  A    between atoms: CG_2  and  CD2_3
REMARK    3  A    between atoms: CG_2  and  CB_4
REMARK    4  A    between atoms: CB_4  and  CA_5
REMARK    5  A    between atoms: CA_5  and  C_6
REMARK    6  A    between atoms: CA_5  and  N_8
REMARK    7  A    between atoms: C_9  and  CA_11
REMARK    8  A    between atoms: CA_11  and  N_12
REMARK    9  A    between atoms: CA_11  and  CB_20
REMARK   10  A    between atoms: C_13  and  CA_15
REMARK   11  A    between atoms: CB_20  and  CG1_21
REMARK   12  A    between atoms: CB_20  and  CG2_22
REMARK                            x       y       z     vdW  Elec       q    Type
REMARK                         _______ _______ _______ _____ _____    ______ ____
ROOT
ATOM      1  CA  PRO A   1       6.996   5.015  17.061  0.00  0.00    +0.000 C 
ENDROOT
BRANCH   1   3
ATOM      2  N   PRO A   1       4.810   4.121  17.771  0.00  0.00    +0.000 N 
ATOM      3  C   PRO A   1       6.061   4.523  18.190  0.00  0.00    +0.000 C 
ATOM      4  O   PRO A   1       6.374   4.543  19.379  0.00  0.00    +0.000 OA
ATOM      5  H   PRO A   1       4.630   4.068  16.771  0.00  0.00    +0.000 HD
BRANCH   2   6
ATOM      6  CA  PRO A   1       3.904   3.437  18.687  0.00  0.00    +0.000 C 
BRANCH   6   7
ATOM      7  C   PRO A   1       3.617   2.063  18.091  0.00  0.00    +0.000 C 
ATOM      8  O   PRO A   1       2.726   1.311  18.479  0.00  0.00    +0.000 OA
ENDBRANCH   6   7
BRANCH   6   9
ATOM      9  CB  PRO A   1       2.619   4.249  18.878  0.00  0.00    +0.000 C 
BRANCH   9  11
ATOM     10  CD1 PRO A   1       1.766   5.874  20.655  0.00  0.00    +0.000 C 
ATOM     11  CG  PRO A   1       2.152   4.429  20.338  0.00  0.00    +0.000 C 
ATOM     12  CD2 PRO A   1       0.962   3.505  20.621  0.00  0.00    +0.000 C 
ENDBRANCH   9  11
ENDBRANCH   6   9
ENDBRANCH   2   6
ENDBRANCH   1   3
BRANCH   1  13
ATOM     13  N   PRO A   1       6.459   4.470  15.816  0.00  0.00    +0.000 N 
ATOM     14  C   PRO A   1       7.016   4.751  14.591  0.00  0.00    +0.000 C 
ATOM     15  O   PRO A   1       7.975   5.506  14.467  0.00  0.00    +0.000 OA
ATOM     16  H   PRO A   1       5.824   3.689  15.889  0.00  0.00    +0.000 HD
BRANCH  14  17
ATOM     17  CA  PRO A   1       6.393   4.083  13.468  0.00  0.00    +0.000 A 
ATOM     18  CB  PRO A   1       6.918   3.444  12.352  0.00  0.00    +0.000 A 
ATOM     19  CG  PRO A   1       5.845   2.935  11.583  0.00  0.00    +0.000 A 
ATOM     20  CD  PRO A   1       4.682   3.265  12.236  0.00  0.00    +0.000 A 
ATOM     21  N   PRO A   1       5.017   3.964  13.366  0.00  0.00    +0.000 N 
ATOM     22  H   PRO A   1       4.371   4.337  14.052  0.00  0.00    +0.000 HD
ENDBRANCH  14  17
ENDBRANCH   1  13
BRANCH   1  23
ATOM     23  CB  PRO A   1       7.040   6.563  17.022  0.00  0.00    +0.000 C 
ATOM     24  CG1 PRO A   1       5.630   7.159  17.124  0.00  0.00    +0.000 C 
ATOM     25  CG2 PRO A   1       7.902   7.143  18.149  0.00  0.00    +0.000 C 
ENDBRANCH   1  23
TORSDOF 8
ENDMDL
MODEL 9
REMARK VINA RESULT:      -6.6      1.941      6.429
REMARK  Name = 
REMARK  12 active torsions:
REMARK  status: ('A' for Active; 'I' for Inactive)
REMARK    1  A    between atoms: CD1_1  and  CG_2
REMARK    2  A    between atoms: CG_2  and  CD2_3
REMARK    3  A    between atoms: CG_2  and  CB_4
REMARK    4  A    between atoms: CB_4  and  CA_5
REMARK    5  A    between atoms: CA_5  and  C_6
REMARK    6  A    between atoms: CA_5  and  N_8
REMARK    7  A    between atoms: C_9  and  CA_11
REMARK    8  A    between atoms: CA_11  and  N_12
REMARK    9  A    between atoms: CA_11  and  CB_20
REMARK   10  A    between atoms: C_13  and  CA_15
REMARK   11  A    between atoms: CB_20  and  CG1_21
REMARK   12  A    between atoms: CB_20  and  CG2_22
REMARK                            x       y       z     vdW  Elec       q    Type
REMARK                         _______ _______ _______ _____ _____    ______ ____
ROOT
ATOM      1  CA  PRO A   1       6.761   4.965  16.774  0.00  0.00    +0.000 C 
ENDROOT
BRANCH   1   3
ATOM      2  N   PRO A   1       4.786   3.722  17.575  0.00  0.00    +0.000 N 
ATOM      3  C   PRO A   1       5.996   4.281  17.931  0.00  0.00    +0.000 C 
ATOM      4  O   PRO A   1       6.394   4.284  19.094  0.00  0.00    +0.000 OA
ATOM      5  H   PRO A   1       4.539   3.697  16.587  0.00  0.00    +0.000 HD
BRANCH   2   6
ATOM      6  CA  PRO A   1       4.061   2.865  18.505  0.00  0.00    +0.000 C 
BRANCH   6   7
ATOM      7  C   PRO A   1       2.786   2.416  17.799  0.00  0.00    +0.000 C 
ATOM      8  O   PRO A   1       2.249   3.030  16.880  0.00  0.00    +0.000 OA
ENDBRANCH   6   7
BRANCH   6   9
ATOM      9  CB  PRO A   1       3.752   3.619  19.803  0.00  0.00    +0.000 C 
BRANCH   9  11
ATOM     10  CD1 PRO A   1       2.082   2.861  21.580  0.00  0.00    +0.000 C 
ATOM     11  CG  PRO A   1       2.276   3.595  20.254  0.00  0.00    +0.000 C 
ATOM     12  CD2 PRO A   1       1.748   5.030  20.378  0.00  0.00    +0.000 C 
ENDBRANCH   9  11
ENDBRANCH   6   9
ENDBRANCH   2   6
ENDBRANCH   1   3
BRANCH   1  13
ATOM     13  N   PRO A   1       6.261   4.364  15.540  0.00  0.00    +0.000 N 
ATOM     14  C   PRO A   1       6.840   4.608  14.317  0.00  0.00    +0.000 C 
ATOM     15  O   PRO A   1       7.788   5.377  14.185  0.00  0.00    +0.000 OA
ATOM     16  H   PRO A   1       5.639   3.574  15.628  0.00  0.00    +0.000 HD
BRANCH  14  17
ATOM     17  CA  PRO A   1       6.255   3.888  13.207  0.00  0.00    +0.000 A 
ATOM     18  CB  PRO A   1       6.806   3.068  12.230  0.00  0.00    +0.000 A 
ATOM     19  CG  PRO A   1       5.760   2.595  11.402  0.00  0.00    +0.000 A 
ATOM     20  CD  PRO A   1       4.587   3.125  11.883  0.00  0.00    +0.000 A 
ATOM     21  N   PRO A   1       4.891   3.910  12.964  0.00  0.00    +0.000 N 
ATOM     22  H   PRO A   1       4.231   4.430  13.530  0.00  0.00    +0.000 HD
ENDBRANCH  14  17
ENDBRANCH   1  13
BRANCH   1  23
ATOM     23  CB  PRO A   1       6.521   6.495  16.788  0.00  0.00    +0.000 C 
ATOM     24  CG1 PRO A   1       5.099   6.829  17.257  0.00  0.00    +0.000 C 
ATOM     25  CG2 PRO A   1       7.520   7.226  17.692  0.00  0.00    +0.000 C 
ENDBRANCH   1  23
TORSDOF 8
ENDMDL
