MODEL 1
REMARK VINA RESULT:      -9.2      0.000      0.000
REMARK  Name = 
REMARK  3 active torsions:
REMARK  status: ('A' for Active; 'I' for Inactive)
REMARK    1  A    between atoms: C_1  and  C_2
REMARK    2  A    between atoms: C_2  and  C_3
REMARK    3  A    between atoms: C_3  and  C_4
REMARK                            x       y       z     vdW  Elec       q    Type
REMARK                         _______ _______ _______ _____ _____    ______ ____
ROOT
ATOM      1  C   UNL     1       2.612   6.381  19.613  0.00  0.00    +0.000 A 
ATOM      2  C   UNL     1       2.291   7.725  19.283  0.00  0.00    +0.000 A 
ATOM      3  N   UNL     1       2.744   8.249  18.104  0.00  0.00    +0.000 N 
ATOM      4  C   UNL     1       3.679   7.613  17.371  0.00  0.00    +0.000 A 
ATOM      5  C   UNL     1       4.148   6.352  17.727  0.00  0.00    +0.000 A 
ATOM      6  C   UNL     1       5.134   5.706  16.984  0.00  0.00    +0.000 A 
ATOM      7  C   UNL     1       5.583   4.449  17.301  0.00  0.00    +0.000 A 
ATOM      8  C   UNL     1       5.069   3.755  18.367  0.00  0.00    +0.000 A 
ATOM      9  C   UNL     1       4.071   4.375  19.128  0.00  0.00    +0.000 A 
ATOM     10  C   UNL     1       3.595   5.692  18.844  0.00  0.00    +0.000 A 
ATOM     11  O   UNL     1       6.551   4.004  16.463  0.00  0.00    +0.000 OA
ATOM     12  C   UNL     1       6.661   5.113  15.552  0.00  0.00    +0.000 C 
ATOM     13  O   UNL     1       5.768   6.207  15.884  0.00  0.00    +0.000 OA
ATOM     14  C   UNL     1       2.175   9.527  17.583  0.00  0.00    +0.000 C 
ATOM     15  C   UNL     1       0.671   9.571  17.869  0.00  0.00    +0.000 C 
ATOM     16  C   UNL     1       0.495   9.452  19.359  0.00  0.00    +0.000 A 
ATOM     17  C   UNL     1      -0.501  10.168  20.039  0.00  0.00    +0.000 A 
ATOM     18  C   UNL     1      -0.470  10.142  21.416  0.00  0.00    +0.000 A 
ATOM     19  C   UNL     1       0.522   9.487  22.101  0.00  0.00    +0.000 A 
ATOM     20  C   UNL     1       1.489   8.747  21.453  0.00  0.00    +0.000 A 
ATOM     21  C   UNL     1       1.420   8.631  20.055  0.00  0.00    +0.000 A 
ATOM     22  O   UNL     1       0.416   9.638  23.446  0.00  0.00    +0.000 OA
ATOM     23  C   UNL     1      -0.800  10.414  23.538  0.00  0.00    +0.000 C 
ATOM     24  O   UNL     1      -1.346  10.764  22.247  0.00  0.00    +0.000 OA
ENDROOT
BRANCH   1  25
ATOM     25  C   UNL     1       1.845   5.633  20.702  0.00  0.00    +0.000 C 
BRANCH  25  27
ATOM     26  C   UNL     1       1.179   3.162  20.942  0.00  0.00    +0.000 C 
ATOM     27  C   UNL     1       0.984   4.470  20.182  0.00  0.00    +0.000 C 
ENDBRANCH  25  27
ENDBRANCH   1  25
TORSDOF 2
ENDMDL
MODEL 2
REMARK VINA RESULT:      -7.7      5.937      8.083
REMARK  Name = 
REMARK  3 active torsions:
REMARK  status: ('A' for Active; 'I' for Inactive)
REMARK    1  A    between atoms: C_1  and  C_2
REMARK    2  A    between atoms: C_2  and  C_3
REMARK    3  A    between atoms: C_3  and  C_4
REMARK                            x       y       z     vdW  Elec       q    Type
REMARK                         _______ _______ _______ _____ _____    ______ ____
ROOT
ATOM      1  C   UNL     1      -1.535  11.993  20.840  0.00  0.00    +0.000 A 
ATOM      2  C   UNL     1      -2.528  12.885  21.325  0.00  0.00    +0.000 A 
ATOM      3  N   UNL     1      -3.721  12.981  20.662  0.00  0.00    +0.000 N 
ATOM      4  C   UNL     1      -3.883  12.443  19.438  0.00  0.00    +0.000 A 
ATOM      5  C   UNL     1      -2.883  11.681  18.840  0.00  0.00    +0.000 A 
ATOM      6  C   UNL     1      -3.041  11.146  17.563  0.00  0.00    +0.000 A 
ATOM      7  C   UNL     1      -2.081  10.365  16.973  0.00  0.00    +0.000 A 
ATOM      8  C   UNL     1      -0.912  10.057  17.623  0.00  0.00    +0.000 A 
ATOM      9  C   UNL     1      -0.728  10.574  18.911  0.00  0.00    +0.000 A 
ATOM     10  C   UNL     1      -1.694  11.411  19.549  0.00  0.00    +0.000 A 
ATOM     11  O   UNL     1      -2.422   9.954  15.727  0.00  0.00    +0.000 OA
ATOM     12  C   UNL     1      -3.727  10.545  15.587  0.00  0.00    +0.000 C 
ATOM     13  O   UNL     1      -4.125  11.316  16.749  0.00  0.00    +0.000 OA
ATOM     14  C   UNL     1      -4.886  13.656  21.307  0.00  0.00    +0.000 C 
ATOM     15  C   UNL     1      -4.909  13.318  22.801  0.00  0.00    +0.000 C 
ATOM     16  C   UNL     1      -3.603  13.786  23.386  0.00  0.00    +0.000 A 
ATOM     17  C   UNL     1      -3.535  14.350  24.668  0.00  0.00    +0.000 A 
ATOM     18  C   UNL     1      -2.339  14.917  25.047  0.00  0.00    +0.000 A 
ATOM     19  C   UNL     1      -1.269  14.978  24.190  0.00  0.00    +0.000 A 
ATOM     20  C   UNL     1      -1.303  14.398  22.939  0.00  0.00    +0.000 A 
ATOM     21  C   UNL     1      -2.454  13.689  22.560  0.00  0.00    +0.000 A 
ATOM     22  O   UNL     1      -0.209  15.637  24.724  0.00  0.00    +0.000 OA
ATOM     23  C   UNL     1      -0.709  15.932  26.048  0.00  0.00    +0.000 C 
ATOM     24  O   UNL     1      -2.076  15.504  26.243  0.00  0.00    +0.000 OA
ENDROOT
BRANCH   1  25
ATOM     25  C   UNL     1      -0.361  11.566  21.721  0.00  0.00    +0.000 C 
BRANCH  25  27
ATOM     26  C   UNL     1      -0.362   9.099  22.442  0.00  0.00    +0.000 C 
ATOM     27  C   UNL     1      -0.726  10.536  22.803  0.00  0.00    +0.000 C 
ENDBRANCH  25  27
ENDBRANCH   1  25
TORSDOF 2
ENDMDL
MODEL 3
REMARK VINA RESULT:      -7.3      2.625      5.031
REMARK  Name = 
REMARK  3 active torsions:
REMARK  status: ('A' for Active; 'I' for Inactive)
REMARK    1  A    between atoms: C_1  and  C_2
REMARK    2  A    between atoms: C_2  and  C_3
REMARK    3  A    between atoms: C_3  and  C_4
REMARK                            x       y       z     vdW  Elec       q    Type
REMARK                         _______ _______ _______ _____ _____    ______ ____
ROOT
ATOM      1  C   UNL     1       0.883   9.999  19.391  0.00  0.00    +0.000 A 
ATOM      2  C   UNL     1       0.062   9.886  20.545  0.00  0.00    +0.000 A 
ATOM      3  N   UNL     1       0.254   8.837  21.401  0.00  0.00    +0.000 N 
ATOM      4  C   UNL     1       1.024   7.787  21.056  0.00  0.00    +0.000 A 
ATOM      5  C   UNL     1       1.738   7.770  19.860  0.00  0.00    +0.000 A 
ATOM      6  C   UNL     1       2.513   6.673  19.492  0.00  0.00    +0.000 A 
ATOM      7  C   UNL     1       3.249   6.654  18.335  0.00  0.00    +0.000 A 
ATOM      8  C   UNL     1       3.270   7.729  17.483  0.00  0.00    +0.000 A 
ATOM      9  C   UNL     1       2.507   8.849  17.831  0.00  0.00    +0.000 A 
ATOM     10  C   UNL     1       1.708   8.898  19.014  0.00  0.00    +0.000 A 
ATOM     11  O   UNL     1       3.924   5.491  18.154  0.00  0.00    +0.000 OA
ATOM     12  C   UNL     1       3.553   4.768  19.342  0.00  0.00    +0.000 C 
ATOM     13  O   UNL     1       2.645   5.510  20.195  0.00  0.00    +0.000 OA
ATOM     14  C   UNL     1      -0.361   8.857  22.761  0.00  0.00    +0.000 C 
ATOM     15  C   UNL     1      -0.302  10.279  23.327  0.00  0.00    +0.000 C 
ATOM     16  C   UNL     1      -1.044  11.173  22.371  0.00  0.00    +0.000 A 
ATOM     17  C   UNL     1      -1.836  12.236  22.826  0.00  0.00    +0.000 A 
ATOM     18  C   UNL     1      -2.622  12.883  21.898  0.00  0.00    +0.000 A 
ATOM     19  C   UNL     1      -2.671  12.475  20.589  0.00  0.00    +0.000 A 
ATOM     20  C   UNL     1      -1.874  11.455  20.113  0.00  0.00    +0.000 A 
ATOM     21  C   UNL     1      -0.956  10.856  20.991  0.00  0.00    +0.000 A 
ATOM     22  O   UNL     1      -3.556  13.193  19.851  0.00  0.00    +0.000 OA
ATOM     23  C   UNL     1      -4.016  14.150  20.832  0.00  0.00    +0.000 C 
ATOM     24  O   UNL     1      -3.448  13.933  22.143  0.00  0.00    +0.000 OA
ENDROOT
BRANCH   1  25
ATOM     25  C   UNL     1       0.977  11.311  18.614  0.00  0.00    +0.000 C 
BRANCH  25  27
ATOM     26  C   UNL     1       2.708  13.182  18.284  0.00  0.00    +0.000 C 
ATOM     27  C   UNL     1       1.877  12.370  19.272  0.00  0.00    +0.000 C 
ENDBRANCH  25  27
ENDBRANCH   1  25
TORSDOF 2
ENDMDL
MODEL 4
REMARK VINA RESULT:      -7.2      6.790     11.270
REMARK  Name = 
REMARK  3 active torsions:
REMARK  status: ('A' for Active; 'I' for Inactive)
REMARK    1  A    between atoms: C_1  and  C_2
REMARK    2  A    between atoms: C_2  and  C_3
REMARK    3  A    between atoms: C_3  and  C_4
REMARK                            x       y       z     vdW  Elec       q    Type
REMARK                         _______ _______ _______ _____ _____    ______ ____
ROOT
ATOM      1  C   UNL     1      -5.705  12.097  19.508  0.00  0.00    +0.000 A 
ATOM      2  C   UNL     1      -4.327  12.118  19.163  0.00  0.00    +0.000 A 
ATOM      3  N   UNL     1      -3.428  12.669  20.034  0.00  0.00    +0.000 N 
ATOM      4  C   UNL     1      -3.837  13.403  21.087  0.00  0.00    +0.000 A 
ATOM      5  C   UNL     1      -5.188  13.548  21.391  0.00  0.00    +0.000 A 
ATOM      6  C   UNL     1      -5.612  14.330  22.464  0.00  0.00    +0.000 A 
ATOM      7  C   UNL     1      -6.936  14.456  22.798  0.00  0.00    +0.000 A 
ATOM      8  C   UNL     1      -7.916  13.802  22.095  0.00  0.00    +0.000 A 
ATOM      9  C   UNL     1      -7.520  13.003  21.017  0.00  0.00    +0.000 A 
ATOM     10  C   UNL     1      -6.154  12.866  20.622  0.00  0.00    +0.000 A 
ATOM     11  O   UNL     1      -7.140  15.269  23.865  0.00  0.00    +0.000 OA
ATOM     12  C   UNL     1      -5.788  15.638  24.193  0.00  0.00    +0.000 C 
ATOM     13  O   UNL     1      -4.809  15.052  23.299  0.00  0.00    +0.000 OA
ATOM     14  C   UNL     1      -1.966  12.429  19.855  0.00  0.00    +0.000 C 
ATOM     15  C   UNL     1      -1.738  10.988  19.388  0.00  0.00    +0.000 C 
ATOM     16  C   UNL     1      -2.491  10.811  18.097  0.00  0.00    +0.000 A 
ATOM     17  C   UNL     1      -1.976  10.036  17.048  0.00  0.00    +0.000 A 
ATOM     18  C   UNL     1      -2.641  10.081  15.843  0.00  0.00    +0.000 A 
ATOM     19  C   UNL     1      -3.733  10.888  15.654  0.00  0.00    +0.000 A 
ATOM     20  C   UNL     1      -4.278  11.630  16.682  0.00  0.00    +0.000 A 
ATOM     21  C   UNL     1      -3.717  11.512  17.964  0.00  0.00    +0.000 A 
ATOM     22  O   UNL     1      -4.202  10.845  14.381  0.00  0.00    +0.000 OA
ATOM     23  C   UNL     1      -3.316   9.862  13.797  0.00  0.00    +0.000 C 
ATOM     24  O   UNL     1      -2.301   9.401  14.717  0.00  0.00    +0.000 OA
ENDROOT
BRANCH   1  25
ATOM     25  C   UNL     1      -6.688  11.185  18.776  0.00  0.00    +0.000 C 
BRANCH  25  27
ATOM     26  C   UNL     1      -7.545   9.365  20.375  0.00  0.00    +0.000 C 
ATOM     27  C   UNL     1      -6.624   9.712  19.210  0.00  0.00    +0.000 C 
ENDBRANCH  25  27
ENDBRANCH   1  25
TORSDOF 2
ENDMDL
MODEL 5
REMARK VINA RESULT:      -7.2      4.195      9.444
REMARK  Name = 
REMARK  3 active torsions:
REMARK  status: ('A' for Active; 'I' for Inactive)
REMARK    1  A    between atoms: C_1  and  C_2
REMARK    2  A    between atoms: C_2  and  C_3
REMARK    3  A    between atoms: C_3  and  C_4
REMARK                            x       y       z     vdW  Elec       q    Type
REMARK                         _______ _______ _______ _____ _____    ______ ____
ROOT
ATOM      1  C   UNL     1      -2.778  10.970  18.768  0.00  0.00    +0.000 A 
ATOM      2  C   UNL     1      -1.694  10.989  19.686  0.00  0.00    +0.000 A 
ATOM      3  N   UNL     1      -1.811  11.711  20.842  0.00  0.00    +0.000 N 
ATOM      4  C   UNL     1      -2.816  12.591  21.016  0.00  0.00    +0.000 A 
ATOM      5  C   UNL     1      -3.833  12.729  20.075  0.00  0.00    +0.000 A 
ATOM      6  C   UNL     1      -4.858  13.658  20.243  0.00  0.00    +0.000 A 
ATOM      7  C   UNL     1      -5.885  13.784  19.343  0.00  0.00    +0.000 A 
ATOM      8  C   UNL     1      -5.963  12.984  18.231  0.00  0.00    +0.000 A 
ATOM      9  C   UNL     1      -4.951  12.036  18.040  0.00  0.00    +0.000 A 
ATOM     10  C   UNL     1      -3.852  11.891  18.941  0.00  0.00    +0.000 A 
ATOM     11  O   UNL     1      -6.773  14.751  19.682  0.00  0.00    +0.000 OA
ATOM     12  C   UNL     1      -6.209  15.224  20.919  0.00  0.00    +0.000 C 
ATOM     13  O   UNL     1      -4.982  14.539  21.278  0.00  0.00    +0.000 OA
ATOM     14  C   UNL     1      -0.841  11.504  21.957  0.00  0.00    +0.000 C 
ATOM     15  C   UNL     1      -0.491  10.017  22.060  0.00  0.00    +0.000 C 
ATOM     16  C   UNL     1       0.090   9.600  20.736  0.00  0.00    +0.000 A 
ATOM     17  C   UNL     1       1.150   8.686  20.654  0.00  0.00    +0.000 A 
ATOM     18  C   UNL     1       1.737   8.505  19.422  0.00  0.00    +0.000 A 
ATOM     19  C   UNL     1       1.341   9.226  18.324  0.00  0.00    +0.000 A 
ATOM     20  C   UNL     1       0.278  10.104  18.374  0.00  0.00    +0.000 A 
ATOM     21  C   UNL     1      -0.440  10.220  19.575  0.00  0.00    +0.000 A 
ATOM     22  O   UNL     1       2.087   8.956  17.224  0.00  0.00    +0.000 OA
ATOM     23  C   UNL     1       2.966   7.928  17.736  0.00  0.00    +0.000 C 
ATOM     24  O   UNL     1       2.767   7.664  19.143  0.00  0.00    +0.000 OA
ENDROOT
BRANCH   1  25
ATOM     25  C   UNL     1      -2.862   9.911  17.670  0.00  0.00    +0.000 C 
BRANCH  25  27
ATOM     26  C   UNL     1      -3.295   9.958  15.137  0.00  0.00    +0.000 C 
ATOM     27  C   UNL     1      -2.396  10.398  16.288  0.00  0.00    +0.000 C 
ENDBRANCH  25  27
ENDBRANCH   1  25
TORSDOF 2
ENDMDL
MODEL 6
REMARK VINA RESULT:      -6.9      6.186      8.188
REMARK  Name = 
REMARK  3 active torsions:
REMARK  status: ('A' for Active; 'I' for Inactive)
REMARK    1  A    between atoms: C_1  and  C_2
REMARK    2  A    between atoms: C_2  and  C_3
REMARK    3  A    between atoms: C_3  and  C_4
REMARK                            x       y       z     vdW  Elec       q    Type
REMARK                         _______ _______ _______ _____ _____    ______ ____
ROOT
ATOM      1  C   UNL     1      -1.717  11.826  20.623  0.00  0.00    +0.000 A 
ATOM      2  C   UNL     1      -2.715  12.713  21.107  0.00  0.00    +0.000 A 
ATOM      3  N   UNL     1      -3.895  12.825  20.426  0.00  0.00    +0.000 N 
ATOM      4  C   UNL     1      -4.040  12.309  19.190  0.00  0.00    +0.000 A 
ATOM      5  C   UNL     1      -3.032  11.554  18.596  0.00  0.00    +0.000 A 
ATOM      6  C   UNL     1      -3.171  11.042  17.307  0.00  0.00    +0.000 A 
ATOM      7  C   UNL     1      -2.204  10.268  16.720  0.00  0.00    +0.000 A 
ATOM      8  C   UNL     1      -1.047   9.944  17.383  0.00  0.00    +0.000 A 
ATOM      9  C   UNL     1      -0.883  10.437  18.683  0.00  0.00    +0.000 A 
ATOM     10  C   UNL     1      -1.856  11.267  19.319  0.00  0.00    +0.000 A 
ATOM     11  O   UNL     1      -2.526   9.880  15.461  0.00  0.00    +0.000 OA
ATOM     12  C   UNL     1      -3.826  10.478  15.311  0.00  0.00    +0.000 C 
ATOM     13  O   UNL     1      -4.241  11.230  16.479  0.00  0.00    +0.000 OA
ATOM     14  C   UNL     1      -5.069  13.493  21.064  0.00  0.00    +0.000 C 
ATOM     15  C   UNL     1      -5.118  13.129  22.551  0.00  0.00    +0.000 C 
ATOM     16  C   UNL     1      -3.821  13.582  23.165  0.00  0.00    +0.000 A 
ATOM     17  C   UNL     1      -3.771  14.123  24.458  0.00  0.00    +0.000 A 
ATOM     18  C   UNL     1      -2.580  14.679  24.867  0.00  0.00    +0.000 A 
ATOM     19  C   UNL     1      -1.496  14.751  24.029  0.00  0.00    +0.000 A 
ATOM     20  C   UNL     1      -1.511  14.193  22.768  0.00  0.00    +0.000 A 
ATOM     21  C   UNL     1      -2.659  13.495  22.357  0.00  0.00    +0.000 A 
ATOM     22  O   UNL     1      -0.442  15.396  24.592  0.00  0.00    +0.000 OA
ATOM     23  C   UNL     1      -0.963  15.670  25.912  0.00  0.00    +0.000 C 
ATOM     24  O   UNL     1      -2.335  15.244  26.077  0.00  0.00    +0.000 OA
ENDROOT
BRANCH   1  25
ATOM     25  C   UNL     1      -0.559  11.379  21.516  0.00  0.00    +0.000 C 
BRANCH  25  27
ATOM     26  C   UNL     1       1.046  13.129  20.531  0.00  0.00    +0.000 C 
ATOM     27  C   UNL     1       0.834  11.673  20.935  0.00  0.00    +0.000 C 
ENDBRANCH  25  27
ENDBRANCH   1  25
TORSDOF 2
ENDMDL
MODEL 7
REMARK VINA RESULT:      -6.9      6.400      8.795
REMARK  Name = 
REMARK  3 active torsions:
REMARK  status: ('A' for Active; 'I' for Inactive)
REMARK    1  A    between atoms: C_1  and  C_2
REMARK    2  A    between atoms: C_2  and  C_3
REMARK    3  A    between atoms: C_3  and  C_4
REMARK                            x       y       z     vdW  Elec       q    Type
REMARK                         _______ _______ _______ _____ _____    ______ ____
ROOT
ATOM      1  C   UNL     1      -2.520  12.598  20.695  0.00  0.00    +0.000 A 
ATOM      2  C   UNL     1      -3.721  13.339  20.864  0.00  0.00    +0.000 A 
ATOM      3  N   UNL     1      -4.779  13.092  20.033  0.00  0.00    +0.000 N 
ATOM      4  C   UNL     1      -4.633  12.350  18.919  0.00  0.00    +0.000 A 
ATOM      5  C   UNL     1      -3.429  11.719  18.618  0.00  0.00    +0.000 A 
ATOM      6  C   UNL     1      -3.270  10.974  17.451  0.00  0.00    +0.000 A 
ATOM      7  C   UNL     1      -2.102  10.318  17.156  0.00  0.00    +0.000 A 
ATOM      8  C   UNL     1      -1.028  10.353  18.008  0.00  0.00    +0.000 A 
ATOM      9  C   UNL     1      -1.161  11.088  19.192  0.00  0.00    +0.000 A 
ATOM     10  C   UNL     1      -2.351  11.804  19.523  0.00  0.00    +0.000 A 
ATOM     11  O   UNL     1      -2.148   9.660  15.971  0.00  0.00    +0.000 OA
ATOM     12  C   UNL     1      -3.491   9.951  15.543  0.00  0.00    +0.000 C 
ATOM     13  O   UNL     1      -4.210  10.797  16.476  0.00  0.00    +0.000 OA
ATOM     14  C   UNL     1      -6.136  13.612  20.374  0.00  0.00    +0.000 C 
ATOM     15  C   UNL     1      -6.358  13.511  21.886  0.00  0.00    +0.000 C 
ATOM     16  C   UNL     1      -5.274  14.314  22.552  0.00  0.00    +0.000 A 
ATOM     17  C   UNL     1      -5.525  15.071  23.706  0.00  0.00    +0.000 A 
ATOM     18  C   UNL     1      -4.528  15.916  24.138  0.00  0.00    +0.000 A 
ATOM     19  C   UNL     1      -3.353  16.056  23.443  0.00  0.00    +0.000 A 
ATOM     20  C   UNL     1      -3.071  15.296  22.328  0.00  0.00    +0.000 A 
ATOM     21  C   UNL     1      -4.000  14.322  21.928  0.00  0.00    +0.000 A 
ATOM     22  O   UNL     1      -2.530  16.987  23.990  0.00  0.00    +0.000 OA
ATOM     23  C   UNL     1      -3.295  17.377  25.154  0.00  0.00    +0.000 C 
ATOM     24  O   UNL     1      -4.580  16.721  25.230  0.00  0.00    +0.000 OA
ENDROOT
BRANCH   1  25
ATOM     25  C   UNL     1      -1.460  12.555  21.795  0.00  0.00    +0.000 C 
BRANCH  25  27
ATOM     26  C   UNL     1      -0.853  10.392  23.044  0.00  0.00    +0.000 C 
ATOM     27  C   UNL     1      -1.788  11.593  22.949  0.00  0.00    +0.000 C 
ENDBRANCH  25  27
ENDBRANCH   1  25
TORSDOF 2
ENDMDL
MODEL 8
REMARK VINA RESULT:      -6.8      3.567      6.521
REMARK  Name = 
REMARK  3 active torsions:
REMARK  status: ('A' for Active; 'I' for Inactive)
REMARK    1  A    between atoms: C_1  and  C_2
REMARK    2  A    between atoms: C_2  and  C_3
REMARK    3  A    between atoms: C_3  and  C_4
REMARK                            x       y       z     vdW  Elec       q    Type
REMARK                         _______ _______ _______ _____ _____    ______ ____
ROOT
ATOM      1  C   UNL     1      -0.503  11.340  19.418  0.00  0.00    +0.000 A 
ATOM      2  C   UNL     1      -1.168  11.392  20.672  0.00  0.00    +0.000 A 
ATOM      3  N   UNL     1      -0.765  10.555  21.676  0.00  0.00    +0.000 N 
ATOM      4  C   UNL     1       0.071   9.527  21.435  0.00  0.00    +0.000 A 
ATOM      5  C   UNL     1       0.639   9.332  20.179  0.00  0.00    +0.000 A 
ATOM      6  C   UNL     1       1.482   8.252  19.923  0.00  0.00    +0.000 A 
ATOM      7  C   UNL     1       2.078   8.064  18.701  0.00  0.00    +0.000 A 
ATOM      8  C   UNL     1       1.882   8.944  17.668  0.00  0.00    +0.000 A 
ATOM      9  C   UNL     1       1.046  10.043  17.898  0.00  0.00    +0.000 A 
ATOM     10  C   UNL     1       0.388  10.260  19.148  0.00  0.00    +0.000 A 
ATOM     11  O   UNL     1       2.851   6.950  18.653  0.00  0.00    +0.000 OA
ATOM     12  C   UNL     1       2.701   6.451  19.995  0.00  0.00    +0.000 C 
ATOM     13  O   UNL     1       1.822   7.269  20.807  0.00  0.00    +0.000 OA
ATOM     14  C   UNL     1      -1.217  10.796  23.079  0.00  0.00    +0.000 C 
ATOM     15  C   UNL     1      -1.249  12.302  23.354  0.00  0.00    +0.000 C 
ATOM     16  C   UNL     1      -2.190  12.920  22.355  0.00  0.00    +0.000 A 
ATOM     17  C   UNL     1      -3.036  13.982  22.705  0.00  0.00    +0.000 A 
ATOM     18  C   UNL     1      -3.990  14.360  21.786  0.00  0.00    +0.000 A 
ATOM     19  C   UNL     1      -4.145  13.695  20.597  0.00  0.00    +0.000 A 
ATOM     20  C   UNL     1      -3.301  12.672  20.217  0.00  0.00    +0.000 A 
ATOM     21  C   UNL     1      -2.228  12.341  21.061  0.00  0.00    +0.000 A 
ATOM     22  O   UNL     1      -5.182  14.173  19.862  0.00  0.00    +0.000 OA
ATOM     23  C   UNL     1      -5.628  15.265  20.698  0.00  0.00    +0.000 C 
ATOM     24  O   UNL     1      -4.892  15.364  21.938  0.00  0.00    +0.000 OA
ENDROOT
BRANCH   1  25
ATOM     25  C   UNL     1      -0.644  12.473  18.403  0.00  0.00    +0.000 C 
BRANCH  25  27
ATOM     26  C   UNL     1      -0.324  14.905  19.171  0.00  0.00    +0.000 C 
ATOM     27  C   UNL     1       0.331  13.641  18.622  0.00  0.00    +0.000 C 
ENDBRANCH  25  27
ENDBRANCH   1  25
TORSDOF 2
ENDMDL
MODEL 9
REMARK VINA RESULT:      -6.7      5.937     10.274
REMARK  Name = 
REMARK  3 active torsions:
REMARK  status: ('A' for Active; 'I' for Inactive)
REMARK    1  A    between atoms: C_1  and  C_2
REMARK    2  A    between atoms: C_2  and  C_3
REMARK    3  A    between atoms: C_3  and  C_4
REMARK                            x       y       z     vdW  Elec       q    Type
REMARK                         _______ _______ _______ _____ _____    ______ ____
ROOT
ATOM      1  C   UNL     1      -3.507  12.686  21.046  0.00  0.00    +0.000 A 
ATOM      2  C   UNL     1      -2.331  12.260  20.372  0.00  0.00    +0.000 A 
ATOM      3  N   UNL     1      -1.121  12.385  20.997  0.00  0.00    +0.000 N 
ATOM      4  C   UNL     1      -0.988  13.117  22.120  0.00  0.00    +0.000 A 
ATOM      5  C   UNL     1      -2.090  13.692  22.748  0.00  0.00    +0.000 A 
ATOM      6  C   UNL     1      -1.949  14.471  23.895  0.00  0.00    +0.000 A 
ATOM      7  C   UNL     1      -3.027  15.016  24.545  0.00  0.00    +0.000 A 
ATOM      8  C   UNL     1      -4.308  14.808  24.103  0.00  0.00    +0.000 A 
ATOM      9  C   UNL     1      -4.482  14.022  22.957  0.00  0.00    +0.000 A 
ATOM     10  C   UNL     1      -3.384  13.458  22.239  0.00  0.00    +0.000 A 
ATOM     11  O   UNL     1      -2.677  15.748  25.631  0.00  0.00    +0.000 OA
ATOM     12  C   UNL     1      -1.245  15.596  25.618  0.00  0.00    +0.000 C 
ATOM     13  O   UNL     1      -0.773  14.792  24.509  0.00  0.00    +0.000 OA
ATOM     14  C   UNL     1       0.076  11.671  20.463  0.00  0.00    +0.000 C 
ATOM     15  C   UNL     1      -0.340  10.289  19.950  0.00  0.00    +0.000 C 
ATOM     16  C   UNL     1      -1.380  10.502  18.883  0.00  0.00    +0.000 A 
ATOM     17  C   UNL     1      -1.431   9.695  17.737  0.00  0.00    +0.000 A 
ATOM     18  C   UNL     1      -2.292  10.076  16.733  0.00  0.00    +0.000 A 
ATOM     19  C   UNL     1      -3.036  11.225  16.821  0.00  0.00    +0.000 A 
ATOM     20  C   UNL     1      -3.029  12.013  17.954  0.00  0.00    +0.000 A 
ATOM     21  C   UNL     1      -2.270  11.592  19.058  0.00  0.00    +0.000 A 
ATOM     22  O   UNL     1      -3.767  11.462  15.702  0.00  0.00    +0.000 OA
ATOM     23  C   UNL     1      -3.449  10.292  14.916  0.00  0.00    +0.000 C 
ATOM     24  O   UNL     1      -2.485   9.426  15.556  0.00  0.00    +0.000 OA
ENDROOT
BRANCH   1  25
ATOM     25  C   UNL     1      -4.891  12.241  20.575  0.00  0.00    +0.000 C 
BRANCH  25  27
ATOM     26  C   UNL     1      -7.202  13.264  20.110  0.00  0.00    +0.000 C 
ATOM     27  C   UNL     1      -5.699  13.339  19.863  0.00  0.00    +0.000 C 
ENDBRANCH  25  27
ENDBRANCH   1  25
TORSDOF 2
ENDMDL
