MODEL 1
REMARK VINA RESULT:     -11.1      0.000      0.000
REMARK  Name = 
REMARK  7 active torsions:
REMARK  status: ('A' for Active; 'I' for Inactive)
REMARK    1  A    between atoms: C_1  and  C_2
REMARK    2  A    between atoms: C_4  and  C_5
REMARK    3  A    between atoms: C_5  and  C_6
REMARK    4  A    between atoms: C_5  and  C_14
REMARK    5  A    between atoms: C_14  and  C_15
REMARK    6  A    between atoms: C_14  and  C_16
REMARK    7  A    between atoms: C_20  and  C_21
REMARK                            x       y       z     vdW  Elec       q    Type
REMARK                         _______ _______ _______ _____ _____    ______ ____
ROOT
ATOM      1  C   UNL     1       1.839   9.573  17.855  0.00  0.00    +0.000 C 
ATOM      2  C   UNL     1       2.114   8.342  18.677  0.00  0.00    +0.000 A 
ATOM      3  C   UNL     1       2.619   7.186  17.960  0.00  0.00    +0.000 A 
ATOM      4  C   UNL     1       2.885   6.006  18.558  0.00  0.00    +0.000 A 
ATOM      5  C   UNL     1       2.677   5.933  20.040  0.00  0.00    +0.000 A 
ATOM      6  O   UNL     1       2.909   4.910  20.682  0.00  0.00    +0.000 OA
ATOM      7  N   UNL     1       2.136   7.039  20.632  0.00  0.00    +0.000 N 
ATOM      8  C   UNL     1       1.838   8.210  19.990  0.00  0.00    +0.000 A 
ATOM      9  H   UNL     1       1.953   6.960  21.622  0.00  0.00    +0.000 HD
ENDROOT
BRANCH   8  10
ATOM     10  C   UNL     1       1.019   9.176  20.727  0.00  0.00    +0.000 A 
ATOM     11  C   UNL     1       0.672   8.795  22.032  0.00  0.00    +0.000 A 
ATOM     12  C   UNL     1      -0.123   9.615  22.819  0.00  0.00    +0.000 A 
ATOM     13  C   UNL     1      -0.702  10.753  22.259  0.00  0.00    +0.000 A 
ATOM     14  C   UNL     1      -1.589  11.529  23.000  0.00  0.00    +0.000 A 
ATOM     15  C   UNL     1      -2.621  12.185  22.350  0.00  0.00    +0.000 A 
ATOM     16  C   UNL     1      -2.473  12.471  21.001  0.00  0.00    +0.000 A 
ATOM     17  C   UNL     1      -1.333  12.030  20.328  0.00  0.00    +0.000 A 
ATOM     18  F   UNL     1      -1.130  12.444  19.070  0.00  0.00    +0.000 F 
ATOM     19  C   UNL     1      -0.489  11.067  20.902  0.00  0.00    +0.000 A 
ATOM     20  C   UNL     1       0.480  10.345  20.178  0.00  0.00    +0.000 A 
ENDBRANCH   8  10
BRANCH   4  21
ATOM     21  C   UNL     1       3.326   4.727  17.861  0.00  0.00    +0.000 C 
BRANCH  21  22
ATOM     22  C   UNL     1       4.828   4.569  18.032  0.00  0.00    +0.000 C 
ATOM     23  C   UNL     1       5.738   4.657  17.050  0.00  0.00    +0.000 C 
ATOM     24  O   UNL     1       5.447   4.886  15.716  0.00  0.00    +0.000 OA
ATOM     25  C   UNL     1       6.704   4.945  15.161  0.00  0.00    +0.000 C 
ATOM     26  O   UNL     1       6.896   5.167  13.964  0.00  0.00    +0.000 OA
ATOM     27  N   UNL     1       7.693   4.768  16.057  0.00  0.00    +0.000 N 
ATOM     28  C   UNL     1       7.185   4.553  17.284  0.00  0.00    +0.000 C 
ATOM     29  O   UNL     1       7.760   4.336  18.335  0.00  0.00    +0.000 OA
ATOM     30  H   UNL     1       8.673   4.778  15.834  0.00  0.00    +0.000 HD
ENDBRANCH  21  22
BRANCH  21  31
ATOM     31  C   UNL     1       2.569   3.452  18.354  0.00  0.00    +0.000 C 
ATOM     32  C   UNL     1       1.079   3.516  17.988  0.00  0.00    +0.000 C 
ATOM     33  C   UNL     1       3.151   2.151  17.786  0.00  0.00    +0.000 C 
ENDBRANCH  21  31
ENDBRANCH   4  21
TORSDOF 4
ENDMDL
MODEL 2
REMARK VINA RESULT:     -10.3      0.787      1.009
REMARK  Name = 
REMARK  7 active torsions:
REMARK  status: ('A' for Active; 'I' for Inactive)
REMARK    1  A    between atoms: C_1  and  C_2
REMARK    2  A    between atoms: C_4  and  C_5
REMARK    3  A    between atoms: C_5  and  C_6
REMARK    4  A    between atoms: C_5  and  C_14
REMARK    5  A    between atoms: C_14  and  C_15
REMARK    6  A    between atoms: C_14  and  C_16
REMARK    7  A    between atoms: C_20  and  C_21
REMARK                            x       y       z     vdW  Elec       q    Type
REMARK                         _______ _______ _______ _____ _____    ______ ____
ROOT
ATOM      1  C   UNL     1       1.175   9.515  17.809  0.00  0.00    +0.000 C 
ATOM      2  C   UNL     1       1.805   8.347  18.518  0.00  0.00    +0.000 A 
ATOM      3  C   UNL     1       2.309   7.276  17.677  0.00  0.00    +0.000 A 
ATOM      4  C   UNL     1       2.874   6.156  18.171  0.00  0.00    +0.000 A 
ATOM      5  C   UNL     1       3.010   6.062  19.660  0.00  0.00    +0.000 A 
ATOM      6  O   UNL     1       3.528   5.091  20.209  0.00  0.00    +0.000 OA
ATOM      7  N   UNL     1       2.452   7.077  20.386  0.00  0.00    +0.000 N 
ATOM      8  C   UNL     1       1.848   8.184  19.856  0.00  0.00    +0.000 A 
ATOM      9  H   UNL     1       2.506   6.978  21.389  0.00  0.00    +0.000 HD
ENDROOT
BRANCH   8  10
ATOM     10  C   UNL     1       1.075   9.019  20.779  0.00  0.00    +0.000 A 
ATOM     11  C   UNL     1       0.183   8.324  21.610  0.00  0.00    +0.000 A 
ATOM     12  C   UNL     1      -0.624   9.008  22.508  0.00  0.00    +0.000 A 
ATOM     13  C   UNL     1      -0.654  10.402  22.480  0.00  0.00    +0.000 A 
ATOM     14  C   UNL     1      -1.536  11.103  23.297  0.00  0.00    +0.000 A 
ATOM     15  C   UNL     1      -2.056  12.309  22.856  0.00  0.00    +0.000 A 
ATOM     16  C   UNL     1      -1.349  13.019  21.898  0.00  0.00    +0.000 A 
ATOM     17  C   UNL     1      -0.184  12.470  21.358  0.00  0.00    +0.000 A 
ATOM     18  F   UNL     1       0.570  13.230  20.553  0.00  0.00    +0.000 F 
ATOM     19  C   UNL     1       0.121  11.114  21.543  0.00  0.00    +0.000 A 
ATOM     20  C   UNL     1       1.084  10.418  20.784  0.00  0.00    +0.000 A 
ENDBRANCH   8  10
BRANCH   4  21
ATOM     21  C   UNL     1       3.338   4.954  17.361  0.00  0.00    +0.000 C 
BRANCH  21  22
ATOM     22  C   UNL     1       4.806   4.698  17.661  0.00  0.00    +0.000 C 
ATOM     23  C   UNL     1       5.803   4.734  16.764  0.00  0.00    +0.000 C 
ATOM     24  O   UNL     1       5.647   4.990  15.413  0.00  0.00    +0.000 OA
ATOM     25  C   UNL     1       6.949   4.972  14.972  0.00  0.00    +0.000 C 
ATOM     26  O   UNL     1       7.260   5.190  13.800  0.00  0.00    +0.000 OA
ATOM     27  N   UNL     1       7.841   4.725  15.949  0.00  0.00    +0.000 N 
ATOM     28  C   UNL     1       7.213   4.535  17.124  0.00  0.00    +0.000 C 
ATOM     29  O   UNL     1       7.679   4.274  18.218  0.00  0.00    +0.000 OA
ATOM     30  H   UNL     1       8.835   4.674  15.814  0.00  0.00    +0.000 HD
ENDBRANCH  21  22
BRANCH  21  31
ATOM     31  C   UNL     1       2.484   3.667  17.603  0.00  0.00    +0.000 C 
ATOM     32  C   UNL     1       3.287   2.607  18.372  0.00  0.00    +0.000 C 
ATOM     33  C   UNL     1       1.187   3.944  18.375  0.00  0.00    +0.000 C 
ENDBRANCH  21  31
ENDBRANCH   4  21
TORSDOF 4
ENDMDL
MODEL 3
REMARK VINA RESULT:     -10.0      1.344      1.827
REMARK  Name = 
REMARK  7 active torsions:
REMARK  status: ('A' for Active; 'I' for Inactive)
REMARK    1  A    between atoms: C_1  and  C_2
REMARK    2  A    between atoms: C_4  and  C_5
REMARK    3  A    between atoms: C_5  and  C_6
REMARK    4  A    between atoms: C_5  and  C_14
REMARK    5  A    between atoms: C_14  and  C_15
REMARK    6  A    between atoms: C_14  and  C_16
REMARK    7  A    between atoms: C_20  and  C_21
REMARK                            x       y       z     vdW  Elec       q    Type
REMARK                         _______ _______ _______ _____ _____    ______ ____
ROOT
ATOM      1  C   UNL     1       2.454   8.959  17.503  0.00  0.00    +0.000 C 
ATOM      2  C   UNL     1       2.424   7.858  18.529  0.00  0.00    +0.000 A 
ATOM      3  C   UNL     1       3.080   6.616  18.162  0.00  0.00    +0.000 A 
ATOM      4  C   UNL     1       3.112   5.534  18.967  0.00  0.00    +0.000 A 
ATOM      5  C   UNL     1       2.466   5.667  20.312  0.00  0.00    +0.000 A 
ATOM      6  O   UNL     1       2.456   4.747  21.127  0.00  0.00    +0.000 OA
ATOM      7  N   UNL     1       1.812   6.842  20.557  0.00  0.00    +0.000 N 
ATOM      8  C   UNL     1       1.763   7.909  19.703  0.00  0.00    +0.000 A 
ATOM      9  H   UNL     1       1.338   6.902  21.447  0.00  0.00    +0.000 HD
ENDROOT
BRANCH   8  10
ATOM     10  C   UNL     1       0.795   8.964  20.019  0.00  0.00    +0.000 A 
ATOM     11  C   UNL     1       0.575   9.899  18.996  0.00  0.00    +0.000 A 
ATOM     12  C   UNL     1      -0.299  10.959  19.186  0.00  0.00    +0.000 A 
ATOM     13  C   UNL     1      -0.849  11.179  20.448  0.00  0.00    +0.000 A 
ATOM     14  C   UNL     1      -1.641  12.298  20.686  0.00  0.00    +0.000 A 
ATOM     15  C   UNL     1      -1.630  12.883  21.942  0.00  0.00    +0.000 A 
ATOM     16  C   UNL     1      -1.260  12.102  23.027  0.00  0.00    +0.000 A 
ATOM     17  C   UNL     1      -0.843  10.787  22.815  0.00  0.00    +0.000 A 
ATOM     18  F   UNL     1      -0.639  10.000  23.880  0.00  0.00    +0.000 F 
ATOM     19  C   UNL     1      -0.514  10.338  21.528  0.00  0.00    +0.000 A 
ATOM     20  C   UNL     1       0.206   9.153  21.273  0.00  0.00    +0.000 A 
ENDBRANCH   8  10
BRANCH   4  21
ATOM     21  C   UNL     1       3.695   4.172  18.616  0.00  0.00    +0.000 C 
BRANCH  21  22
ATOM     22  C   UNL     1       5.211   4.279  18.598  0.00  0.00    +0.000 C 
ATOM     23  C   UNL     1       5.974   4.364  17.498  0.00  0.00    +0.000 C 
ATOM     24  O   UNL     1       5.498   4.346  16.199  0.00  0.00    +0.000 OA
ATOM     25  C   UNL     1       6.654   4.520  15.474  0.00  0.00    +0.000 C 
ATOM     26  O   UNL     1       6.667   4.591  14.244  0.00  0.00    +0.000 OA
ATOM     27  N   UNL     1       7.754   4.633  16.242  0.00  0.00    +0.000 N 
ATOM     28  C   UNL     1       7.434   4.524  17.544  0.00  0.00    +0.000 C 
ATOM     29  O   UNL     1       8.154   4.557  18.525  0.00  0.00    +0.000 OA
ATOM     30  H   UNL     1       8.685   4.765  15.888  0.00  0.00    +0.000 HD
ENDBRANCH  21  22
BRANCH  21  31
ATOM     31  C   UNL     1       3.225   3.025  19.568  0.00  0.00    +0.000 C 
ATOM     32  C   UNL     1       2.210   2.108  18.870  0.00  0.00    +0.000 C 
ATOM     33  C   UNL     1       4.383   2.160  20.083  0.00  0.00    +0.000 C 
ENDBRANCH  21  31
ENDBRANCH   4  21
TORSDOF 4
ENDMDL
MODEL 4
REMARK VINA RESULT:     -10.0      1.001      1.683
REMARK  Name = 
REMARK  7 active torsions:
REMARK  status: ('A' for Active; 'I' for Inactive)
REMARK    1  A    between atoms: C_1  and  C_2
REMARK    2  A    between atoms: C_4  and  C_5
REMARK    3  A    between atoms: C_5  and  C_6
REMARK    4  A    between atoms: C_5  and  C_14
REMARK    5  A    between atoms: C_14  and  C_15
REMARK    6  A    between atoms: C_14  and  C_16
REMARK    7  A    between atoms: C_20  and  C_21
REMARK                            x       y       z     vdW  Elec       q    Type
REMARK                         _______ _______ _______ _____ _____    ______ ____
ROOT
ATOM      1  C   UNL     1       1.930   9.196  17.740  0.00  0.00    +0.000 C 
ATOM      2  C   UNL     1       2.089   7.945  18.561  0.00  0.00    +0.000 A 
ATOM      3  C   UNL     1       2.445   6.738  17.837  0.00  0.00    +0.000 A 
ATOM      4  C   UNL     1       2.595   5.538  18.435  0.00  0.00    +0.000 A 
ATOM      5  C   UNL     1       2.419   5.492  19.922  0.00  0.00    +0.000 A 
ATOM      6  O   UNL     1       2.553   4.452  20.564  0.00  0.00    +0.000 OA
ATOM      7  N   UNL     1       2.018   6.653  20.522  0.00  0.00    +0.000 N 
ATOM      8  C   UNL     1       1.835   7.847  19.882  0.00  0.00    +0.000 A 
ATOM      9  H   UNL     1       1.854   6.596  21.517  0.00  0.00    +0.000 HD
ENDROOT
BRANCH   8  10
ATOM     10  C   UNL     1       1.146   8.900  20.634  0.00  0.00    +0.000 A 
ATOM     11  C   UNL     1       0.924   8.618  21.990  0.00  0.00    +0.000 A 
ATOM     12  C   UNL     1       0.257   9.526  22.799  0.00  0.00    +0.000 A 
ATOM     13  C   UNL     1      -0.323  10.659  22.228  0.00  0.00    +0.000 A 
ATOM     14  C   UNL     1      -1.088  11.525  23.004  0.00  0.00    +0.000 A 
ATOM     15  C   UNL     1      -2.151  12.195  22.424  0.00  0.00    +0.000 A 
ATOM     16  C   UNL     1      -2.135  12.390  21.051  0.00  0.00    +0.000 A 
ATOM     17  C   UNL     1      -1.096  11.847  20.293  0.00  0.00    +0.000 A 
ATOM     18  F   UNL     1      -1.010  12.173  18.996  0.00  0.00    +0.000 F 
ATOM     19  C   UNL     1      -0.243  10.877  20.839  0.00  0.00    +0.000 A 
ATOM     20  C   UNL     1       0.608  10.060  20.067  0.00  0.00    +0.000 A 
ENDBRANCH   8  10
BRANCH   4  21
ATOM     21  C   UNL     1       2.874   4.216  17.733  0.00  0.00    +0.000 C 
BRANCH  21  22
ATOM     22  C   UNL     1       4.254   4.280  17.100  0.00  0.00    +0.000 C 
ATOM     23  C   UNL     1       5.390   4.605  17.736  0.00  0.00    +0.000 C 
ATOM     24  O   UNL     1       5.479   4.956  19.072  0.00  0.00    +0.000 OA
ATOM     25  C   UNL     1       6.835   5.127  19.227  0.00  0.00    +0.000 C 
ATOM     26  O   UNL     1       7.351   5.423  20.306  0.00  0.00    +0.000 OA
ATOM     27  N   UNL     1       7.534   4.909  18.098  0.00  0.00    +0.000 N 
ATOM     28  C   UNL     1       6.706   4.595  17.084  0.00  0.00    +0.000 C 
ATOM     29  O   UNL     1       6.965   4.351  15.920  0.00  0.00    +0.000 OA
ATOM     30  H   UNL     1       8.532   4.987  18.022  0.00  0.00    +0.000 HD
ENDBRANCH  21  22
BRANCH  21  31
ATOM     31  C   UNL     1       2.744   2.971  18.669  0.00  0.00    +0.000 C 
ATOM     32  C   UNL     1       1.327   2.381  18.612  0.00  0.00    +0.000 C 
ATOM     33  C   UNL     1       3.745   1.858  18.329  0.00  0.00    +0.000 C 
ENDBRANCH  21  31
ENDBRANCH   4  21
TORSDOF 4
ENDMDL
MODEL 5
REMARK VINA RESULT:      -9.9      1.251      1.514
REMARK  Name = 
REMARK  7 active torsions:
REMARK  status: ('A' for Active; 'I' for Inactive)
REMARK    1  A    between atoms: C_1  and  C_2
REMARK    2  A    between atoms: C_4  and  C_5
REMARK    3  A    between atoms: C_5  and  C_6
REMARK    4  A    between atoms: C_5  and  C_14
REMARK    5  A    between atoms: C_14  and  C_15
REMARK    6  A    between atoms: C_14  and  C_16
REMARK    7  A    between atoms: C_20  and  C_21
REMARK                            x       y       z     vdW  Elec       q    Type
REMARK                         _______ _______ _______ _____ _____    ______ ____
ROOT
ATOM      1  C   UNL     1       1.918  10.513  17.805  0.00  0.00    +0.000 C 
ATOM      2  C   UNL     1       1.878   9.304  18.700  0.00  0.00    +0.000 A 
ATOM      3  C   UNL     1       2.536   8.109  18.202  0.00  0.00    +0.000 A 
ATOM      4  C   UNL     1       2.560   6.944  18.880  0.00  0.00    +0.000 A 
ATOM      5  C   UNL     1       1.901   6.926  20.226  0.00  0.00    +0.000 A 
ATOM      6  O   UNL     1       1.884   5.920  20.932  0.00  0.00    +0.000 OA
ATOM      7  N   UNL     1       1.246   8.068  20.596  0.00  0.00    +0.000 N 
ATOM      8  C   UNL     1       1.206   9.224  19.866  0.00  0.00    +0.000 A 
ATOM      9  H   UNL     1       0.764   8.027  21.482  0.00  0.00    +0.000 HD
ENDROOT
BRANCH   8  10
ATOM     10  C   UNL     1       0.236  10.238  20.290  0.00  0.00    +0.000 A 
ATOM     11  C   UNL     1       0.164  10.455  21.674  0.00  0.00    +0.000 A 
ATOM     12  C   UNL     1      -0.735  11.372  22.198  0.00  0.00    +0.000 A 
ATOM     13  C   UNL     1      -1.672  11.972  21.359  0.00  0.00    +0.000 A 
ATOM     14  C   UNL     1      -2.652  12.811  21.883  0.00  0.00    +0.000 A 
ATOM     15  C   UNL     1      -3.896  12.864  21.275  0.00  0.00    +0.000 A 
ATOM     16  C   UNL     1      -3.990  12.504  19.939  0.00  0.00    +0.000 A 
ATOM     17  C   UNL     1      -2.857  12.035  19.273  0.00  0.00    +0.000 A 
ATOM     18  F   UNL     1      -2.925  11.840  17.949  0.00  0.00    +0.000 F 
ATOM     19  C   UNL     1      -1.715  11.646  19.989  0.00  0.00    +0.000 A 
ATOM     20  C   UNL     1      -0.670  10.877  19.437  0.00  0.00    +0.000 A 
ENDBRANCH   8  10
BRANCH   4  21
ATOM     21  C   UNL     1       3.145   5.629  18.384  0.00  0.00    +0.000 C 
BRANCH  21  22
ATOM     22  C   UNL     1       4.556   5.485  18.930  0.00  0.00    +0.000 C 
ATOM     23  C   UNL     1       5.652   5.226  18.201  0.00  0.00    +0.000 C 
ATOM     24  O   UNL     1       5.666   5.028  16.832  0.00  0.00    +0.000 OA
ATOM     25  C   UNL     1       7.009   4.866  16.585  0.00  0.00    +0.000 C 
ATOM     26  O   UNL     1       7.464   4.689  15.454  0.00  0.00    +0.000 OA
ATOM     27  N   UNL     1       7.770   4.951  17.692  0.00  0.00    +0.000 N 
ATOM     28  C   UNL     1       7.001   5.154  18.778  0.00  0.00    +0.000 C 
ATOM     29  O   UNL     1       7.324   5.264  19.947  0.00  0.00    +0.000 OA
ATOM     30  H   UNL     1       8.770   4.858  17.705  0.00  0.00    +0.000 HD
ENDBRANCH  21  22
BRANCH  21  31
ATOM     31  C   UNL     1       2.276   4.381  18.741  0.00  0.00    +0.000 C 
ATOM     32  C   UNL     1       1.384   3.971  17.560  0.00  0.00    +0.000 C 
ATOM     33  C   UNL     1       3.113   3.165  19.159  0.00  0.00    +0.000 C 
ENDBRANCH  21  31
ENDBRANCH   4  21
TORSDOF 4
ENDMDL
MODEL 6
REMARK VINA RESULT:      -9.7      1.360      1.422
REMARK  Name = 
REMARK  7 active torsions:
REMARK  status: ('A' for Active; 'I' for Inactive)
REMARK    1  A    between atoms: C_1  and  C_2
REMARK    2  A    between atoms: C_4  and  C_5
REMARK    3  A    between atoms: C_5  and  C_6
REMARK    4  A    between atoms: C_5  and  C_14
REMARK    5  A    between atoms: C_14  and  C_15
REMARK    6  A    between atoms: C_14  and  C_16
REMARK    7  A    between atoms: C_20  and  C_21
REMARK                            x       y       z     vdW  Elec       q    Type
REMARK                         _______ _______ _______ _____ _____    ______ ____
ROOT
ATOM      1  C   UNL     1       1.646  10.172  18.117  0.00  0.00    +0.000 C 
ATOM      2  C   UNL     1       1.908   8.888  18.859  0.00  0.00    +0.000 A 
ATOM      3  C   UNL     1       2.462   7.794  18.081  0.00  0.00    +0.000 A 
ATOM      4  C   UNL     1       2.723   6.578  18.602  0.00  0.00    +0.000 A 
ATOM      5  C   UNL     1       2.456   6.394  20.065  0.00  0.00    +0.000 A 
ATOM      6  O   UNL     1       2.678   5.330  20.641  0.00  0.00    +0.000 OA
ATOM      7  N   UNL     1       1.872   7.446  20.713  0.00  0.00    +0.000 N 
ATOM      8  C   UNL     1       1.582   8.656  20.146  0.00  0.00    +0.000 A 
ATOM      9  H   UNL     1       1.651   7.292  21.686  0.00  0.00    +0.000 HD
ENDROOT
BRANCH   8  10
ATOM     10  C   UNL     1       0.716   9.555  20.916  0.00  0.00    +0.000 A 
ATOM     11  C   UNL     1       0.425   9.131  22.222  0.00  0.00    +0.000 A 
ATOM     12  C   UNL     1      -0.405   9.884  23.039  0.00  0.00    +0.000 A 
ATOM     13  C   UNL     1      -1.070  10.990  22.510  0.00  0.00    +0.000 A 
ATOM     14  C   UNL     1      -1.990  11.694  23.282  0.00  0.00    +0.000 A 
ATOM     15  C   UNL     1      -3.077  12.290  22.666  0.00  0.00    +0.000 A 
ATOM     16  C   UNL     1      -2.979  12.605  21.319  0.00  0.00    +0.000 A 
ATOM     17  C   UNL     1      -1.827  12.251  20.615  0.00  0.00    +0.000 A 
ATOM     18  F   UNL     1      -1.680  12.698  19.360  0.00  0.00    +0.000 F 
ATOM     19  C   UNL     1      -0.909  11.339  21.154  0.00  0.00    +0.000 A 
ATOM     20  C   UNL     1       0.090  10.693  20.398  0.00  0.00    +0.000 A 
ENDBRANCH   8  10
BRANCH   4  21
ATOM     21  C   UNL     1       3.213   5.360  17.833  0.00  0.00    +0.000 C 
BRANCH  21  22
ATOM     22  C   UNL     1       4.642   5.058  18.254  0.00  0.00    +0.000 C 
ATOM     23  C   UNL     1       5.703   5.848  18.034  0.00  0.00    +0.000 C 
ATOM     24  O   UNL     1       5.666   7.059  17.366  0.00  0.00    +0.000 OA
ATOM     25  C   UNL     1       6.972   7.476  17.469  0.00  0.00    +0.000 C 
ATOM     26  O   UNL     1       7.368   8.552  17.017  0.00  0.00    +0.000 OA
ATOM     27  N   UNL     1       7.760   6.611  18.135  0.00  0.00    +0.000 N 
ATOM     28  C   UNL     1       7.054   5.530  18.516  0.00  0.00    +0.000 C 
ATOM     29  O   UNL     1       7.422   4.537  19.117  0.00  0.00    +0.000 OA
ATOM     30  H   UNL     1       8.740   6.748  18.307  0.00  0.00    +0.000 HD
ENDBRANCH  21  22
BRANCH  21  31
ATOM     31  C   UNL     1       2.301   4.103  18.004  0.00  0.00    +0.000 C 
ATOM     32  C   UNL     1       0.957   4.291  17.283  0.00  0.00    +0.000 C 
ATOM     33  C   UNL     1       2.951   2.814  17.483  0.00  0.00    +0.000 C 
ENDBRANCH  21  31
ENDBRANCH   4  21
TORSDOF 4
ENDMDL
MODEL 7
REMARK VINA RESULT:      -9.6      4.529      8.777
REMARK  Name = 
REMARK  7 active torsions:
REMARK  status: ('A' for Active; 'I' for Inactive)
REMARK    1  A    between atoms: C_1  and  C_2
REMARK    2  A    between atoms: C_4  and  C_5
REMARK    3  A    between atoms: C_5  and  C_6
REMARK    4  A    between atoms: C_5  and  C_14
REMARK    5  A    between atoms: C_14  and  C_15
REMARK    6  A    between atoms: C_14  and  C_16
REMARK    7  A    between atoms: C_20  and  C_21
REMARK                            x       y       z     vdW  Elec       q    Type
REMARK                         _______ _______ _______ _____ _____    ______ ____
ROOT
ATOM      1  C   UNL     1       1.470   8.767  17.815  0.00  0.00    +0.000 C 
ATOM      2  C   UNL     1       1.298   8.958  19.298  0.00  0.00    +0.000 A 
ATOM      3  C   UNL     1       0.947  10.297  19.739  0.00  0.00    +0.000 A 
ATOM      4  C   UNL     1       0.786  10.625  21.037  0.00  0.00    +0.000 A 
ATOM      5  C   UNL     1       0.944   9.525  22.042  0.00  0.00    +0.000 A 
ATOM      6  O   UNL     1       0.799   9.716  23.248  0.00  0.00    +0.000 OA
ATOM      7  N   UNL     1       1.340   8.311  21.556  0.00  0.00    +0.000 N 
ATOM      8  C   UNL     1       1.535   8.018  20.234  0.00  0.00    +0.000 A 
ATOM      9  H   UNL     1       1.492   7.591  22.247  0.00  0.00    +0.000 HD
ENDROOT
BRANCH   8  10
ATOM     10  C   UNL     1       2.217   6.756  19.931  0.00  0.00    +0.000 A 
ATOM     11  C   UNL     1       3.249   6.847  18.985  0.00  0.00    +0.000 A 
ATOM     12  C   UNL     1       3.951   5.715  18.596  0.00  0.00    +0.000 A 
ATOM     13  C   UNL     1       3.532   4.461  19.039  0.00  0.00    +0.000 A 
ATOM     14  C   UNL     1       4.155   3.307  18.574  0.00  0.00    +0.000 A 
ATOM     15  C   UNL     1       3.415   2.144  18.438  0.00  0.00    +0.000 A 
ATOM     16  C   UNL     1       2.265   2.004  19.200  0.00  0.00    +0.000 A 
ATOM     17  C   UNL     1       1.853   3.057  20.019  0.00  0.00    +0.000 A 
ATOM     18  F   UNL     1       0.833   2.851  20.864  0.00  0.00    +0.000 F 
ATOM     19  C   UNL     1       2.399   4.339  19.867  0.00  0.00    +0.000 A 
ATOM     20  C   UNL     1       1.827   5.504  20.417  0.00  0.00    +0.000 A 
ENDBRANCH   8  10
BRANCH   4  21
ATOM     21  C   UNL     1       0.513  12.020  21.582  0.00  0.00    +0.000 C 
BRANCH  21  22
ATOM     22  C   UNL     1       1.030  13.044  20.585  0.00  0.00    +0.000 C 
ATOM     23  C   UNL     1       2.206  13.686  20.666  0.00  0.00    +0.000 C 
ATOM     24  O   UNL     1       3.126  13.530  21.688  0.00  0.00    +0.000 OA
ATOM     25  C   UNL     1       4.152  14.344  21.268  0.00  0.00    +0.000 C 
ATOM     26  O   UNL     1       5.204  14.471  21.896  0.00  0.00    +0.000 OA
ATOM     27  N   UNL     1       3.902  14.958  20.096  0.00  0.00    +0.000 N 
ATOM     28  C   UNL     1       2.680  14.625  19.641  0.00  0.00    +0.000 C 
ATOM     29  O   UNL     1       2.101  14.991  18.634  0.00  0.00    +0.000 OA
ATOM     30  H   UNL     1       4.534  15.588  19.636  0.00  0.00    +0.000 HD
ENDBRANCH  21  22
BRANCH  21  31
ATOM     31  C   UNL     1      -0.992  12.277  21.919  0.00  0.00    +0.000 C 
ATOM     32  C   UNL     1      -1.139  13.318  23.038  0.00  0.00    +0.000 C 
ATOM     33  C   UNL     1      -1.806  12.752  20.708  0.00  0.00    +0.000 C 
ENDBRANCH  21  31
ENDBRANCH   4  21
TORSDOF 4
ENDMDL
MODEL 8
REMARK VINA RESULT:      -9.4      4.623      9.257
REMARK  Name = 
REMARK  7 active torsions:
REMARK  status: ('A' for Active; 'I' for Inactive)
REMARK    1  A    between atoms: C_1  and  C_2
REMARK    2  A    between atoms: C_4  and  C_5
REMARK    3  A    between atoms: C_5  and  C_6
REMARK    4  A    between atoms: C_5  and  C_14
REMARK    5  A    between atoms: C_14  and  C_15
REMARK    6  A    between atoms: C_14  and  C_16
REMARK    7  A    between atoms: C_20  and  C_21
REMARK                            x       y       z     vdW  Elec       q    Type
REMARK                         _______ _______ _______ _____ _____    ______ ____
ROOT
ATOM      1  C   UNL     1      -0.273   8.281  21.460  0.00  0.00    +0.000 C 
ATOM      2  C   UNL     1      -0.026   9.497  20.608  0.00  0.00    +0.000 A 
ATOM      3  C   UNL     1      -1.021  10.552  20.684  0.00  0.00    +0.000 A 
ATOM      4  C   UNL     1      -0.948  11.687  19.959  0.00  0.00    +0.000 A 
ATOM      5  C   UNL     1       0.250  11.854  19.075  0.00  0.00    +0.000 A 
ATOM      6  O   UNL     1       0.421  12.859  18.388  0.00  0.00    +0.000 OA
ATOM      7  N   UNL     1       1.107  10.790  19.006  0.00  0.00    +0.000 N 
ATOM      8  C   UNL     1       0.984   9.633  19.725  0.00  0.00    +0.000 A 
ATOM      9  H   UNL     1       1.883  10.894  18.369  0.00  0.00    +0.000 HD
ENDROOT
BRANCH   8  10
ATOM     10  C   UNL     1       1.834   8.510  19.318  0.00  0.00    +0.000 A 
ATOM     11  C   UNL     1       2.277   8.547  17.987  0.00  0.00    +0.000 A 
ATOM     12  C   UNL     1       3.066   7.526  17.478  0.00  0.00    +0.000 A 
ATOM     13  C   UNL     1       3.297   6.388  18.248  0.00  0.00    +0.000 A 
ATOM     14  C   UNL     1       3.994   5.307  17.715  0.00  0.00    +0.000 A 
ATOM     15  C   UNL     1       3.678   4.024  18.131  0.00  0.00    +0.000 A 
ATOM     16  C   UNL     1       3.073   3.865  19.368  0.00  0.00    +0.000 A 
ATOM     17  C   UNL     1       2.737   4.993  20.118  0.00  0.00    +0.000 A 
ATOM     18  F   UNL     1       2.298   4.822  21.373  0.00  0.00    +0.000 F 
ATOM     19  C   UNL     1       2.729   6.267  19.531  0.00  0.00    +0.000 A 
ATOM     20  C   UNL     1       2.107   7.391  20.111  0.00  0.00    +0.000 A 
ENDBRANCH   8  10
BRANCH   4  21
ATOM     21  C   UNL     1      -1.995  12.791  19.914  0.00  0.00    +0.000 C 
BRANCH  21  22
ATOM     22  C   UNL     1      -3.316  12.193  19.461  0.00  0.00    +0.000 C 
ATOM     23  C   UNL     1      -3.576  11.716  18.234  0.00  0.00    +0.000 C 
ATOM     24  O   UNL     1      -2.681  11.711  17.178  0.00  0.00    +0.000 OA
ATOM     25  C   UNL     1      -3.405  11.073  16.199  0.00  0.00    +0.000 C 
ATOM     26  O   UNL     1      -2.950  10.835  15.079  0.00  0.00    +0.000 OA
ATOM     27  N   UNL     1      -4.639  10.712  16.597  0.00  0.00    +0.000 N 
ATOM     28  C   UNL     1      -4.857  11.096  17.868  0.00  0.00    +0.000 C 
ATOM     29  O   UNL     1      -5.850  10.963  18.559  0.00  0.00    +0.000 OA
ATOM     30  H   UNL     1      -5.309  10.237  16.018  0.00  0.00    +0.000 HD
ENDBRANCH  21  22
BRANCH  21  31
ATOM     31  C   UNL     1      -2.160  13.553  21.269  0.00  0.00    +0.000 C 
ATOM     32  C   UNL     1      -3.144  12.825  22.197  0.00  0.00    +0.000 C 
ATOM     33  C   UNL     1      -0.834  13.737  22.020  0.00  0.00    +0.000 C 
ENDBRANCH  21  31
ENDBRANCH   4  21
TORSDOF 4
ENDMDL
MODEL 9
REMARK VINA RESULT:      -9.4      1.846      2.270
REMARK  Name = 
REMARK  7 active torsions:
REMARK  status: ('A' for Active; 'I' for Inactive)
REMARK    1  A    between atoms: C_1  and  C_2
REMARK    2  A    between atoms: C_4  and  C_5
REMARK    3  A    between atoms: C_5  and  C_6
REMARK    4  A    between atoms: C_5  and  C_14
REMARK    5  A    between atoms: C_14  and  C_15
REMARK    6  A    between atoms: C_14  and  C_16
REMARK    7  A    between atoms: C_20  and  C_21
REMARK                            x       y       z     vdW  Elec       q    Type
REMARK                         _______ _______ _______ _____ _____    ______ ____
ROOT
ATOM      1  C   UNL     1       2.266   9.814  17.543  0.00  0.00    +0.000 C 
ATOM      2  C   UNL     1       2.201   8.654  18.499  0.00  0.00    +0.000 A 
ATOM      3  C   UNL     1       2.989   7.485  18.150  0.00  0.00    +0.000 A 
ATOM      4  C   UNL     1       3.010   6.361  18.896  0.00  0.00    +0.000 A 
ATOM      5  C   UNL     1       2.202   6.368  20.159  0.00  0.00    +0.000 A 
ATOM      6  O   UNL     1       2.169   5.401  20.917  0.00  0.00    +0.000 OA
ATOM      7  N   UNL     1       1.436   7.477  20.383  0.00  0.00    +0.000 N 
ATOM      8  C   UNL     1       1.405   8.587  19.586  0.00  0.00    +0.000 A 
ATOM      9  H   UNL     1       0.858   7.449  21.211  0.00  0.00    +0.000 HD
ENDROOT
BRANCH   8  10
ATOM     10  C   UNL     1       0.329   9.550  19.836  0.00  0.00    +0.000 A 
ATOM     11  C   UNL     1      -0.146  10.225  18.701  0.00  0.00    +0.000 A 
ATOM     12  C   UNL     1      -1.145  11.180  18.815  0.00  0.00    +0.000 A 
ATOM     13  C   UNL     1      -1.576  11.576  20.081  0.00  0.00    +0.000 A 
ATOM     14  C   UNL     1      -2.499  12.608  20.219  0.00  0.00    +0.000 A 
ATOM     15  C   UNL     1      -2.437  13.429  21.334  0.00  0.00    +0.000 A 
ATOM     16  C   UNL     1      -1.832  12.935  22.480  0.00  0.00    +0.000 A 
ATOM     17  C   UNL     1      -1.246  11.669  22.455  0.00  0.00    +0.000 A 
ATOM     18  F   UNL     1      -0.805  11.144  23.606  0.00  0.00    +0.000 F 
ATOM     19  C   UNL     1      -0.998  11.018  21.238  0.00  0.00    +0.000 A 
ATOM     20  C   UNL     1      -0.138   9.909  21.105  0.00  0.00    +0.000 A 
ENDBRANCH   8  10
BRANCH   4  21
ATOM     21  C   UNL     1       3.733   5.068  18.548  0.00  0.00    +0.000 C 
BRANCH  21  22
ATOM     22  C   UNL     1       5.099   5.078  19.214  0.00  0.00    +0.000 C 
ATOM     23  C   UNL     1       6.167   5.772  18.793  0.00  0.00    +0.000 C 
ATOM     24  O   UNL     1       6.198   6.576  17.667  0.00  0.00    +0.000 OA
ATOM     25  C   UNL     1       7.472   7.089  17.723  0.00  0.00    +0.000 C 
ATOM     26  O   UNL     1       7.905   7.894  16.897  0.00  0.00    +0.000 OA
ATOM     27  N   UNL     1       8.180   6.649  18.780  0.00  0.00    +0.000 N 
ATOM     28  C   UNL     1       7.449   5.787  19.511  0.00  0.00    +0.000 C 
ATOM     29  O   UNL     1       7.751   5.175  20.519  0.00  0.00    +0.000 OA
ATOM     30  H   UNL     1       9.127   6.916  18.984  0.00  0.00    +0.000 HD
ENDBRANCH  21  22
BRANCH  21  31
ATOM     31  C   UNL     1       2.933   3.781  18.929  0.00  0.00    +0.000 C 
ATOM     32  C   UNL     1       2.098   3.277  17.743  0.00  0.00    +0.000 C 
ATOM     33  C   UNL     1       3.833   2.634  19.408  0.00  0.00    +0.000 C 
ENDBRANCH  21  31
ENDBRANCH   4  21
TORSDOF 4
ENDMDL
