MODEL 1
REMARK VINA RESULT:      -7.4      0.000      0.000
REMARK  Name = 
REMARK  4 active torsions:
REMARK  status: ('A' for Active; 'I' for Inactive)
REMARK    1  A    between atoms: C_1  and  N_2
REMARK    2  A    between atoms: C_6  and  C_7
REMARK    3  A    between atoms: N_16  and  C_17
REMARK    4  A    between atoms: C_20  and  C_21
REMARK                            x       y       z     vdW  Elec       q    Type
REMARK                         _______ _______ _______ _____ _____    ______ ____
ROOT
ATOM      1  C   UNL     1      -6.850  12.060  19.791  0.00  0.00    +0.000 C 
ATOM      2  N   UNL     1      -5.409  12.080  19.607  0.00  0.00    +0.000 N 
ATOM      3  C   UNL     1      -4.679  13.063  20.270  0.00  0.00    +0.000 A 
ATOM      4  O   UNL     1      -5.218  13.938  20.941  0.00  0.00    +0.000 OA
ATOM      5  C   UNL     1      -3.236  12.960  20.093  0.00  0.00    +0.000 A 
ATOM      6  C   UNL     1      -2.198  13.688  20.698  0.00  0.00    +0.000 A 
ATOM      7  N   UNL     1      -1.006  13.209  20.120  0.00  0.00    +0.000 N 
ATOM      8  C   UNL     1      -1.325  12.203  19.201  0.00  0.00    +0.000 A 
ATOM      9  C   UNL     1      -2.692  12.027  19.184  0.00  0.00    +0.000 A 
ATOM     10  N   UNL     1      -3.517  11.153  18.466  0.00  0.00    +0.000 N 
ATOM     11  C   UNL     1      -3.098  10.179  17.474  0.00  0.00    +0.000 C 
ATOM     12  C   UNL     1      -4.903  11.163  18.688  0.00  0.00    +0.000 A 
ATOM     13  O   UNL     1      -5.657  10.388  18.086  0.00  0.00    +0.000 OA
ATOM     14  C   UNL     1      -0.179  11.515  18.523  0.00  0.00    +0.000 C 
ATOM     15  N   UNL     1       0.922  12.439  18.241  0.00  0.00    +0.000 N 
ATOM     16  C   UNL     1       1.313  13.172  19.370  0.00  0.00    +0.000 A 
ATOM     17  C   UNL     1       2.642  13.600  19.466  0.00  0.00    +0.000 A 
ATOM     18  C   UNL     1       3.078  14.292  20.595  0.00  0.00    +0.000 A 
ATOM     19  C   UNL     1       2.185  14.549  21.629  0.00  0.00    +0.000 A 
ATOM     20  C   UNL     1       0.839  14.164  21.523  0.00  0.00    +0.000 A 
ATOM     21  C   UNL     1       0.378  13.552  20.359  0.00  0.00    +0.000 A 
ATOM     22  H   UNL     1       1.698  11.986  17.768  0.00  0.00    +0.000 HD
ENDROOT
BRANCH  14  23
ATOM     23  C   UNL     1       0.330  10.286  19.280  0.00  0.00    +0.000 A 
ATOM     24  C   UNL     1      -0.063   9.977  20.598  0.00  0.00    +0.000 A 
ATOM     25  C   UNL     1       0.476   8.887  21.285  0.00  0.00    +0.000 A 
ATOM     26  C   UNL     1       1.417   8.074  20.665  0.00  0.00    +0.000 A 
ATOM     27  C   UNL     1       1.818   8.353  19.360  0.00  0.00    +0.000 A 
ATOM     28  C   UNL     1       1.280   9.447  18.684  0.00  0.00    +0.000 A 
ATOM     29  F   UNL     1       1.702   9.706  17.438  0.00  0.00    +0.000 F 
ENDBRANCH  14  23
BRANCH   6  30
ATOM     30  C   UNL     1      -2.315  14.794  21.681  0.00  0.00    +0.000 A 
ATOM     31  C   UNL     1      -2.446  14.523  23.054  0.00  0.00    +0.000 A 
ATOM     32  C   UNL     1      -2.627  15.550  23.986  0.00  0.00    +0.000 A 
ATOM     33  C   UNL     1      -2.584  16.877  23.575  0.00  0.00    +0.000 A 
ATOM     34  C   UNL     1      -2.411  17.171  22.227  0.00  0.00    +0.000 A 
ATOM     35  C   UNL     1      -2.336  16.139  21.286  0.00  0.00    +0.000 A 
ENDBRANCH   6  30
TORSDOF 2
ENDMDL
MODEL 2
REMARK VINA RESULT:      -7.3      2.380      3.694
REMARK  Name = 
REMARK  4 active torsions:
REMARK  status: ('A' for Active; 'I' for Inactive)
REMARK    1  A    between atoms: C_1  and  N_2
REMARK    2  A    between atoms: C_6  and  C_7
REMARK    3  A    between atoms: N_16  and  C_17
REMARK    4  A    between atoms: C_20  and  C_21
REMARK                            x       y       z     vdW  Elec       q    Type
REMARK                         _______ _______ _______ _____ _____    ______ ____
ROOT
ATOM      1  C   UNL     1      -6.878  11.086  17.765  0.00  0.00    +0.000 C 
ATOM      2  N   UNL     1      -5.754  11.563  18.551  0.00  0.00    +0.000 N 
ATOM      3  C   UNL     1      -6.027  12.310  19.695  0.00  0.00    +0.000 A 
ATOM      4  O   UNL     1      -7.170  12.625  20.015  0.00  0.00    +0.000 OA
ATOM      5  C   UNL     1      -4.847  12.680  20.465  0.00  0.00    +0.000 A 
ATOM      6  C   UNL     1      -4.745  13.313  21.715  0.00  0.00    +0.000 A 
ATOM      7  N   UNL     1      -3.367  13.470  21.956  0.00  0.00    +0.000 N 
ATOM      8  C   UNL     1      -2.658  12.925  20.879  0.00  0.00    +0.000 A 
ATOM      9  C   UNL     1      -3.554  12.420  19.961  0.00  0.00    +0.000 A 
ATOM     10  N   UNL     1      -3.374  11.767  18.736  0.00  0.00    +0.000 N 
ATOM     11  C   UNL     1      -2.111  11.476  18.082  0.00  0.00    +0.000 C 
ATOM     12  C   UNL     1      -4.492  11.312  18.019  0.00  0.00    +0.000 A 
ATOM     13  O   UNL     1      -4.366  10.712  16.944  0.00  0.00    +0.000 OA
ATOM     14  C   UNL     1      -1.162  12.934  20.977  0.00  0.00    +0.000 C 
ATOM     15  N   UNL     1      -0.667  14.142  21.641  0.00  0.00    +0.000 N 
ATOM     16  C   UNL     1      -1.297  14.379  22.870  0.00  0.00    +0.000 A 
ATOM     17  C   UNL     1      -0.589  15.055  23.869  0.00  0.00    +0.000 A 
ATOM     18  C   UNL     1      -1.168  15.269  25.119  0.00  0.00    +0.000 A 
ATOM     19  C   UNL     1      -2.453  14.801  25.369  0.00  0.00    +0.000 A 
ATOM     20  C   UNL     1      -3.189  14.162  24.359  0.00  0.00    +0.000 A 
ATOM     21  C   UNL     1      -2.649  14.025  23.082  0.00  0.00    +0.000 A 
ATOM     22  H   UNL     1       0.347  14.164  21.699  0.00  0.00    +0.000 HD
ENDROOT
BRANCH  14  23
ATOM     23  C   UNL     1      -0.586  11.680  21.640  0.00  0.00    +0.000 A 
ATOM     24  C   UNL     1      -1.157  11.081  22.781  0.00  0.00    +0.000 A 
ATOM     25  C   UNL     1      -0.565   9.980  23.402  0.00  0.00    +0.000 A 
ATOM     26  C   UNL     1       0.611   9.445  22.892  0.00  0.00    +0.000 A 
ATOM     27  C   UNL     1       1.193  10.015  21.760  0.00  0.00    +0.000 A 
ATOM     28  C   UNL     1       0.599  11.118  21.150  0.00  0.00    +0.000 A 
ATOM     29  F   UNL     1       1.194  11.659  20.078  0.00  0.00    +0.000 F 
ENDBRANCH  14  23
BRANCH   6  30
ATOM     30  C   UNL     1      -5.849  13.801  22.580  0.00  0.00    +0.000 A 
ATOM     31  C   UNL     1      -6.226  15.154  22.568  0.00  0.00    +0.000 A 
ATOM     32  C   UNL     1      -7.216  15.644  23.426  0.00  0.00    +0.000 A 
ATOM     33  C   UNL     1      -7.916  14.770  24.249  0.00  0.00    +0.000 A 
ATOM     34  C   UNL     1      -7.590  13.418  24.247  0.00  0.00    +0.000 A 
ATOM     35  C   UNL     1      -6.529  12.951  23.465  0.00  0.00    +0.000 A 
ENDBRANCH   6  30
TORSDOF 2
ENDMDL
MODEL 3
REMARK VINA RESULT:      -7.1      3.244      6.595
REMARK  Name = 
REMARK  4 active torsions:
REMARK  status: ('A' for Active; 'I' for Inactive)
REMARK    1  A    between atoms: C_1  and  N_2
REMARK    2  A    between atoms: C_6  and  C_7
REMARK    3  A    between atoms: N_16  and  C_17
REMARK    4  A    between atoms: C_20  and  C_21
REMARK                            x       y       z     vdW  Elec       q    Type
REMARK                         _______ _______ _______ _____ _____    ______ ____
ROOT
ATOM      1  C   UNL     1      -4.405  10.899  16.766  0.00  0.00    +0.000 C 
ATOM      2  N   UNL     1      -4.451  11.437  18.115  0.00  0.00    +0.000 N 
ATOM      3  C   UNL     1      -3.258  11.881  18.682  0.00  0.00    +0.000 A 
ATOM      4  O   UNL     1      -2.179  11.770  18.107  0.00  0.00    +0.000 OA
ATOM      5  C   UNL     1      -3.408  12.478  20.002  0.00  0.00    +0.000 A 
ATOM      6  C   UNL     1      -2.463  13.132  20.811  0.00  0.00    +0.000 A 
ATOM      7  N   UNL     1      -3.138  13.459  22.003  0.00  0.00    +0.000 N 
ATOM      8  C   UNL     1      -4.465  13.024  21.902  0.00  0.00    +0.000 A 
ATOM      9  C   UNL     1      -4.651  12.432  20.671  0.00  0.00    +0.000 A 
ATOM     10  N   UNL     1      -5.774  11.855  20.068  0.00  0.00    +0.000 N 
ATOM     11  C   UNL     1      -7.094  11.703  20.653  0.00  0.00    +0.000 C 
ATOM     12  C   UNL     1      -5.684  11.360  18.757  0.00  0.00    +0.000 A 
ATOM     13  O   UNL     1      -6.664  10.863  18.188  0.00  0.00    +0.000 OA
ATOM     14  C   UNL     1      -5.372  13.340  23.053  0.00  0.00    +0.000 C 
ATOM     15  N   UNL     1      -4.672  13.258  24.336  0.00  0.00    +0.000 N 
ATOM     16  C   UNL     1      -3.486  14.005  24.353  0.00  0.00    +0.000 A 
ATOM     17  C   UNL     1      -3.042  14.532  25.571  0.00  0.00    +0.000 A 
ATOM     18  C   UNL     1      -1.890  15.317  25.617  0.00  0.00    +0.000 A 
ATOM     19  C   UNL     1      -1.190  15.578  24.446  0.00  0.00    +0.000 A 
ATOM     20  C   UNL     1      -1.602  15.017  23.227  0.00  0.00    +0.000 A 
ATOM     21  C   UNL     1      -2.700  14.159  23.189  0.00  0.00    +0.000 A 
ATOM     22  H   UNL     1      -5.283  13.456  25.124  0.00  0.00    +0.000 HD
ENDROOT
BRANCH  14  23
ATOM     23  C   UNL     1      -6.088  14.687  22.914  0.00  0.00    +0.000 A 
ATOM     24  C   UNL     1      -5.586  15.747  22.132  0.00  0.00    +0.000 A 
ATOM     25  C   UNL     1      -6.228  16.986  22.085  0.00  0.00    +0.000 A 
ATOM     26  C   UNL     1      -7.393  17.192  22.813  0.00  0.00    +0.000 A 
ATOM     27  C   UNL     1      -7.913  16.157  23.589  0.00  0.00    +0.000 A 
ATOM     28  C   UNL     1      -7.262  14.926  23.636  0.00  0.00    +0.000 A 
ATOM     29  F   UNL     1      -7.773  13.957  24.409  0.00  0.00    +0.000 F 
ENDBRANCH  14  23
BRANCH   6  30
ATOM     30  C   UNL     1      -1.026  13.365  20.523  0.00  0.00    +0.000 A 
ATOM     31  C   UNL     1      -0.618  14.467  19.752  0.00  0.00    +0.000 A 
ATOM     32  C   UNL     1       0.725  14.663  19.413  0.00  0.00    +0.000 A 
ATOM     33  C   UNL     1       1.701  13.813  19.919  0.00  0.00    +0.000 A 
ATOM     34  C   UNL     1       1.325  12.740  20.721  0.00  0.00    +0.000 A 
ATOM     35  C   UNL     1      -0.027  12.488  20.970  0.00  0.00    +0.000 A 
ENDBRANCH   6  30
TORSDOF 2
ENDMDL
MODEL 4
REMARK VINA RESULT:      -7.0      2.231      5.584
REMARK  Name = 
REMARK  4 active torsions:
REMARK  status: ('A' for Active; 'I' for Inactive)
REMARK    1  A    between atoms: C_1  and  N_2
REMARK    2  A    between atoms: C_6  and  C_7
REMARK    3  A    between atoms: N_16  and  C_17
REMARK    4  A    between atoms: C_20  and  C_21
REMARK                            x       y       z     vdW  Elec       q    Type
REMARK                         _______ _______ _______ _____ _____    ______ ____
ROOT
ATOM      1  C   UNL     1      -5.667  16.270  24.162  0.00  0.00    +0.000 C 
ATOM      2  N   UNL     1      -4.677  15.470  23.463  0.00  0.00    +0.000 N 
ATOM      3  C   UNL     1      -5.116  14.638  22.436  0.00  0.00    +0.000 A 
ATOM      4  O   UNL     1      -6.305  14.516  22.156  0.00  0.00    +0.000 OA
ATOM      5  C   UNL     1      -4.050  13.933  21.738  0.00  0.00    +0.000 A 
ATOM      6  C   UNL     1      -4.102  13.120  20.593  0.00  0.00    +0.000 A 
ATOM      7  N   UNL     1      -2.788  12.658  20.390  0.00  0.00    +0.000 N 
ATOM      8  C   UNL     1      -1.963  13.198  21.383  0.00  0.00    +0.000 A 
ATOM      9  C   UNL     1      -2.721  13.997  22.211  0.00  0.00    +0.000 A 
ATOM     10  N   UNL     1      -2.390  14.769  23.330  0.00  0.00    +0.000 N 
ATOM     11  C   UNL     1      -1.081  14.891  23.947  0.00  0.00    +0.000 C 
ATOM     12  C   UNL     1      -3.379  15.536  23.965  0.00  0.00    +0.000 A 
ATOM     13  O   UNL     1      -3.115  16.246  24.944  0.00  0.00    +0.000 OA
ATOM     14  C   UNL     1      -0.501  12.875  21.300  0.00  0.00    +0.000 C 
ATOM     15  N   UNL     1      -0.270  11.511  20.822  0.00  0.00    +0.000 N 
ATOM     16  C   UNL     1      -0.960  11.231  19.634  0.00  0.00    +0.000 A 
ATOM     17  C   UNL     1      -0.421  10.291  18.749  0.00  0.00    +0.000 A 
ATOM     18  C   UNL     1      -1.057  10.022  17.538  0.00  0.00    +0.000 A 
ATOM     19  C   UNL     1      -2.227  10.697  17.212  0.00  0.00    +0.000 A 
ATOM     20  C   UNL     1      -2.800  11.609  18.113  0.00  0.00    +0.000 A 
ATOM     21  C   UNL     1      -2.218  11.816  19.362  0.00  0.00    +0.000 A 
ATOM     22  H   UNL     1       0.717  11.277  20.777  0.00  0.00    +0.000 HD
ENDROOT
BRANCH  14  23
ATOM     23  C   UNL     1       0.300  13.881  20.469  0.00  0.00    +0.000 A 
ATOM     24  C   UNL     1      -0.302  14.904  19.710  0.00  0.00    +0.000 A 
ATOM     25  C   UNL     1       0.455  15.759  18.907  0.00  0.00    +0.000 A 
ATOM     26  C   UNL     1       1.835  15.616  18.849  0.00  0.00    +0.000 A 
ATOM     27  C   UNL     1       2.456  14.615  19.595  0.00  0.00    +0.000 A 
ATOM     28  C   UNL     1       1.693  13.762  20.389  0.00  0.00    +0.000 A 
ATOM     29  F   UNL     1       2.315  12.794  21.077  0.00  0.00    +0.000 F 
ENDBRANCH  14  23
BRANCH   6  30
ATOM     30  C   UNL     1      -5.298  12.745  19.798  0.00  0.00    +0.000 A 
ATOM     31  C   UNL     1      -5.770  13.582  18.773  0.00  0.00    +0.000 A 
ATOM     32  C   UNL     1      -6.935  13.278  18.061  0.00  0.00    +0.000 A 
ATOM     33  C   UNL     1      -7.600  12.080  18.295  0.00  0.00    +0.000 A 
ATOM     34  C   UNL     1      -7.126  11.215  19.275  0.00  0.00    +0.000 A 
ATOM     35  C   UNL     1      -6.023  11.572  20.056  0.00  0.00    +0.000 A 
ENDBRANCH   6  30
TORSDOF 2
ENDMDL
MODEL 5
REMARK VINA RESULT:      -7.0      2.934      6.708
REMARK  Name = 
REMARK  4 active torsions:
REMARK  status: ('A' for Active; 'I' for Inactive)
REMARK    1  A    between atoms: C_1  and  N_2
REMARK    2  A    between atoms: C_6  and  C_7
REMARK    3  A    between atoms: N_16  and  C_17
REMARK    4  A    between atoms: C_20  and  C_21
REMARK                            x       y       z     vdW  Elec       q    Type
REMARK                         _______ _______ _______ _____ _____    ______ ____
ROOT
ATOM      1  C   UNL     1      -1.259  14.424  24.224  0.00  0.00    +0.000 C 
ATOM      2  N   UNL     1      -2.000  13.984  23.055  0.00  0.00    +0.000 N 
ATOM      3  C   UNL     1      -1.292  13.366  22.027  0.00  0.00    +0.000 A 
ATOM      4  O   UNL     1      -0.071  13.244  22.054  0.00  0.00    +0.000 OA
ATOM      5  C   UNL     1      -2.123  12.885  20.931  0.00  0.00    +0.000 A 
ATOM      6  C   UNL     1      -1.779  12.120  19.805  0.00  0.00    +0.000 A 
ATOM      7  N   UNL     1      -2.961  11.992  19.051  0.00  0.00    +0.000 N 
ATOM      8  C   UNL     1      -3.996  12.654  19.723  0.00  0.00    +0.000 A 
ATOM      9  C   UNL     1      -3.500  13.196  20.889  0.00  0.00    +0.000 A 
ATOM     10  N   UNL     1      -4.106  13.930  21.914  0.00  0.00    +0.000 N 
ATOM     11  C   UNL     1      -5.493  14.354  21.978  0.00  0.00    +0.000 C 
ATOM     12  C   UNL     1      -3.351  14.322  23.031  0.00  0.00    +0.000 A 
ATOM     13  O   UNL     1      -3.862  14.954  23.964  0.00  0.00    +0.000 OA
ATOM     14  C   UNL     1      -5.362  12.576  19.109  0.00  0.00    +0.000 C 
ATOM     15  N   UNL     1      -5.305  12.606  17.647  0.00  0.00    +0.000 N 
ATOM     16  C   UNL     1      -4.415  11.658  17.122  0.00  0.00    +0.000 A 
ATOM     17  C   UNL     1      -4.666  11.132  15.850  0.00  0.00    +0.000 A 
ATOM     18  C   UNL     1      -3.827  10.155  15.316  0.00  0.00    +0.000 A 
ATOM     19  C   UNL     1      -2.742   9.702  16.057  0.00  0.00    +0.000 A 
ATOM     20  C   UNL     1      -2.455  10.256  17.314  0.00  0.00    +0.000 A 
ATOM     21  C   UNL     1      -3.237  11.295  17.815  0.00  0.00    +0.000 A 
ATOM     22  H   UNL     1      -6.227  12.569  17.222  0.00  0.00    +0.000 HD
ENDROOT
BRANCH  14  23
ATOM     23  C   UNL     1      -6.181  11.376  19.593  0.00  0.00    +0.000 A 
ATOM     24  C   UNL     1      -6.118  10.106  18.985  0.00  0.00    +0.000 A 
ATOM     25  C   UNL     1      -6.932   9.053  19.407  0.00  0.00    +0.000 A 
ATOM     26  C   UNL     1      -7.825   9.244  20.453  0.00  0.00    +0.000 A 
ATOM     27  C   UNL     1      -7.903  10.489  21.076  0.00  0.00    +0.000 A 
ATOM     28  C   UNL     1      -7.091  11.536  20.644  0.00  0.00    +0.000 A 
ATOM     29  F   UNL     1      -7.205  12.729  21.246  0.00  0.00    +0.000 F 
ENDBRANCH  14  23
BRANCH   6  30
ATOM     30  C   UNL     1      -0.437  11.612  19.425  0.00  0.00    +0.000 A 
ATOM     31  C   UNL     1      -0.070  10.282  19.692  0.00  0.00    +0.000 A 
ATOM     32  C   UNL     1       1.213   9.807  19.404  0.00  0.00    +0.000 A 
ATOM     33  C   UNL     1       2.129  10.627  18.756  0.00  0.00    +0.000 A 
ATOM     34  C   UNL     1       1.774  11.935  18.443  0.00  0.00    +0.000 A 
ATOM     35  C   UNL     1       0.527  12.437  18.826  0.00  0.00    +0.000 A 
ENDBRANCH   6  30
TORSDOF 2
ENDMDL
MODEL 6
REMARK VINA RESULT:      -6.9      2.885      6.445
REMARK  Name = 
REMARK  4 active torsions:
REMARK  status: ('A' for Active; 'I' for Inactive)
REMARK    1  A    between atoms: C_1  and  N_2
REMARK    2  A    between atoms: C_6  and  C_7
REMARK    3  A    between atoms: N_16  and  C_17
REMARK    4  A    between atoms: C_20  and  C_21
REMARK                            x       y       z     vdW  Elec       q    Type
REMARK                         _______ _______ _______ _____ _____    ______ ____
ROOT
ATOM      1  C   UNL     1       1.545  13.185  19.993  0.00  0.00    +0.000 C 
ATOM      2  N   UNL     1       0.114  13.060  20.207  0.00  0.00    +0.000 N 
ATOM      3  C   UNL     1      -0.436  13.687  21.323  0.00  0.00    +0.000 A 
ATOM      4  O   UNL     1       0.254  14.276  22.150  0.00  0.00    +0.000 OA
ATOM      5  C   UNL     1      -1.886  13.579  21.418  0.00  0.00    +0.000 A 
ATOM      6  C   UNL     1      -2.780  14.177  22.321  0.00  0.00    +0.000 A 
ATOM      7  N   UNL     1      -4.055  13.683  21.985  0.00  0.00    +0.000 N 
ATOM      8  C   UNL     1      -3.928  12.820  20.890  0.00  0.00    +0.000 A 
ATOM      9  C   UNL     1      -2.602  12.757  20.519  0.00  0.00    +0.000 A 
ATOM     10  N   UNL     1      -1.946  12.065  19.495  0.00  0.00    +0.000 N 
ATOM     11  C   UNL     1      -2.548  11.158  18.534  0.00  0.00    +0.000 C 
ATOM     12  C   UNL     1      -0.563  12.227  19.319  0.00  0.00    +0.000 A 
ATOM     13  O   UNL     1       0.043  11.646  18.410  0.00  0.00    +0.000 OA
ATOM     14  C   UNL     1      -5.193  12.238  20.335  0.00  0.00    +0.000 C 
ATOM     15  N   UNL     1      -6.165  11.943  21.389  0.00  0.00    +0.000 N 
ATOM     16  C   UNL     1      -6.392  13.036  22.236  0.00  0.00    +0.000 A 
ATOM     17  C   UNL     1      -7.641  13.159  22.855  0.00  0.00    +0.000 A 
ATOM     18  C   UNL     1      -7.917  14.257  23.668  0.00  0.00    +0.000 A 
ATOM     19  C   UNL     1      -6.945  15.233  23.856  0.00  0.00    +0.000 A 
ATOM     20  C   UNL     1      -5.674  15.096  23.276  0.00  0.00    +0.000 A 
ATOM     21  C   UNL     1      -5.363  13.957  22.536  0.00  0.00    +0.000 A 
ATOM     22  H   UNL     1      -7.021  11.533  21.024  0.00  0.00    +0.000 HD
ENDROOT
BRANCH  14  23
ATOM     23  C   UNL     1      -5.830  13.096  19.238  0.00  0.00    +0.000 A 
ATOM     24  C   UNL     1      -6.146  14.459  19.414  0.00  0.00    +0.000 A 
ATOM     25  C   UNL     1      -6.792  15.193  18.418  0.00  0.00    +0.000 A 
ATOM     26  C   UNL     1      -7.131  14.583  17.216  0.00  0.00    +0.000 A 
ATOM     27  C   UNL     1      -6.824  13.238  17.015  0.00  0.00    +0.000 A 
ATOM     28  C   UNL     1      -6.185  12.511  18.018  0.00  0.00    +0.000 A 
ATOM     29  F   UNL     1      -5.923  11.213  17.805  0.00  0.00    +0.000 F 
ENDBRANCH  14  23
BRANCH   6  30
ATOM     30  C   UNL     1      -2.459  15.079  23.456  0.00  0.00    +0.000 A 
ATOM     31  C   UNL     1      -2.312  14.572  24.758  0.00  0.00    +0.000 A 
ATOM     32  C   UNL     1      -2.079  15.416  25.848  0.00  0.00    +0.000 A 
ATOM     33  C   UNL     1      -1.893  16.778  25.645  0.00  0.00    +0.000 A 
ATOM     34  C   UNL     1      -1.990  17.298  24.359  0.00  0.00    +0.000 A 
ATOM     35  C   UNL     1      -2.327  16.466  23.287  0.00  0.00    +0.000 A 
ENDBRANCH   6  30
TORSDOF 2
ENDMDL
MODEL 7
REMARK VINA RESULT:      -6.7      3.353      6.241
REMARK  Name = 
REMARK  4 active torsions:
REMARK  status: ('A' for Active; 'I' for Inactive)
REMARK    1  A    between atoms: C_1  and  N_2
REMARK    2  A    between atoms: C_6  and  C_7
REMARK    3  A    between atoms: N_16  and  C_17
REMARK    4  A    between atoms: C_20  and  C_21
REMARK                            x       y       z     vdW  Elec       q    Type
REMARK                         _______ _______ _______ _____ _____    ______ ____
ROOT
ATOM      1  C   UNL     1       1.616  10.468  18.504  0.00  0.00    +0.000 C 
ATOM      2  N   UNL     1       0.914  11.238  19.516  0.00  0.00    +0.000 N 
ATOM      3  C   UNL     1       0.930  12.627  19.409  0.00  0.00    +0.000 A 
ATOM      4  O   UNL     1       1.565  13.208  18.534  0.00  0.00    +0.000 OA
ATOM      5  C   UNL     1       0.136  13.316  20.417  0.00  0.00    +0.000 A 
ATOM      6  C   UNL     1      -0.176  14.679  20.545  0.00  0.00    +0.000 A 
ATOM      7  N   UNL     1      -0.928  14.792  21.730  0.00  0.00    +0.000 N 
ATOM      8  C   UNL     1      -1.077  13.518  22.290  0.00  0.00    +0.000 A 
ATOM      9  C   UNL     1      -0.442  12.596  21.486  0.00  0.00    +0.000 A 
ATOM     10  N   UNL     1      -0.304  11.207  21.579  0.00  0.00    +0.000 N 
ATOM     11  C   UNL     1      -0.806  10.352  22.640  0.00  0.00    +0.000 C 
ATOM     12  C   UNL     1       0.372  10.505  20.570  0.00  0.00    +0.000 A 
ATOM     13  O   UNL     1       0.493   9.274  20.611  0.00  0.00    +0.000 OA
ATOM     14  C   UNL     1      -1.911  13.416  23.532  0.00  0.00    +0.000 C 
ATOM     15  N   UNL     1      -1.737  14.580  24.403  0.00  0.00    +0.000 N 
ATOM     16  C   UNL     1      -1.913  15.793  23.724  0.00  0.00    +0.000 A 
ATOM     17  C   UNL     1      -2.381  16.902  24.438  0.00  0.00    +0.000 A 
ATOM     18  C   UNL     1      -2.611  18.112  23.785  0.00  0.00    +0.000 A 
ATOM     19  C   UNL     1      -2.378  18.210  22.419  0.00  0.00    +0.000 A 
ATOM     20  C   UNL     1      -1.865  17.117  21.701  0.00  0.00    +0.000 A 
ATOM     21  C   UNL     1      -1.549  15.933  22.365  0.00  0.00    +0.000 A 
ATOM     22  H   UNL     1      -2.286  14.513  25.255  0.00  0.00    +0.000 HD
ENDROOT
BRANCH  14  23
ATOM     23  C   UNL     1      -3.396  13.170  23.253  0.00  0.00    +0.000 A 
ATOM     24  C   UNL     1      -3.955  13.226  21.960  0.00  0.00    +0.000 A 
ATOM     25  C   UNL     1      -5.326  13.067  21.749  0.00  0.00    +0.000 A 
ATOM     26  C   UNL     1      -6.172  12.840  22.828  0.00  0.00    +0.000 A 
ATOM     27  C   UNL     1      -5.643  12.773  24.116  0.00  0.00    +0.000 A 
ATOM     28  C   UNL     1      -4.274  12.940  24.318  0.00  0.00    +0.000 A 
ATOM     29  F   UNL     1      -3.798  12.894  25.570  0.00  0.00    +0.000 F 
ENDBRANCH  14  23
BRANCH   6  30
ATOM     30  C   UNL     1       0.257  15.798  19.671  0.00  0.00    +0.000 A 
ATOM     31  C   UNL     1       1.468  16.469  19.910  0.00  0.00    +0.000 A 
ATOM     32  C   UNL     1       1.858  17.569  19.139  0.00  0.00    +0.000 A 
ATOM     33  C   UNL     1       1.089  17.962  18.051  0.00  0.00    +0.000 A 
ATOM     34  C   UNL     1      -0.093  17.286  17.768  0.00  0.00    +0.000 A 
ATOM     35  C   UNL     1      -0.531  16.254  18.604  0.00  0.00    +0.000 A 
ENDBRANCH   6  30
TORSDOF 2
ENDMDL
MODEL 8
REMARK VINA RESULT:      -6.5      2.000      2.752
REMARK  Name = 
REMARK  4 active torsions:
REMARK  status: ('A' for Active; 'I' for Inactive)
REMARK    1  A    between atoms: C_1  and  N_2
REMARK    2  A    between atoms: C_6  and  C_7
REMARK    3  A    between atoms: N_16  and  C_17
REMARK    4  A    between atoms: C_20  and  C_21
REMARK                            x       y       z     vdW  Elec       q    Type
REMARK                         _______ _______ _______ _____ _____    ______ ____
ROOT
ATOM      1  C   UNL     1      -6.888  13.172  23.866  0.00  0.00    +0.000 C 
ATOM      2  N   UNL     1      -5.704  13.329  23.040  0.00  0.00    +0.000 N 
ATOM      3  C   UNL     1      -4.715  14.207  23.477  0.00  0.00    +0.000 A 
ATOM      4  O   UNL     1      -4.845  14.889  24.489  0.00  0.00    +0.000 OA
ATOM      5  C   UNL     1      -3.529  14.244  22.631  0.00  0.00    +0.000 A 
ATOM      6  C   UNL     1      -2.304  14.905  22.820  0.00  0.00    +0.000 A 
ATOM      7  N   UNL     1      -1.541  14.638  21.668  0.00  0.00    +0.000 N 
ATOM      8  C   UNL     1      -2.288  13.818  20.814  0.00  0.00    +0.000 A 
ATOM      9  C   UNL     1      -3.508  13.553  21.400  0.00  0.00    +0.000 A 
ATOM     10  N   UNL     1      -4.602  12.787  20.983  0.00  0.00    +0.000 N 
ATOM     11  C   UNL     1      -4.732  12.065  19.730  0.00  0.00    +0.000 C 
ATOM     12  C   UNL     1      -5.720  12.654  21.822  0.00  0.00    +0.000 A 
ATOM     13  O   UNL     1      -6.694  11.966  21.492  0.00  0.00    +0.000 OA
ATOM     14  C   UNL     1      -1.619  13.363  19.552  0.00  0.00    +0.000 C 
ATOM     15  N   UNL     1      -0.750  14.400  18.992  0.00  0.00    +0.000 N 
ATOM     16  C   UNL     1       0.151  14.915  19.934  0.00  0.00    +0.000 A 
ATOM     17  C   UNL     1       1.382  15.407  19.487  0.00  0.00    +0.000 A 
ATOM     18  C   UNL     1       2.321  15.886  20.401  0.00  0.00    +0.000 A 
ATOM     19  C   UNL     1       2.028  15.866  21.759  0.00  0.00    +0.000 A 
ATOM     20  C   UNL     1       0.778  15.417  22.214  0.00  0.00    +0.000 A 
ATOM     21  C   UNL     1      -0.196  15.021  21.300  0.00  0.00    +0.000 A 
ATOM     22  H   UNL     1      -0.303  14.107  18.128  0.00  0.00    +0.000 HD
ENDROOT
BRANCH  14  23
ATOM     23  C   UNL     1      -0.856  12.045  19.707  0.00  0.00    +0.000 A 
ATOM     24  C   UNL     1      -0.229  11.655  20.908  0.00  0.00    +0.000 A 
ATOM     25  C   UNL     1       0.520  10.480  20.993  0.00  0.00    +0.000 A 
ATOM     26  C   UNL     1       0.653   9.660  19.879  0.00  0.00    +0.000 A 
ATOM     27  C   UNL     1       0.037  10.020  18.680  0.00  0.00    +0.000 A 
ATOM     28  C   UNL     1      -0.702  11.198  18.603  0.00  0.00    +0.000 A 
ATOM     29  F   UNL     1      -1.263  11.530  17.431  0.00  0.00    +0.000 F 
ENDBRANCH  14  23
BRANCH   6  30
ATOM     30  C   UNL     1      -1.908  15.779  23.953  0.00  0.00    +0.000 A 
ATOM     31  C   UNL     1      -1.398  15.229  25.141  0.00  0.00    +0.000 A 
ATOM     32  C   UNL     1      -1.085  16.031  26.242  0.00  0.00    +0.000 A 
ATOM     33  C   UNL     1      -1.185  17.414  26.145  0.00  0.00    +0.000 A 
ATOM     34  C   UNL     1      -1.647  17.986  24.964  0.00  0.00    +0.000 A 
ATOM     35  C   UNL     1      -2.058  17.173  23.903  0.00  0.00    +0.000 A 
ENDBRANCH   6  30
TORSDOF 2
ENDMDL
MODEL 9
REMARK VINA RESULT:      -6.5      1.522      1.758
REMARK  Name = 
REMARK  4 active torsions:
REMARK  status: ('A' for Active; 'I' for Inactive)
REMARK    1  A    between atoms: C_1  and  N_2
REMARK    2  A    between atoms: C_6  and  C_7
REMARK    3  A    between atoms: N_16  and  C_17
REMARK    4  A    between atoms: C_20  and  C_21
REMARK                            x       y       z     vdW  Elec       q    Type
REMARK                         _______ _______ _______ _____ _____    ______ ____
ROOT
ATOM      1  C   UNL     1      -7.817  11.443  21.169  0.00  0.00    +0.000 C 
ATOM      2  N   UNL     1      -6.477  11.801  20.737  0.00  0.00    +0.000 N 
ATOM      3  C   UNL     1      -5.815  12.810  21.431  0.00  0.00    +0.000 A 
ATOM      4  O   UNL     1      -6.349  13.439  22.340  0.00  0.00    +0.000 OA
ATOM      5  C   UNL     1      -4.449  13.049  20.983  0.00  0.00    +0.000 A 
ATOM      6  C   UNL     1      -3.456  13.887  21.518  0.00  0.00    +0.000 A 
ATOM      7  N   UNL     1      -2.348  13.768  20.657  0.00  0.00    +0.000 N 
ATOM      8  C   UNL     1      -2.667  12.863  19.638  0.00  0.00    +0.000 A 
ATOM      9  C   UNL     1      -3.950  12.400  19.833  0.00  0.00    +0.000 A 
ATOM     10  N   UNL     1      -4.735  11.484  19.123  0.00  0.00    +0.000 N 
ATOM     11  C   UNL     1      -4.367  10.781  17.908  0.00  0.00    +0.000 C 
ATOM     12  C   UNL     1      -6.019  11.161  19.588  0.00  0.00    +0.000 A 
ATOM     13  O   UNL     1      -6.730  10.339  18.995  0.00  0.00    +0.000 OA
ATOM     14  C   UNL     1      -1.585  12.548  18.649  0.00  0.00    +0.000 C 
ATOM     15  N   UNL     1      -0.758  13.719  18.353  0.00  0.00    +0.000 N 
ATOM     16  C   UNL     1      -0.275  14.344  19.510  0.00  0.00    +0.000 A 
ATOM     17  C   UNL     1       0.942  15.031  19.445  0.00  0.00    +0.000 A 
ATOM     18  C   UNL     1       1.475  15.627  20.588  0.00  0.00    +0.000 A 
ATOM     19  C   UNL     1       0.792  15.529  21.794  0.00  0.00    +0.000 A 
ATOM     20  C   UNL     1      -0.452  14.882  21.861  0.00  0.00    +0.000 A 
ATOM     21  C   UNL     1      -1.031  14.363  20.704  0.00  0.00    +0.000 A 
ATOM     22  H   UNL     1      -0.031  13.519  17.672  0.00  0.00    +0.000 HD
ENDROOT
BRANCH  14  23
ATOM     23  C   UNL     1      -0.711  11.359  19.058  0.00  0.00    +0.000 A 
ATOM     24  C   UNL     1      -0.022  11.299  20.287  0.00  0.00    +0.000 A 
ATOM     25  C   UNL     1       0.824  10.233  20.598  0.00  0.00    +0.000 A 
ATOM     26  C   UNL     1       0.996   9.195  19.690  0.00  0.00    +0.000 A 
ATOM     27  C   UNL     1       0.321   9.228  18.470  0.00  0.00    +0.000 A 
ATOM     28  C   UNL     1      -0.517  10.300  18.165  0.00  0.00    +0.000 A 
ATOM     29  F   UNL     1      -1.134  10.315  16.975  0.00  0.00    +0.000 F 
ENDBRANCH  14  23
BRANCH   6  30
ATOM     30  C   UNL     1      -3.560  14.784  22.696  0.00  0.00    +0.000 A 
ATOM     31  C   UNL     1      -3.275  14.310  23.987  0.00  0.00    +0.000 A 
ATOM     32  C   UNL     1      -3.435  15.122  25.115  0.00  0.00    +0.000 A 
ATOM     33  C   UNL     1      -3.793  16.456  24.965  0.00  0.00    +0.000 A 
ATOM     34  C   UNL     1      -4.038  16.961  23.692  0.00  0.00    +0.000 A 
ATOM     35  C   UNL     1      -3.979  16.118  22.578  0.00  0.00    +0.000 A 
ENDBRANCH   6  30
TORSDOF 2
ENDMDL
