MODEL 1
REMARK VINA RESULT:      -9.2      0.000      0.000
REMARK  Name = 
REMARK  6 active torsions:
REMARK  status: ('A' for Active; 'I' for Inactive)
REMARK    1  A    between atoms: C_2  and  C_5
REMARK    2  A    between atoms: C_7  and  N_8
REMARK    3  A    between atoms: N_8  and  C_9
REMARK    4  A    between atoms: C_12  and  O_13
REMARK    5  A    between atoms: O_13  and  C_14
REMARK    6  A    between atoms: C_24  and  C_25
REMARK                            x       y       z     vdW  Elec       q    Type
REMARK                         _______ _______ _______ _____ _____    ______ ____
ROOT
ATOM      1  C   UNL     1      -2.931  10.682  16.828  0.00  0.00    +0.000 A 
ATOM      2  C   UNL     1      -1.656  10.524  17.363  0.00  0.00    +0.000 A 
ATOM      3  C   UNL     1      -1.347  11.112  18.598  0.00  0.00    +0.000 A 
ATOM      4  C   UNL     1      -2.358  11.868  19.254  0.00  0.00    +0.000 A 
ATOM      5  C   UNL     1      -2.173  12.519  20.489  0.00  0.00    +0.000 A 
ATOM      6  C   UNL     1      -3.196  13.150  21.210  0.00  0.00    +0.000 A 
ATOM      7  C   UNL     1      -4.451  13.157  20.614  0.00  0.00    +0.000 A 
ATOM      8  C   UNL     1      -4.654  12.560  19.365  0.00  0.00    +0.000 A 
ATOM      9  C   UNL     1      -3.630  11.914  18.676  0.00  0.00    +0.000 A 
ATOM     10  N   UNL     1      -3.914  11.351  17.494  0.00  0.00    +0.000 NA
ENDROOT
BRANCH   6  11
ATOM     11  C   UNL     1      -2.905  13.717  22.541  0.00  0.00    +0.000 A 
ATOM     12  C   UNL     1      -3.914  14.034  23.451  0.00  0.00    +0.000 A 
ATOM     13  C   UNL     1      -3.563  14.573  24.682  0.00  0.00    +0.000 A 
ATOM     14  N   UNL     1      -2.293  14.825  25.064  0.00  0.00    +0.000 NA
ATOM     15  C   UNL     1      -1.328  14.518  24.182  0.00  0.00    +0.000 A 
ATOM     16  C   UNL     1      -1.581  13.967  22.938  0.00  0.00    +0.000 A 
ENDBRANCH   6  11
BRANCH   1  18
ATOM     17  F   UNL     1      -2.488   9.081  15.078  0.00  0.00    +0.000 F 
ATOM     18  C   UNL     1      -3.273  10.136  15.450  0.00  0.00    +0.000 C 
ATOM     19  F   UNL     1      -3.124  11.064  14.461  0.00  0.00    +0.000 F 
ATOM     20  F   UNL     1      -4.557   9.684  15.352  0.00  0.00    +0.000 F 
ENDBRANCH   1  18
BRANCH   3  21
ATOM     21  N   UNL     1      -0.052  10.907  19.130  0.00  0.00    +0.000 N 
ATOM     22  H   UNL     1       0.390  11.751  19.483  0.00  0.00    +0.000 HD
BRANCH  21  23
ATOM     23  C   UNL     1       0.752   9.756  19.247  0.00  0.00    +0.000 A 
ATOM     24  C   UNL     1       0.878   9.110  20.486  0.00  0.00    +0.000 A 
ATOM     25  C   UNL     1       1.643   7.942  20.614  0.00  0.00    +0.000 A 
ATOM     26  C   UNL     1       2.311   7.420  19.504  0.00  0.00    +0.000 A 
ATOM     27  C   UNL     1       2.315   8.139  18.313  0.00  0.00    +0.000 A 
ATOM     28  C   UNL     1       1.516   9.274  18.177  0.00  0.00    +0.000 A 
BRANCH  26  29
ATOM     29  O   UNL     1       2.979   6.230  19.672  0.00  0.00    +0.000 OA
BRANCH  29  30
ATOM     30  C   UNL     1       2.281   5.036  19.661  0.00  0.00    +0.000 A 
ATOM     31  C   UNL     1       2.025   4.496  18.399  0.00  0.00    +0.000 A 
ATOM     32  C   UNL     1       1.357   3.274  18.275  0.00  0.00    +0.000 A 
ATOM     33  C   UNL     1       0.934   2.587  19.413  0.00  0.00    +0.000 A 
ATOM     34  C   UNL     1       1.180   3.122  20.674  0.00  0.00    +0.000 A 
ATOM     35  C   UNL     1       1.876   4.326  20.798  0.00  0.00    +0.000 A 
ENDBRANCH  29  30
ENDBRANCH  26  29
ENDBRANCH  21  23
ENDBRANCH   3  21
TORSDOF 6
ENDMDL
MODEL 2
REMARK VINA RESULT:      -9.1      0.336      1.381
REMARK  Name = 
REMARK  6 active torsions:
REMARK  status: ('A' for Active; 'I' for Inactive)
REMARK    1  A    between atoms: C_2  and  C_5
REMARK    2  A    between atoms: C_7  and  N_8
REMARK    3  A    between atoms: N_8  and  C_9
REMARK    4  A    between atoms: C_12  and  O_13
REMARK    5  A    between atoms: O_13  and  C_14
REMARK    6  A    between atoms: C_24  and  C_25
REMARK                            x       y       z     vdW  Elec       q    Type
REMARK                         _______ _______ _______ _____ _____    ______ ____
ROOT
ATOM      1  C   UNL     1      -3.079  10.637  16.652  0.00  0.00    +0.000 A 
ATOM      2  C   UNL     1      -1.800  10.536  17.191  0.00  0.00    +0.000 A 
ATOM      3  C   UNL     1      -1.521  11.142  18.425  0.00  0.00    +0.000 A 
ATOM      4  C   UNL     1      -2.565  11.856  19.074  0.00  0.00    +0.000 A 
ATOM      5  C   UNL     1      -2.412  12.521  20.307  0.00  0.00    +0.000 A 
ATOM      6  C   UNL     1      -3.464  13.110  21.022  0.00  0.00    +0.000 A 
ATOM      7  C   UNL     1      -4.717  13.060  20.423  0.00  0.00    +0.000 A 
ATOM      8  C   UNL     1      -4.890  12.449  19.176  0.00  0.00    +0.000 A 
ATOM      9  C   UNL     1      -3.836  11.845  18.493  0.00  0.00    +0.000 A 
ATOM     10  N   UNL     1      -4.093  11.266  17.312  0.00  0.00    +0.000 NA
ENDROOT
BRANCH   6  11
ATOM     11  C   UNL     1      -3.202  13.694  22.351  0.00  0.00    +0.000 A 
ATOM     12  C   UNL     1      -1.918  13.757  22.896  0.00  0.00    +0.000 A 
ATOM     13  C   UNL     1      -1.750  14.314  24.156  0.00  0.00    +0.000 A 
ATOM     14  N   UNL     1      -2.759  14.800  24.911  0.00  0.00    +0.000 NA
ATOM     15  C   UNL     1      -3.990  14.735  24.380  0.00  0.00    +0.000 A 
ATOM     16  C   UNL     1      -4.253  14.209  23.127  0.00  0.00    +0.000 A 
ENDBRANCH   6  11
BRANCH   1  18
ATOM     17  F   UNL     1      -4.721  10.122  14.961  0.00  0.00    +0.000 F 
ATOM     18  C   UNL     1      -3.393  10.071  15.275  0.00  0.00    +0.000 C 
ATOM     19  F   UNL     1      -3.041   8.759  15.150  0.00  0.00    +0.000 F 
ATOM     20  F   UNL     1      -2.756  10.729  14.263  0.00  0.00    +0.000 F 
ENDBRANCH   1  18
BRANCH   3  21
ATOM     21  N   UNL     1      -0.219  10.996  18.961  0.00  0.00    +0.000 N 
ATOM     22  H   UNL     1       0.204  11.867  19.268  0.00  0.00    +0.000 HD
BRANCH  21  23
ATOM     23  C   UNL     1       0.612   9.872  19.134  0.00  0.00    +0.000 A 
ATOM     24  C   UNL     1       0.723   9.268  20.396  0.00  0.00    +0.000 A 
ATOM     25  C   UNL     1       1.516   8.127  20.580  0.00  0.00    +0.000 A 
ATOM     26  C   UNL     1       2.226   7.589  19.503  0.00  0.00    +0.000 A 
ATOM     27  C   UNL     1       2.241   8.271  18.291  0.00  0.00    +0.000 A 
ATOM     28  C   UNL     1       1.416   9.379  18.100  0.00  0.00    +0.000 A 
BRANCH  26  29
ATOM     29  O   UNL     1       2.922   6.424  19.726  0.00  0.00    +0.000 OA
BRANCH  29  30
ATOM     30  C   UNL     1       2.285   5.203  19.599  0.00  0.00    +0.000 A 
ATOM     31  C   UNL     1       1.915   4.586  20.796  0.00  0.00    +0.000 A 
ATOM     32  C   UNL     1       1.234   3.365  20.782  0.00  0.00    +0.000 A 
ATOM     33  C   UNL     1       0.926   2.748  19.569  0.00  0.00    +0.000 A 
ATOM     34  C   UNL     1       1.298   3.353  18.372  0.00  0.00    +0.000 A 
ATOM     35  C   UNL     1       1.948   4.588  18.386  0.00  0.00    +0.000 A 
ENDBRANCH  29  30
ENDBRANCH  26  29
ENDBRANCH  21  23
ENDBRANCH   3  21
TORSDOF 6
ENDMDL
MODEL 3
REMARK VINA RESULT:      -9.1      3.441      4.379
REMARK  Name = 
REMARK  6 active torsions:
REMARK  status: ('A' for Active; 'I' for Inactive)
REMARK    1  A    between atoms: C_2  and  C_5
REMARK    2  A    between atoms: C_7  and  N_8
REMARK    3  A    between atoms: N_8  and  C_9
REMARK    4  A    between atoms: C_12  and  O_13
REMARK    5  A    between atoms: O_13  and  C_14
REMARK    6  A    between atoms: C_24  and  C_25
REMARK                            x       y       z     vdW  Elec       q    Type
REMARK                         _______ _______ _______ _____ _____    ______ ____
ROOT
ATOM      1  C   UNL     1       2.151  14.233  18.511  0.00  0.00    +0.000 A 
ATOM      2  C   UNL     1       1.853  12.891  18.294  0.00  0.00    +0.000 A 
ATOM      3  C   UNL     1       0.641  12.367  18.767  0.00  0.00    +0.000 A 
ATOM      4  C   UNL     1      -0.237  13.237  19.471  0.00  0.00    +0.000 A 
ATOM      5  C   UNL     1      -1.475  12.833  20.009  0.00  0.00    +0.000 A 
ATOM      6  C   UNL     1      -2.409  13.707  20.583  0.00  0.00    +0.000 A 
ATOM      7  C   UNL     1      -2.036  15.043  20.654  0.00  0.00    +0.000 A 
ATOM      8  C   UNL     1      -0.791  15.465  20.172  0.00  0.00    +0.000 A 
ATOM      9  C   UNL     1       0.113  14.585  19.580  0.00  0.00    +0.000 A 
ATOM     10  N   UNL     1       1.274  15.076  19.127  0.00  0.00    +0.000 NA
ENDROOT
BRANCH   6  11
ATOM     11  C   UNL     1      -3.716  13.185  21.027  0.00  0.00    +0.000 A 
ATOM     12  C   UNL     1      -4.633  12.623  20.138  0.00  0.00    +0.000 A 
ATOM     13  C   UNL     1      -5.847  12.161  20.628  0.00  0.00    +0.000 A 
ATOM     14  N   UNL     1      -6.213  12.224  21.926  0.00  0.00    +0.000 NA
ATOM     15  C   UNL     1      -5.325  12.766  22.775  0.00  0.00    +0.000 A 
ATOM     16  C   UNL     1      -4.087  13.242  22.380  0.00  0.00    +0.000 A 
ENDBRANCH   6  11
BRANCH   1  18
ATOM     17  F   UNL     1       4.039  15.644  19.030  0.00  0.00    +0.000 F 
ATOM     18  C   UNL     1       3.494  14.813  18.092  0.00  0.00    +0.000 C 
ATOM     19  F   UNL     1       3.416  15.556  16.951  0.00  0.00    +0.000 F 
ATOM     20  F   UNL     1       4.443  13.860  17.857  0.00  0.00    +0.000 F 
ENDBRANCH   1  18
BRANCH   3  21
ATOM     21  N   UNL     1       0.354  11.007  18.505  0.00  0.00    +0.000 N 
ATOM     22  H   UNL     1      -0.529  10.853  18.028  0.00  0.00    +0.000 HD
BRANCH  21  23
ATOM     23  C   UNL     1       1.055   9.819  18.797  0.00  0.00    +0.000 A 
ATOM     24  C   UNL     1       0.993   9.265  20.085  0.00  0.00    +0.000 A 
ATOM     25  C   UNL     1       1.653   8.065  20.383  0.00  0.00    +0.000 A 
ATOM     26  C   UNL     1       2.402   7.416  19.399  0.00  0.00    +0.000 A 
ATOM     27  C   UNL     1       2.591   8.038  18.169  0.00  0.00    +0.000 A 
ATOM     28  C   UNL     1       1.897   9.208  17.861  0.00  0.00    +0.000 A 
BRANCH  26  29
ATOM     29  O   UNL     1       2.959   6.202  19.728  0.00  0.00    +0.000 OA
BRANCH  29  30
ATOM     30  C   UNL     1       2.253   5.034  19.509  0.00  0.00    +0.000 A 
ATOM     31  C   UNL     1       1.731   4.419  20.650  0.00  0.00    +0.000 A 
ATOM     32  C   UNL     1       0.969   3.252  20.539  0.00  0.00    +0.000 A 
ATOM     33  C   UNL     1       0.732   2.686  19.286  0.00  0.00    +0.000 A 
ATOM     34  C   UNL     1       1.254   3.288  18.145  0.00  0.00    +0.000 A 
ATOM     35  C   UNL     1       1.986   4.472  18.254  0.00  0.00    +0.000 A 
ENDBRANCH  29  30
ENDBRANCH  26  29
ENDBRANCH  21  23
ENDBRANCH   3  21
TORSDOF 6
ENDMDL
MODEL 4
REMARK VINA RESULT:      -8.9      0.729      1.670
REMARK  Name = 
REMARK  6 active torsions:
REMARK  status: ('A' for Active; 'I' for Inactive)
REMARK    1  A    between atoms: C_2  and  C_5
REMARK    2  A    between atoms: C_7  and  N_8
REMARK    3  A    between atoms: N_8  and  C_9
REMARK    4  A    between atoms: C_12  and  O_13
REMARK    5  A    between atoms: O_13  and  C_14
REMARK    6  A    between atoms: C_24  and  C_25
REMARK                            x       y       z     vdW  Elec       q    Type
REMARK                         _______ _______ _______ _____ _____    ______ ____
ROOT
ATOM      1  C   UNL     1      -3.031  11.133  17.546  0.00  0.00    +0.000 A 
ATOM      2  C   UNL     1      -1.767  10.845  18.052  0.00  0.00    +0.000 A 
ATOM      3  C   UNL     1      -1.364  11.414  19.268  0.00  0.00    +0.000 A 
ATOM      4  C   UNL     1      -2.269  12.286  19.936  0.00  0.00    +0.000 A 
ATOM      5  C   UNL     1      -1.982  12.932  21.154  0.00  0.00    +0.000 A 
ATOM      6  C   UNL     1      -2.911  13.681  21.888  0.00  0.00    +0.000 A 
ATOM      7  C   UNL     1      -4.174  13.815  21.324  0.00  0.00    +0.000 A 
ATOM      8  C   UNL     1      -4.473  13.225  20.091  0.00  0.00    +0.000 A 
ATOM      9  C   UNL     1      -3.543  12.461  19.389  0.00  0.00    +0.000 A 
ATOM     10  N   UNL     1      -3.919  11.915  18.224  0.00  0.00    +0.000 NA
ENDROOT
BRANCH   6  11
ATOM     11  C   UNL     1      -2.525  14.233  23.201  0.00  0.00    +0.000 A 
ATOM     12  C   UNL     1      -1.276  14.814  23.425  0.00  0.00    +0.000 A 
ATOM     13  C   UNL     1      -0.981  15.304  24.690  0.00  0.00    +0.000 A 
ATOM     14  N   UNL     1      -1.827  15.250  25.740  0.00  0.00    +0.000 NA
ATOM     15  C   UNL     1      -3.026  14.689  25.516  0.00  0.00    +0.000 A 
ATOM     16  C   UNL     1      -3.414  14.185  24.288  0.00  0.00    +0.000 A 
ENDBRANCH   6  11
BRANCH   1  18
ATOM     17  F   UNL     1      -2.781  11.167  15.146  0.00  0.00    +0.000 F 
ATOM     18  C   UNL     1      -3.467  10.607  16.187  0.00  0.00    +0.000 C 
ATOM     19  F   UNL     1      -4.784  10.847  15.924  0.00  0.00    +0.000 F 
ATOM     20  F   UNL     1      -3.296   9.259  16.050  0.00  0.00    +0.000 F 
ENDBRANCH   1  18
BRANCH   3  21
ATOM     21  N   UNL     1      -0.085  11.079  19.771  0.00  0.00    +0.000 N 
ATOM     22  H   UNL     1       0.420  11.860  20.180  0.00  0.00    +0.000 HD
BRANCH  21  23
ATOM     23  C   UNL     1       0.633   9.866  19.797  0.00  0.00    +0.000 A 
ATOM     24  C   UNL     1       1.316   9.430  18.651  0.00  0.00    +0.000 A 
ATOM     25  C   UNL     1       2.065   8.245  18.668  0.00  0.00    +0.000 A 
ATOM     26  C   UNL     1       2.121   7.471  19.830  0.00  0.00    +0.000 A 
ATOM     27  C   UNL     1       1.326   7.819  20.917  0.00  0.00    +0.000 A 
ATOM     28  C   UNL     1       0.618   9.020  20.912  0.00  0.00    +0.000 A 
BRANCH  26  29
ATOM     29  O   UNL     1       2.937   6.364  19.812  0.00  0.00    +0.000 OA
BRANCH  29  30
ATOM     30  C   UNL     1       2.391   5.104  19.654  0.00  0.00    +0.000 A 
ATOM     31  C   UNL     1       2.212   4.370  20.830  0.00  0.00    +0.000 A 
ATOM     32  C   UNL     1       1.635   3.098  20.789  0.00  0.00    +0.000 A 
ATOM     33  C   UNL     1       1.240   2.546  19.570  0.00  0.00    +0.000 A 
ATOM     34  C   UNL     1       1.421   3.267  18.393  0.00  0.00    +0.000 A 
ATOM     35  C   UNL     1       1.967   4.551  18.439  0.00  0.00    +0.000 A 
ENDBRANCH  29  30
ENDBRANCH  26  29
ENDBRANCH  21  23
ENDBRANCH   3  21
TORSDOF 6
ENDMDL
MODEL 5
REMARK VINA RESULT:      -8.9      0.673      1.193
REMARK  Name = 
REMARK  6 active torsions:
REMARK  status: ('A' for Active; 'I' for Inactive)
REMARK    1  A    between atoms: C_2  and  C_5
REMARK    2  A    between atoms: C_7  and  N_8
REMARK    3  A    between atoms: N_8  and  C_9
REMARK    4  A    between atoms: C_12  and  O_13
REMARK    5  A    between atoms: O_13  and  C_14
REMARK    6  A    between atoms: C_24  and  C_25
REMARK                            x       y       z     vdW  Elec       q    Type
REMARK                         _______ _______ _______ _____ _____    ______ ____
ROOT
ATOM      1  C   UNL     1      -3.050  11.061  17.347  0.00  0.00    +0.000 A 
ATOM      2  C   UNL     1      -1.774  10.808  17.840  0.00  0.00    +0.000 A 
ATOM      3  C   UNL     1      -1.384  11.365  19.067  0.00  0.00    +0.000 A 
ATOM      4  C   UNL     1      -2.316  12.189  19.757  0.00  0.00    +0.000 A 
ATOM      5  C   UNL     1      -2.045  12.819  20.988  0.00  0.00    +0.000 A 
ATOM      6  C   UNL     1      -2.996  13.518  21.743  0.00  0.00    +0.000 A 
ATOM      7  C   UNL     1      -4.266  13.619  21.189  0.00  0.00    +0.000 A 
ATOM      8  C   UNL     1      -4.551  13.045  19.944  0.00  0.00    +0.000 A 
ATOM      9  C   UNL     1      -3.599  12.330  19.221  0.00  0.00    +0.000 A 
ATOM     10  N   UNL     1      -3.961  11.796  18.047  0.00  0.00    +0.000 NA
ENDROOT
BRANCH   6  11
ATOM     11  C   UNL     1      -2.622  14.055  23.066  0.00  0.00    +0.000 A 
ATOM     12  C   UNL     1      -3.538  14.156  24.114  0.00  0.00    +0.000 A 
ATOM     13  C   UNL     1      -3.115  14.680  25.327  0.00  0.00    +0.000 A 
ATOM     14  N   UNL     1      -1.860  15.116  25.568  0.00  0.00    +0.000 NA
ATOM     15  C   UNL     1      -0.985  15.015  24.555  0.00  0.00    +0.000 A 
ATOM     16  C   UNL     1      -1.312  14.496  23.315  0.00  0.00    +0.000 A 
ENDBRANCH   6  11
BRANCH   1  18
ATOM     17  F   UNL     1      -2.875  11.210  14.945  0.00  0.00    +0.000 F 
ATOM     18  C   UNL     1      -3.475  10.549  15.979  0.00  0.00    +0.000 C 
ATOM     19  F   UNL     1      -4.815  10.674  15.760  0.00  0.00    +0.000 F 
ATOM     20  F   UNL     1      -3.184   9.229  15.783  0.00  0.00    +0.000 F 
ENDBRANCH   1  18
BRANCH   3  21
ATOM     21  N   UNL     1      -0.091  11.065  19.556  0.00  0.00    +0.000 N 
ATOM     22  H   UNL     1       0.423  11.873  19.896  0.00  0.00    +0.000 HD
BRANCH  21  23
ATOM     23  C   UNL     1       0.631   9.858  19.643  0.00  0.00    +0.000 A 
ATOM     24  C   UNL     1       1.295   9.353  18.515  0.00  0.00    +0.000 A 
ATOM     25  C   UNL     1       2.048   8.173  18.592  0.00  0.00    +0.000 A 
ATOM     26  C   UNL     1       2.126   7.472  19.798  0.00  0.00    +0.000 A 
ATOM     27  C   UNL     1       1.348   7.884  20.875  0.00  0.00    +0.000 A 
ATOM     28  C   UNL     1       0.637   9.082  20.808  0.00  0.00    +0.000 A 
BRANCH  26  29
ATOM     29  O   UNL     1       2.944   6.367  19.833  0.00  0.00    +0.000 OA
BRANCH  29  30
ATOM     30  C   UNL     1       2.444   5.123  19.494  0.00  0.00    +0.000 A 
ATOM     31  C   UNL     1       2.904   4.595  18.285  0.00  0.00    +0.000 A 
ATOM     32  C   UNL     1       2.490   3.328  17.863  0.00  0.00    +0.000 A 
ATOM     33  C   UNL     1       1.606   2.584  18.644  0.00  0.00    +0.000 A 
ATOM     34  C   UNL     1       1.138   3.105  19.846  0.00  0.00    +0.000 A 
ATOM     35  C   UNL     1       1.578   4.356  20.283  0.00  0.00    +0.000 A 
ENDBRANCH  29  30
ENDBRANCH  26  29
ENDBRANCH  21  23
ENDBRANCH   3  21
TORSDOF 6
ENDMDL
MODEL 6
REMARK VINA RESULT:      -8.8      0.760      1.380
REMARK  Name = 
REMARK  6 active torsions:
REMARK  status: ('A' for Active; 'I' for Inactive)
REMARK    1  A    between atoms: C_2  and  C_5
REMARK    2  A    between atoms: C_7  and  N_8
REMARK    3  A    between atoms: N_8  and  C_9
REMARK    4  A    between atoms: C_12  and  O_13
REMARK    5  A    between atoms: O_13  and  C_14
REMARK    6  A    between atoms: C_24  and  C_25
REMARK                            x       y       z     vdW  Elec       q    Type
REMARK                         _______ _______ _______ _____ _____    ______ ____
ROOT
ATOM      1  C   UNL     1      -2.965  10.503  16.471  0.00  0.00    +0.000 A 
ATOM      2  C   UNL     1      -1.693  10.423  17.030  0.00  0.00    +0.000 A 
ATOM      3  C   UNL     1      -1.453  10.999  18.286  0.00  0.00    +0.000 A 
ATOM      4  C   UNL     1      -2.530  11.662  18.937  0.00  0.00    +0.000 A 
ATOM      5  C   UNL     1      -2.418  12.292  20.192  0.00  0.00    +0.000 A 
ATOM      6  C   UNL     1      -3.499  12.828  20.906  0.00  0.00    +0.000 A 
ATOM      7  C   UNL     1      -4.739  12.759  20.283  0.00  0.00    +0.000 A 
ATOM      8  C   UNL     1      -4.872  12.182  19.015  0.00  0.00    +0.000 A 
ATOM      9  C   UNL     1      -3.790  11.631  18.333  0.00  0.00    +0.000 A 
ATOM     10  N   UNL     1      -4.008  11.080  17.131  0.00  0.00    +0.000 NA
ENDROOT
BRANCH   6  11
ATOM     11  C   UNL     1      -3.277  13.379  22.256  0.00  0.00    +0.000 A 
ATOM     12  C   UNL     1      -2.254  14.288  22.529  0.00  0.00    +0.000 A 
ATOM     13  C   UNL     1      -2.101  14.757  23.827  0.00  0.00    +0.000 A 
ATOM     14  N   UNL     1      -2.880  14.383  24.865  0.00  0.00    +0.000 NA
ATOM     15  C   UNL     1      -3.861  13.508  24.593  0.00  0.00    +0.000 A 
ATOM     16  C   UNL     1      -4.098  12.996  23.330  0.00  0.00    +0.000 A 
ENDBRANCH   6  11
BRANCH   1  18
ATOM     17  F   UNL     1      -2.367   8.988  14.689  0.00  0.00    +0.000 F 
ATOM     18  C   UNL     1      -3.238   9.969  15.072  0.00  0.00    +0.000 C 
ATOM     19  F   UNL     1      -3.143  10.932  14.111  0.00  0.00    +0.000 F 
ATOM     20  F   UNL     1      -4.481   9.423  14.936  0.00  0.00    +0.000 F 
ENDBRANCH   1  18
BRANCH   3  21
ATOM     21  N   UNL     1      -0.157  10.876  18.840  0.00  0.00    +0.000 N 
ATOM     22  H   UNL     1       0.260  11.758  19.122  0.00  0.00    +0.000 HD
BRANCH  21  23
ATOM     23  C   UNL     1       0.675   9.760  19.061  0.00  0.00    +0.000 A 
ATOM     24  C   UNL     1       0.776   9.202  20.345  0.00  0.00    +0.000 A 
ATOM     25  C   UNL     1       1.571   8.070  20.575  0.00  0.00    +0.000 A 
ATOM     26  C   UNL     1       2.292   7.497  19.525  0.00  0.00    +0.000 A 
ATOM     27  C   UNL     1       2.316   8.135  18.290  0.00  0.00    +0.000 A 
ATOM     28  C   UNL     1       1.489   9.233  18.052  0.00  0.00    +0.000 A 
BRANCH  26  29
ATOM     29  O   UNL     1       2.988   6.342  19.795  0.00  0.00    +0.000 OA
BRANCH  29  30
ATOM     30  C   UNL     1       2.877   5.253  18.950  0.00  0.00    +0.000 A 
ATOM     31  C   UNL     1       1.703   4.506  19.077  0.00  0.00    +0.000 A 
ATOM     32  C   UNL     1       1.472   3.405  18.246  0.00  0.00    +0.000 A 
ATOM     33  C   UNL     1       2.418   3.038  17.289  0.00  0.00    +0.000 A 
ATOM     34  C   UNL     1       3.593   3.773  17.161  0.00  0.00    +0.000 A 
ATOM     35  C   UNL     1       3.808   4.892  17.967  0.00  0.00    +0.000 A 
ENDBRANCH  29  30
ENDBRANCH  26  29
ENDBRANCH  21  23
ENDBRANCH   3  21
TORSDOF 6
ENDMDL
MODEL 7
REMARK VINA RESULT:      -8.8      0.698      1.328
REMARK  Name = 
REMARK  6 active torsions:
REMARK  status: ('A' for Active; 'I' for Inactive)
REMARK    1  A    between atoms: C_2  and  C_5
REMARK    2  A    between atoms: C_7  and  N_8
REMARK    3  A    between atoms: N_8  and  C_9
REMARK    4  A    between atoms: C_12  and  O_13
REMARK    5  A    between atoms: O_13  and  C_14
REMARK    6  A    between atoms: C_24  and  C_25
REMARK                            x       y       z     vdW  Elec       q    Type
REMARK                         _______ _______ _______ _____ _____    ______ ____
ROOT
ATOM      1  C   UNL     1      -2.943  10.799  17.102  0.00  0.00    +0.000 A 
ATOM      2  C   UNL     1      -1.662  10.612  17.613  0.00  0.00    +0.000 A 
ATOM      3  C   UNL     1      -1.316  11.196  18.840  0.00  0.00    +0.000 A 
ATOM      4  C   UNL     1      -2.296  11.978  19.512  0.00  0.00    +0.000 A 
ATOM      5  C   UNL     1      -2.071  12.629  20.741  0.00  0.00    +0.000 A 
ATOM      6  C   UNL     1      -3.066  13.286  21.479  0.00  0.00    +0.000 A 
ATOM      7  C   UNL     1      -4.331  13.321  20.908  0.00  0.00    +0.000 A 
ATOM      8  C   UNL     1      -4.572  12.725  19.664  0.00  0.00    +0.000 A 
ATOM      9  C   UNL     1      -3.577  12.053  18.958  0.00  0.00    +0.000 A 
ATOM     10  N   UNL     1      -3.898  11.493  17.784  0.00  0.00    +0.000 NA
ENDROOT
BRANCH   6  11
ATOM     11  C   UNL     1      -2.735  13.851  22.802  0.00  0.00    +0.000 A 
ATOM     12  C   UNL     1      -3.665  13.902  23.841  0.00  0.00    +0.000 A 
ATOM     13  C   UNL     1      -3.283  14.456  25.056  0.00  0.00    +0.000 A 
ATOM     14  N   UNL     1      -2.058  14.965  25.305  0.00  0.00    +0.000 NA
ATOM     15  C   UNL     1      -1.171  14.913  24.300  0.00  0.00    +0.000 A 
ATOM     16  C   UNL     1      -1.455  14.369  23.060  0.00  0.00    +0.000 A 
ENDBRANCH   6  11
BRANCH   1  18
ATOM     17  F   UNL     1      -4.607  10.557  15.371  0.00  0.00    +0.000 F 
ATOM     18  C   UNL     1      -3.324  10.256  15.732  0.00  0.00    +0.000 C 
ATOM     19  F   UNL     1      -3.237   8.897  15.659  0.00  0.00    +0.000 F 
ATOM     20  F   UNL     1      -2.541  10.739  14.724  0.00  0.00    +0.000 F 
ENDBRANCH   1  18
BRANCH   3  21
ATOM     21  N   UNL     1      -0.016  10.963  19.347  0.00  0.00    +0.000 N 
ATOM     22  H   UNL     1       0.478  11.805  19.629  0.00  0.00    +0.000 HD
BRANCH  21  23
ATOM     23  C   UNL     1       0.735   9.783  19.520  0.00  0.00    +0.000 A 
ATOM     24  C   UNL     1       0.774   9.153  20.774  0.00  0.00    +0.000 A 
ATOM     25  C   UNL     1       1.485   7.959  20.956  0.00  0.00    +0.000 A 
ATOM     26  C   UNL     1       2.185   7.393  19.887  0.00  0.00    +0.000 A 
ATOM     27  C   UNL     1       2.275   8.091  18.688  0.00  0.00    +0.000 A 
ATOM     28  C   UNL     1       1.530   9.255  18.496  0.00  0.00    +0.000 A 
BRANCH  26  29
ATOM     29  O   UNL     1       2.796   6.180  20.105  0.00  0.00    +0.000 OA
BRANCH  29  30
ATOM     30  C   UNL     1       2.760   5.201  19.129  0.00  0.00    +0.000 A 
ATOM     31  C   UNL     1       1.603   4.419  19.098  0.00  0.00    +0.000 A 
ATOM     32  C   UNL     1       1.447   3.424  18.129  0.00  0.00    +0.000 A 
ATOM     33  C   UNL     1       2.452   3.198  17.188  0.00  0.00    +0.000 A 
ATOM     34  C   UNL     1       3.611   3.968  17.216  0.00  0.00    +0.000 A 
ATOM     35  C   UNL     1       3.751   4.984  18.164  0.00  0.00    +0.000 A 
ENDBRANCH  29  30
ENDBRANCH  26  29
ENDBRANCH  21  23
ENDBRANCH   3  21
TORSDOF 6
ENDMDL
MODEL 8
REMARK VINA RESULT:      -8.7      3.556      4.518
REMARK  Name = 
REMARK  6 active torsions:
REMARK  status: ('A' for Active; 'I' for Inactive)
REMARK    1  A    between atoms: C_2  and  C_5
REMARK    2  A    between atoms: C_7  and  N_8
REMARK    3  A    between atoms: N_8  and  C_9
REMARK    4  A    between atoms: C_12  and  O_13
REMARK    5  A    between atoms: O_13  and  C_14
REMARK    6  A    between atoms: C_24  and  C_25
REMARK                            x       y       z     vdW  Elec       q    Type
REMARK                         _______ _______ _______ _____ _____    ______ ____
ROOT
ATOM      1  C   UNL     1       2.561  14.132  18.529  0.00  0.00    +0.000 A 
ATOM      2  C   UNL     1       2.198  12.816  18.255  0.00  0.00    +0.000 A 
ATOM      3  C   UNL     1       0.953  12.338  18.688  0.00  0.00    +0.000 A 
ATOM      4  C   UNL     1       0.107  13.225  19.410  0.00  0.00    +0.000 A 
ATOM      5  C   UNL     1      -1.160  12.867  19.912  0.00  0.00    +0.000 A 
ATOM      6  C   UNL     1      -2.058  13.766  20.503  0.00  0.00    +0.000 A 
ATOM      7  C   UNL     1      -1.618  15.077  20.631  0.00  0.00    +0.000 A 
ATOM      8  C   UNL     1      -0.345  15.452  20.187  0.00  0.00    +0.000 A 
ATOM      9  C   UNL     1       0.524  14.549  19.577  0.00  0.00    +0.000 A 
ATOM     10  N   UNL     1       1.717  14.996  19.162  0.00  0.00    +0.000 NA
ENDROOT
BRANCH   6  11
ATOM     11  C   UNL     1      -3.397  13.296  20.905  0.00  0.00    +0.000 A 
ATOM     12  C   UNL     1      -4.310  12.777  19.986  0.00  0.00    +0.000 A 
ATOM     13  C   UNL     1      -5.556  12.362  20.438  0.00  0.00    +0.000 A 
ATOM     14  N   UNL     1      -5.958  12.435  21.725  0.00  0.00    +0.000 NA
ATOM     15  C   UNL     1      -5.074  12.936  22.602  0.00  0.00    +0.000 A 
ATOM     16  C   UNL     1      -3.806  13.362  22.248  0.00  0.00    +0.000 A 
ENDBRANCH   6  11
BRANCH   1  18
ATOM     17  F   UNL     1       4.785  13.680  17.709  0.00  0.00    +0.000 F 
ATOM     18  C   UNL     1       3.939  14.656  18.154  0.00  0.00    +0.000 C 
ATOM     19  F   UNL     1       4.584  15.244  19.203  0.00  0.00    +0.000 F 
ATOM     20  F   UNL     1       3.909  15.591  17.160  0.00  0.00    +0.000 F 
ENDBRANCH   1  18
BRANCH   3  21
ATOM     21  N   UNL     1       0.601  11.006  18.369  0.00  0.00    +0.000 N 
ATOM     22  H   UNL     1      -0.229  10.922  17.790  0.00  0.00    +0.000 HD
BRANCH  21  23
ATOM     23  C   UNL     1       1.175   9.766  18.718  0.00  0.00    +0.000 A 
ATOM     24  C   UNL     1       1.739   8.949  17.725  0.00  0.00    +0.000 A 
ATOM     25  C   UNL     1       2.347   7.731  18.058  0.00  0.00    +0.000 A 
ATOM     26  C   UNL     1       2.377   7.305  19.388  0.00  0.00    +0.000 A 
ATOM     27  C   UNL     1       1.687   8.035  20.350  0.00  0.00    +0.000 A 
ATOM     28  C   UNL     1       1.124   9.269  20.025  0.00  0.00    +0.000 A 
BRANCH  26  29
ATOM     29  O   UNL     1       3.058   6.142  19.663  0.00  0.00    +0.000 OA
BRANCH  29  30
ATOM     30  C   UNL     1       2.435   4.919  19.496  0.00  0.00    +0.000 A 
ATOM     31  C   UNL     1       2.961   4.103  18.491  0.00  0.00    +0.000 A 
ATOM     32  C   UNL     1       2.430   2.831  18.261  0.00  0.00    +0.000 A 
ATOM     33  C   UNL     1       1.362   2.368  19.030  0.00  0.00    +0.000 A 
ATOM     34  C   UNL     1       0.827   3.177  20.029  0.00  0.00    +0.000 A 
ATOM     35  C   UNL     1       1.380   4.434  20.279  0.00  0.00    +0.000 A 
ENDBRANCH  29  30
ENDBRANCH  26  29
ENDBRANCH  21  23
ENDBRANCH   3  21
TORSDOF 6
ENDMDL
MODEL 9
REMARK VINA RESULT:      -8.7      3.727      4.710
REMARK  Name = 
REMARK  6 active torsions:
REMARK  status: ('A' for Active; 'I' for Inactive)
REMARK    1  A    between atoms: C_2  and  C_5
REMARK    2  A    between atoms: C_7  and  N_8
REMARK    3  A    between atoms: N_8  and  C_9
REMARK    4  A    between atoms: C_12  and  O_13
REMARK    5  A    between atoms: O_13  and  C_14
REMARK    6  A    between atoms: C_24  and  C_25
REMARK                            x       y       z     vdW  Elec       q    Type
REMARK                         _______ _______ _______ _____ _____    ______ ____
ROOT
ATOM      1  C   UNL     1      -1.797  10.896  17.973  0.00  0.00    +0.000 A 
ATOM      2  C   UNL     1      -0.935  10.015  18.620  0.00  0.00    +0.000 A 
ATOM      3  C   UNL     1       0.266  10.495  19.160  0.00  0.00    +0.000 A 
ATOM      4  C   UNL     1       0.564  11.878  19.011  0.00  0.00    +0.000 A 
ATOM      5  C   UNL     1       1.741  12.483  19.494  0.00  0.00    +0.000 A 
ATOM      6  C   UNL     1       1.984  13.864  19.474  0.00  0.00    +0.000 A 
ATOM      7  C   UNL     1       1.001  14.651  18.888  0.00  0.00    +0.000 A 
ATOM      8  C   UNL     1      -0.157  14.073  18.356  0.00  0.00    +0.000 A 
ATOM      9  C   UNL     1      -0.393  12.701  18.409  0.00  0.00    +0.000 A 
ATOM     10  N   UNL     1      -1.536  12.232  17.893  0.00  0.00    +0.000 NA
ENDROOT
BRANCH   6  11
ATOM     11  C   UNL     1       3.213  14.394  20.096  0.00  0.00    +0.000 A 
ATOM     12  C   UNL     1       4.065  15.273  19.427  0.00  0.00    +0.000 A 
ATOM     13  C   UNL     1       5.208  15.723  20.074  0.00  0.00    +0.000 A 
ATOM     14  N   UNL     1       5.565  15.358  21.324  0.00  0.00    +0.000 NA
ATOM     15  C   UNL     1       4.739  14.512  21.961  0.00  0.00    +0.000 A 
ATOM     16  C   UNL     1       3.573  14.020  21.402  0.00  0.00    +0.000 A 
ENDBRANCH   6  11
BRANCH   1  18
ATOM     17  F   UNL     1      -2.889  10.097  15.975  0.00  0.00    +0.000 F 
ATOM     18  C   UNL     1      -3.064  10.394  17.297  0.00  0.00    +0.000 C 
ATOM     19  F   UNL     1      -4.079  11.305  17.331  0.00  0.00    +0.000 F 
ATOM     20  F   UNL     1      -3.562   9.254  17.861  0.00  0.00    +0.000 F 
ENDBRANCH   1  18
BRANCH   3  21
ATOM     21  N   UNL     1       1.107   9.581  19.837  0.00  0.00    +0.000 N 
ATOM     22  H   UNL     1       1.297   9.828  20.804  0.00  0.00    +0.000 HD
BRANCH  21  23
ATOM     23  C   UNL     1       1.749   8.398  19.419  0.00  0.00    +0.000 A 
ATOM     24  C   UNL     1       1.842   7.303  20.291  0.00  0.00    +0.000 A 
ATOM     25  C   UNL     1       2.444   6.105  19.880  0.00  0.00    +0.000 A 
ATOM     26  C   UNL     1       2.982   5.999  18.596  0.00  0.00    +0.000 A 
ATOM     27  C   UNL     1       3.029   7.128  17.784  0.00  0.00    +0.000 A 
ATOM     28  C   UNL     1       2.389   8.302  18.178  0.00  0.00    +0.000 A 
BRANCH  26  29
ATOM     29  O   UNL     1       3.486   4.775  18.222  0.00  0.00    +0.000 OA
BRANCH  29  30
ATOM     30  C   UNL     1       4.723   4.694  17.608  0.00  0.00    +0.000 A 
ATOM     31  C   UNL     1       5.826   4.907  18.438  0.00  0.00    +0.000 A 
ATOM     32  C   UNL     1       7.124   4.813  17.928  0.00  0.00    +0.000 A 
ATOM     33  C   UNL     1       7.327   4.512  16.581  0.00  0.00    +0.000 A 
ATOM     34  C   UNL     1       6.234   4.304  15.746  0.00  0.00    +0.000 A 
ATOM     35  C   UNL     1       4.939   4.366  16.264  0.00  0.00    +0.000 A 
ENDBRANCH  29  30
ENDBRANCH  26  29
ENDBRANCH  21  23
ENDBRANCH   3  21
TORSDOF 6
ENDMDL
