MODEL 1
REMARK VINA RESULT:      -8.6      0.000      0.000
REMARK  Name = 
REMARK  7 active torsions:
REMARK  status: ('A' for Active; 'I' for Inactive)
REMARK    1  A    between atoms: C_1  and  C_2
REMARK    2  A    between atoms: C_5  and  O_6
REMARK    3  A    between atoms: O_6  and  C_7
REMARK    4  A    between atoms: C_7  and  C_8
REMARK    5  A    between atoms: C_7  and  C_20
REMARK    6  A    between atoms: C_8  and  C_9
REMARK    7  A    between atoms: C_9  and  N_10
REMARK                            x       y       z     vdW  Elec       q    Type
REMARK                         _______ _______ _______ _____ _____    ______ ____
ROOT
ATOM      1  C   UNL     1       2.728   6.306  18.189  0.00  0.00    +0.000 C 
ENDROOT
BRANCH   1   2
ATOM      2  C   UNL     1       2.087   5.151  18.973  0.00  0.00    +0.000 A 
ATOM      3  C   UNL     1       1.472   4.055  18.345  0.00  0.00    +0.000 A 
ATOM      4  C   UNL     1       0.989   2.982  19.107  0.00  0.00    +0.000 A 
ATOM      5  C   UNL     1       1.124   2.985  20.492  0.00  0.00    +0.000 A 
ATOM      6  C   UNL     1       1.727   4.063  21.125  0.00  0.00    +0.000 A 
ATOM      7  C   UNL     1       2.197   5.150  20.379  0.00  0.00    +0.000 A 
ENDBRANCH   1   2
BRANCH   1   8
ATOM      8  O   UNL     1       4.164   6.291  18.149  0.00  0.00    +0.000 OA
BRANCH   8  13
ATOM      9  C   UNL     1       6.067   3.776  13.467  0.00  0.00    +0.000 C 
ATOM     10  C   UNL     1       5.781   4.514  14.743  0.00  0.00    +0.000 A 
ATOM     11  C   UNL     1       5.583   3.805  15.929  0.00  0.00    +0.000 A 
ATOM     12  C   UNL     1       5.108   4.463  17.069  0.00  0.00    +0.000 A 
ATOM     13  C   UNL     1       4.833   5.833  17.050  0.00  0.00    +0.000 A 
ATOM     14  C   UNL     1       5.124   6.561  15.900  0.00  0.00    +0.000 A 
ATOM     15  C   UNL     1       5.581   5.900  14.746  0.00  0.00    +0.000 A 
ENDBRANCH   8  13
ENDBRANCH   1   8
BRANCH   1  16
ATOM     16  C   UNL     1       2.326   7.605  18.934  0.00  0.00    +0.000 C 
BRANCH  16  17
ATOM     17  C   UNL     1       2.083   8.838  18.050  0.00  0.00    +0.000 C 
BRANCH  17  18
ATOM     18  N   UNL     1       0.969   9.689  18.480  0.00  0.00    +0.000 NA
ATOM     19  C   UNL     1       1.460  10.974  18.987  0.00  0.00    +0.000 C 
ATOM     20  C   UNL     1       0.256  11.880  19.337  0.00  0.00    +0.000 C 
ATOM     21  C   UNL     1      -0.415  11.254  20.538  0.00  0.00    +0.000 A 
ATOM     22  C   UNL     1      -0.924  12.036  21.575  0.00  0.00    +0.000 A 
ATOM     23  C   UNL     1      -1.019  11.480  22.844  0.00  0.00    +0.000 A 
ATOM     24  C   UNL     1      -0.631  10.155  23.056  0.00  0.00    +0.000 A 
ATOM     25  C   UNL     1      -0.299   9.332  21.974  0.00  0.00    +0.000 A 
ATOM     26  C   UNL     1      -0.248   9.867  20.688  0.00  0.00    +0.000 A 
ATOM     27  C   UNL     1       0.061   9.038  19.452  0.00  0.00    +0.000 C 
ENDBRANCH  17  18
ENDBRANCH  16  17
ENDBRANCH   1  16
TORSDOF 6
ENDMDL
MODEL 2
REMARK VINA RESULT:      -8.6      1.125      2.151
REMARK  Name = 
REMARK  7 active torsions:
REMARK  status: ('A' for Active; 'I' for Inactive)
REMARK    1  A    between atoms: C_1  and  C_2
REMARK    2  A    between atoms: C_5  and  O_6
REMARK    3  A    between atoms: O_6  and  C_7
REMARK    4  A    between atoms: C_7  and  C_8
REMARK    5  A    between atoms: C_7  and  C_20
REMARK    6  A    between atoms: C_8  and  C_9
REMARK    7  A    between atoms: C_9  and  N_10
REMARK                            x       y       z     vdW  Elec       q    Type
REMARK                         _______ _______ _______ _____ _____    ______ ____
ROOT
ATOM      1  C   UNL     1       2.609   6.451  19.021  0.00  0.00    +0.000 C 
ENDROOT
BRANCH   1   2
ATOM      2  C   UNL     1       2.041   5.047  19.274  0.00  0.00    +0.000 A 
ATOM      3  C   UNL     1       1.686   4.589  20.554  0.00  0.00    +0.000 A 
ATOM      4  C   UNL     1       1.081   3.335  20.715  0.00  0.00    +0.000 A 
ATOM      5  C   UNL     1       0.816   2.534  19.609  0.00  0.00    +0.000 A 
ATOM      6  C   UNL     1       1.164   2.973  18.339  0.00  0.00    +0.000 A 
ATOM      7  C   UNL     1       1.784   4.215  18.164  0.00  0.00    +0.000 A 
ENDBRANCH   1   2
BRANCH   1   8
ATOM      8  O   UNL     1       4.042   6.531  18.984  0.00  0.00    +0.000 OA
BRANCH   8  13
ATOM      9  C   UNL     1       6.344   4.063  14.458  0.00  0.00    +0.000 C 
ATOM     10  C   UNL     1       5.913   4.865  15.651  0.00  0.00    +0.000 A 
ATOM     11  C   UNL     1       6.089   4.352  16.938  0.00  0.00    +0.000 A 
ATOM     12  C   UNL     1       5.502   4.991  18.034  0.00  0.00    +0.000 A 
ATOM     13  C   UNL     1       4.740   6.152  17.871  0.00  0.00    +0.000 A 
ATOM     14  C   UNL     1       4.645   6.721  16.605  0.00  0.00    +0.000 A 
ATOM     15  C   UNL     1       5.216   6.071  15.497  0.00  0.00    +0.000 A 
ENDBRANCH   8  13
ENDBRANCH   1   8
BRANCH   1  16
ATOM     16  C   UNL     1       2.156   7.320  20.223  0.00  0.00    +0.000 C 
BRANCH  16  17
ATOM     17  C   UNL     1       1.409   8.616  19.871  0.00  0.00    +0.000 C 
BRANCH  17  18
ATOM     18  N   UNL     1       1.045   9.445  21.024  0.00  0.00    +0.000 NA
ATOM     19  C   UNL     1      -0.068   8.844  21.767  0.00  0.00    +0.000 C 
ATOM     20  C   UNL     1      -0.357   9.692  23.029  0.00  0.00    +0.000 C 
ATOM     21  C   UNL     1      -0.922  11.006  22.540  0.00  0.00    +0.000 A 
ATOM     22  C   UNL     1      -1.969  11.640  23.209  0.00  0.00    +0.000 A 
ATOM     23  C   UNL     1      -2.802  12.489  22.490  0.00  0.00    +0.000 A 
ATOM     24  C   UNL     1      -2.567  12.711  21.132  0.00  0.00    +0.000 A 
ATOM     25  C   UNL     1      -1.409  12.215  20.522  0.00  0.00    +0.000 A 
ATOM     26  C   UNL     1      -0.539  11.402  21.247  0.00  0.00    +0.000 A 
ATOM     27  C   UNL     1       0.761  10.857  20.679  0.00  0.00    +0.000 C 
ENDBRANCH  17  18
ENDBRANCH  16  17
ENDBRANCH   1  16
TORSDOF 6
ENDMDL
MODEL 3
REMARK VINA RESULT:      -8.3      1.321      2.506
REMARK  Name = 
REMARK  7 active torsions:
REMARK  status: ('A' for Active; 'I' for Inactive)
REMARK    1  A    between atoms: C_1  and  C_2
REMARK    2  A    between atoms: C_5  and  O_6
REMARK    3  A    between atoms: O_6  and  C_7
REMARK    4  A    between atoms: C_7  and  C_8
REMARK    5  A    between atoms: C_7  and  C_20
REMARK    6  A    between atoms: C_8  and  C_9
REMARK    7  A    between atoms: C_9  and  N_10
REMARK                            x       y       z     vdW  Elec       q    Type
REMARK                         _______ _______ _______ _____ _____    ______ ____
ROOT
ATOM      1  C   UNL     1       2.231   6.390  19.392  0.00  0.00    +0.000 C 
ENDROOT
BRANCH   1   2
ATOM      2  C   UNL     1       1.986   4.953  19.876  0.00  0.00    +0.000 A 
ATOM      3  C   UNL     1       2.228   4.544  21.198  0.00  0.00    +0.000 A 
ATOM      4  C   UNL     1       1.894   3.246  21.609  0.00  0.00    +0.000 A 
ATOM      5  C   UNL     1       1.309   2.353  20.718  0.00  0.00    +0.000 A 
ATOM      6  C   UNL     1       1.066   2.744  19.408  0.00  0.00    +0.000 A 
ATOM      7  C   UNL     1       1.411   4.030  18.977  0.00  0.00    +0.000 A 
ENDBRANCH   1   2
BRANCH   1   8
ATOM      8  O   UNL     1       3.606   6.723  19.144  0.00  0.00    +0.000 OA
BRANCH   8  13
ATOM      9  C   UNL     1       7.138   4.881  15.143  0.00  0.00    +0.000 C 
ATOM     10  C   UNL     1       6.074   5.181  16.158  0.00  0.00    +0.000 A 
ATOM     11  C   UNL     1       5.122   6.170  15.901  0.00  0.00    +0.000 A 
ATOM     12  C   UNL     1       4.265   6.601  16.918  0.00  0.00    +0.000 A 
ATOM     13  C   UNL     1       4.334   6.052  18.202  0.00  0.00    +0.000 A 
ATOM     14  C   UNL     1       5.213   4.998  18.436  0.00  0.00    +0.000 A 
ATOM     15  C   UNL     1       6.090   4.576  17.422  0.00  0.00    +0.000 A 
ENDBRANCH   8  13
ENDBRANCH   1   8
BRANCH   1  16
ATOM     16  C   UNL     1       1.760   7.317  20.543  0.00  0.00    +0.000 C 
BRANCH  16  17
ATOM     17  C   UNL     1       1.448   8.769  20.151  0.00  0.00    +0.000 C 
BRANCH  17  18
ATOM     18  N   UNL     1       1.010   9.621  21.261  0.00  0.00    +0.000 NA
ATOM     19  C   UNL     1      -0.092   8.994  21.997  0.00  0.00    +0.000 C 
ATOM     20  C   UNL     1      -0.459   9.873  23.216  0.00  0.00    +0.000 C 
ATOM     21  C   UNL     1      -1.074  11.137  22.660  0.00  0.00    +0.000 A 
ATOM     22  C   UNL     1      -2.171  11.742  23.276  0.00  0.00    +0.000 A 
ATOM     23  C   UNL     1      -3.024  12.520  22.502  0.00  0.00    +0.000 A 
ATOM     24  C   UNL     1      -2.761  12.701  21.142  0.00  0.00    +0.000 A 
ATOM     25  C   UNL     1      -1.563  12.243  20.584  0.00  0.00    +0.000 A 
ATOM     26  C   UNL     1      -0.675  11.503  21.363  0.00  0.00    +0.000 A 
ATOM     27  C   UNL     1       0.666  11.004  20.852  0.00  0.00    +0.000 C 
ENDBRANCH  17  18
ENDBRANCH  16  17
ENDBRANCH   1  16
TORSDOF 6
ENDMDL
MODEL 4
REMARK VINA RESULT:      -8.1      0.783      1.310
REMARK  Name = 
REMARK  7 active torsions:
REMARK  status: ('A' for Active; 'I' for Inactive)
REMARK    1  A    between atoms: C_1  and  C_2
REMARK    2  A    between atoms: C_5  and  O_6
REMARK    3  A    between atoms: O_6  and  C_7
REMARK    4  A    between atoms: C_7  and  C_8
REMARK    5  A    between atoms: C_7  and  C_20
REMARK    6  A    between atoms: C_8  and  C_9
REMARK    7  A    between atoms: C_9  and  N_10
REMARK                            x       y       z     vdW  Elec       q    Type
REMARK                         _______ _______ _______ _____ _____    ______ ____
ROOT
ATOM      1  C   UNL     1       2.552   6.578  18.500  0.00  0.00    +0.000 C 
ENDROOT
BRANCH   1   2
ATOM      2  C   UNL     1       2.003   5.236  19.007  0.00  0.00    +0.000 A 
ATOM      3  C   UNL     1       1.788   4.968  20.369  0.00  0.00    +0.000 A 
ATOM      4  C   UNL     1       1.193   3.763  20.767  0.00  0.00    +0.000 A 
ATOM      5  C   UNL     1       0.800   2.824  19.819  0.00  0.00    +0.000 A 
ATOM      6  C   UNL     1       1.010   3.075  18.471  0.00  0.00    +0.000 A 
ATOM      7  C   UNL     1       1.619   4.266  18.057  0.00  0.00    +0.000 A 
ENDBRANCH   1   2
BRANCH   1   8
ATOM      8  O   UNL     1       3.984   6.683  18.481  0.00  0.00    +0.000 OA
BRANCH   8  13
ATOM      9  C   UNL     1       6.254   3.878  14.139  0.00  0.00    +0.000 C 
ATOM     10  C   UNL     1       5.855   4.735  15.305  0.00  0.00    +0.000 A 
ATOM     11  C   UNL     1       5.804   4.187  16.588  0.00  0.00    +0.000 A 
ATOM     12  C   UNL     1       5.233   4.912  17.639  0.00  0.00    +0.000 A 
ATOM     13  C   UNL     1       4.712   6.193  17.433  0.00  0.00    +0.000 A 
ATOM     14  C   UNL     1       4.850   6.781  16.179  0.00  0.00    +0.000 A 
ATOM     15  C   UNL     1       5.405   6.048  15.116  0.00  0.00    +0.000 A 
ENDBRANCH   8  13
ENDBRANCH   1   8
BRANCH   1  16
ATOM     16  C   UNL     1       2.050   7.652  19.501  0.00  0.00    +0.000 C 
BRANCH  16  17
ATOM     17  C   UNL     1       1.942   9.083  18.952  0.00  0.00    +0.000 C 
BRANCH  17  18
ATOM     18  N   UNL     1       0.604   9.675  19.048  0.00  0.00    +0.000 NA
ATOM     19  C   UNL     1       0.644  11.108  18.740  0.00  0.00    +0.000 C 
ATOM     20  C   UNL     1      -0.796  11.675  18.753  0.00  0.00    +0.000 C 
ATOM     21  C   UNL     1      -1.258  11.631  20.191  0.00  0.00    +0.000 A 
ATOM     22  C   UNL     1      -2.016  12.664  20.741  0.00  0.00    +0.000 A 
ATOM     23  C   UNL     1      -1.958  12.875  22.113  0.00  0.00    +0.000 A 
ATOM     24  C   UNL     1      -1.171  12.045  22.914  0.00  0.00    +0.000 A 
ATOM     25  C   UNL     1      -0.566  10.905  22.374  0.00  0.00    +0.000 A 
ATOM     26  C   UNL     1      -0.659  10.655  21.005  0.00  0.00    +0.000 A 
ATOM     27  C   UNL     1      -0.071   9.420  20.342  0.00  0.00    +0.000 C 
ENDBRANCH  17  18
ENDBRANCH  16  17
ENDBRANCH   1  16
TORSDOF 6
ENDMDL
MODEL 5
REMARK VINA RESULT:      -8.1      1.351      2.223
REMARK  Name = 
REMARK  7 active torsions:
REMARK  status: ('A' for Active; 'I' for Inactive)
REMARK    1  A    between atoms: C_1  and  C_2
REMARK    2  A    between atoms: C_5  and  O_6
REMARK    3  A    between atoms: O_6  and  C_7
REMARK    4  A    between atoms: C_7  and  C_8
REMARK    5  A    between atoms: C_7  and  C_20
REMARK    6  A    between atoms: C_8  and  C_9
REMARK    7  A    between atoms: C_9  and  N_10
REMARK                            x       y       z     vdW  Elec       q    Type
REMARK                         _______ _______ _______ _____ _____    ______ ____
ROOT
ATOM      1  C   UNL     1       2.697   5.254  18.079  0.00  0.00    +0.000 C 
ENDROOT
BRANCH   1   2
ATOM      2  C   UNL     1       2.397   4.235  19.188  0.00  0.00    +0.000 A 
ATOM      3  C   UNL     1       3.401   3.660  19.984  0.00  0.00    +0.000 A 
ATOM      4  C   UNL     1       3.062   2.811  21.046  0.00  0.00    +0.000 A 
ATOM      5  C   UNL     1       1.728   2.536  21.331  0.00  0.00    +0.000 A 
ATOM      6  C   UNL     1       0.727   3.095  20.550  0.00  0.00    +0.000 A 
ATOM      7  C   UNL     1       1.049   3.931  19.475  0.00  0.00    +0.000 A 
ENDBRANCH   1   2
BRANCH   1   8
ATOM      8  O   UNL     1       4.068   5.674  17.991  0.00  0.00    +0.000 OA
BRANCH   8  13
ATOM      9  C   UNL     1       6.382   3.800  13.195  0.00  0.00    +0.000 C 
ATOM     10  C   UNL     1       5.981   4.370  14.524  0.00  0.00    +0.000 A 
ATOM     11  C   UNL     1       5.733   3.519  15.603  0.00  0.00    +0.000 A 
ATOM     12  C   UNL     1       5.157   4.020  16.775  0.00  0.00    +0.000 A 
ATOM     13  C   UNL     1       4.828   5.373  16.896  0.00  0.00    +0.000 A 
ATOM     14  C   UNL     1       5.164   6.242  15.862  0.00  0.00    +0.000 A 
ATOM     15  C   UNL     1       5.724   5.739  14.675  0.00  0.00    +0.000 A 
ENDBRANCH   8  13
ENDBRANCH   1   8
BRANCH   1  16
ATOM     16  C   UNL     1       1.875   6.522  18.428  0.00  0.00    +0.000 C 
BRANCH  16  17
ATOM     17  C   UNL     1       2.285   7.256  19.714  0.00  0.00    +0.000 C 
BRANCH  17  18
ATOM     18  N   UNL     1       1.847   8.653  19.787  0.00  0.00    +0.000 NA
ATOM     19  C   UNL     1       0.822   8.824  20.822  0.00  0.00    +0.000 C 
ATOM     20  C   UNL     1       0.458  10.324  20.938  0.00  0.00    +0.000 C 
ATOM     21  C   UNL     1      -0.260  10.689  19.660  0.00  0.00    +0.000 A 
ATOM     22  C   UNL     1      -1.362  11.545  19.664  0.00  0.00    +0.000 A 
ATOM     23  C   UNL     1      -2.297  11.433  18.643  0.00  0.00    +0.000 A 
ATOM     24  C   UNL     1      -2.110  10.494  17.626  0.00  0.00    +0.000 A 
ATOM     25  C   UNL     1      -0.913   9.775  17.536  0.00  0.00    +0.000 A 
ATOM     26  C   UNL     1       0.055   9.916  18.529  0.00  0.00    +0.000 A 
ATOM     27  C   UNL     1       1.400   9.208  18.488  0.00  0.00    +0.000 C 
ENDBRANCH  17  18
ENDBRANCH  16  17
ENDBRANCH   1  16
TORSDOF 6
ENDMDL
MODEL 6
REMARK VINA RESULT:      -8.1      2.188      4.988
REMARK  Name = 
REMARK  7 active torsions:
REMARK  status: ('A' for Active; 'I' for Inactive)
REMARK    1  A    between atoms: C_1  and  C_2
REMARK    2  A    between atoms: C_5  and  O_6
REMARK    3  A    between atoms: O_6  and  C_7
REMARK    4  A    between atoms: C_7  and  C_8
REMARK    5  A    between atoms: C_7  and  C_20
REMARK    6  A    between atoms: C_8  and  C_9
REMARK    7  A    between atoms: C_9  and  N_10
REMARK                            x       y       z     vdW  Elec       q    Type
REMARK                         _______ _______ _______ _____ _____    ______ ____
ROOT
ATOM      1  C   UNL     1       5.814   4.219  16.418  0.00  0.00    +0.000 C 
ENDROOT
BRANCH   1   2
ATOM      2  C   UNL     1       6.579   5.255  17.256  0.00  0.00    +0.000 A 
ATOM      3  C   UNL     1       7.231   4.930  18.457  0.00  0.00    +0.000 A 
ATOM      4  C   UNL     1       7.996   5.893  19.129  0.00  0.00    +0.000 A 
ATOM      5  C   UNL     1       8.128   7.177  18.610  0.00  0.00    +0.000 A 
ATOM      6  C   UNL     1       7.487   7.511  17.426  0.00  0.00    +0.000 A 
ATOM      7  C   UNL     1       6.704   6.567  16.751  0.00  0.00    +0.000 A 
ENDBRANCH   1   2
BRANCH   1   8
ATOM      8  O   UNL     1       5.213   4.730  15.218  0.00  0.00    +0.000 OA
BRANCH   8  13
ATOM      9  C   UNL     1       7.416   2.158  10.700  0.00  0.00    +0.000 C 
ATOM     10  C   UNL     1       6.752   3.001  11.750  0.00  0.00    +0.000 A 
ATOM     11  C   UNL     1       7.522   3.818  12.580  0.00  0.00    +0.000 A 
ATOM     12  C   UNL     1       6.941   4.437  13.691  0.00  0.00    +0.000 A 
ATOM     13  C   UNL     1       5.587   4.262  13.989  0.00  0.00    +0.000 A 
ATOM     14  C   UNL     1       4.794   3.529  13.111  0.00  0.00    +0.000 A 
ATOM     15  C   UNL     1       5.379   2.888  12.004  0.00  0.00    +0.000 A 
ENDBRANCH   8  13
ENDBRANCH   1   8
BRANCH   1  16
ATOM     16  C   UNL     1       4.648   3.722  17.312  0.00  0.00    +0.000 C 
BRANCH  16  17
ATOM     17  C   UNL     1       3.389   4.602  17.324  0.00  0.00    +0.000 C 
BRANCH  17  18
ATOM     18  N   UNL     1       3.311   5.543  18.446  0.00  0.00    +0.000 NA
ATOM     19  C   UNL     1       2.081   5.334  19.216  0.00  0.00    +0.000 C 
ATOM     20  C   UNL     1       2.082   6.274  20.446  0.00  0.00    +0.000 C 
ATOM     21  C   UNL     1       1.933   7.678  19.909  0.00  0.00    +0.000 A 
ATOM     22  C   UNL     1       1.138   8.623  20.558  0.00  0.00    +0.000 A 
ATOM     23  C   UNL     1       0.589   9.659  19.811  0.00  0.00    +0.000 A 
ATOM     24  C   UNL     1       0.859   9.750  18.443  0.00  0.00    +0.000 A 
ATOM     25  C   UNL     1       1.802   8.907  17.848  0.00  0.00    +0.000 A 
ATOM     26  C   UNL     1       2.398   7.894  18.600  0.00  0.00    +0.000 A 
ATOM     27  C   UNL     1       3.462   6.962  18.047  0.00  0.00    +0.000 C 
ENDBRANCH  17  18
ENDBRANCH  16  17
ENDBRANCH   1  16
TORSDOF 6
ENDMDL
MODEL 7
REMARK VINA RESULT:      -8.1      1.016      1.932
REMARK  Name = 
REMARK  7 active torsions:
REMARK  status: ('A' for Active; 'I' for Inactive)
REMARK    1  A    between atoms: C_1  and  C_2
REMARK    2  A    between atoms: C_5  and  O_6
REMARK    3  A    between atoms: O_6  and  C_7
REMARK    4  A    between atoms: C_7  and  C_8
REMARK    5  A    between atoms: C_7  and  C_20
REMARK    6  A    between atoms: C_8  and  C_9
REMARK    7  A    between atoms: C_9  and  N_10
REMARK                            x       y       z     vdW  Elec       q    Type
REMARK                         _______ _______ _______ _____ _____    ______ ____
ROOT
ATOM      1  C   UNL     1       2.554   6.152  18.542  0.00  0.00    +0.000 C 
ENDROOT
BRANCH   1   2
ATOM      2  C   UNL     1       2.017   4.968  19.359  0.00  0.00    +0.000 A 
ATOM      3  C   UNL     1       1.299   3.909  18.780  0.00  0.00    +0.000 A 
ATOM      4  C   UNL     1       0.917   2.805  19.557  0.00  0.00    +0.000 A 
ATOM      5  C   UNL     1       1.254   2.742  20.905  0.00  0.00    +0.000 A 
ATOM      6  C   UNL     1       1.961   3.783  21.489  0.00  0.00    +0.000 A 
ATOM      7  C   UNL     1       2.334   4.900  20.732  0.00  0.00    +0.000 A 
ENDBRANCH   1   2
BRANCH   1   8
ATOM      8  O   UNL     1       3.970   6.133  18.300  0.00  0.00    +0.000 OA
BRANCH   8  13
ATOM      9  C   UNL     1       6.971   4.373  13.854  0.00  0.00    +0.000 C 
ATOM     10  C   UNL     1       5.988   4.759  14.920  0.00  0.00    +0.000 A 
ATOM     11  C   UNL     1       5.612   6.096  15.071  0.00  0.00    +0.000 A 
ATOM     12  C   UNL     1       4.870   6.495  16.187  0.00  0.00    +0.000 A 
ATOM     13  C   UNL     1       4.482   5.572  17.164  0.00  0.00    +0.000 A 
ATOM     14  C   UNL     1       4.769   4.225  16.967  0.00  0.00    +0.000 A 
ATOM     15  C   UNL     1       5.533   3.823  15.857  0.00  0.00    +0.000 A 
ENDBRANCH   8  13
ENDBRANCH   1   8
BRANCH   1  16
ATOM     16  C   UNL     1       2.275   7.420  19.390  0.00  0.00    +0.000 C 
BRANCH  16  17
ATOM     17  C   UNL     1       1.756   8.643  18.619  0.00  0.00    +0.000 C 
BRANCH  17  18
ATOM     18  N   UNL     1       1.387   9.786  19.460  0.00  0.00    +0.000 NA
ATOM     19  C   UNL     1       0.599   9.349  20.617  0.00  0.00    +0.000 C 
ATOM     20  C   UNL     1       0.316  10.565  21.531  0.00  0.00    +0.000 C 
ATOM     21  C   UNL     1      -0.634  11.460  20.769  0.00  0.00    +0.000 A 
ATOM     22  C   UNL     1      -1.684  12.119  21.410  0.00  0.00    +0.000 A 
ATOM     23  C   UNL     1      -2.810  12.457  20.669  0.00  0.00    +0.000 A 
ATOM     24  C   UNL     1      -2.863  12.158  19.306  0.00  0.00    +0.000 A 
ATOM     25  C   UNL     1      -1.733  11.667  18.642  0.00  0.00    +0.000 A 
ATOM     26  C   UNL     1      -0.580  11.370  19.367  0.00  0.00    +0.000 A 
ATOM     27  C   UNL     1       0.704  10.875  18.723  0.00  0.00    +0.000 C 
ENDBRANCH  17  18
ENDBRANCH  16  17
ENDBRANCH   1  16
TORSDOF 6
ENDMDL
MODEL 8
REMARK VINA RESULT:      -8.1      1.130      1.811
REMARK  Name = 
REMARK  7 active torsions:
REMARK  status: ('A' for Active; 'I' for Inactive)
REMARK    1  A    between atoms: C_1  and  C_2
REMARK    2  A    between atoms: C_5  and  O_6
REMARK    3  A    between atoms: O_6  and  C_7
REMARK    4  A    between atoms: C_7  and  C_8
REMARK    5  A    between atoms: C_7  and  C_20
REMARK    6  A    between atoms: C_8  and  C_9
REMARK    7  A    between atoms: C_9  and  N_10
REMARK                            x       y       z     vdW  Elec       q    Type
REMARK                         _______ _______ _______ _____ _____    ______ ____
ROOT
ATOM      1  C   UNL     1       2.473   5.984  18.441  0.00  0.00    +0.000 C 
ENDROOT
BRANCH   1   2
ATOM      2  C   UNL     1       2.029   4.819  19.337  0.00  0.00    +0.000 A 
ATOM      3  C   UNL     1       1.315   3.713  18.848  0.00  0.00    +0.000 A 
ATOM      4  C   UNL     1       1.021   2.631  19.690  0.00  0.00    +0.000 A 
ATOM      5  C   UNL     1       1.442   2.636  21.016  0.00  0.00    +0.000 A 
ATOM      6  C   UNL     1       2.146   3.724  21.512  0.00  0.00    +0.000 A 
ATOM      7  C   UNL     1       2.432   4.819  20.689  0.00  0.00    +0.000 A 
ENDBRANCH   1   2
BRANCH   1   8
ATOM      8  O   UNL     1       3.890   6.215  18.399  0.00  0.00    +0.000 OA
BRANCH   8  13
ATOM      9  C   UNL     1       6.174   3.794  13.839  0.00  0.00    +0.000 C 
ATOM     10  C   UNL     1       5.781   4.519  15.093  0.00  0.00    +0.000 A 
ATOM     11  C   UNL     1       5.558   3.804  16.272  0.00  0.00    +0.000 A 
ATOM     12  C   UNL     1       4.988   4.438  17.381  0.00  0.00    +0.000 A 
ATOM     13  C   UNL     1       4.641   5.791  17.339  0.00  0.00    +0.000 A 
ATOM     14  C   UNL     1       4.952   6.531  16.201  0.00  0.00    +0.000 A 
ATOM     15  C   UNL     1       5.505   5.892  15.077  0.00  0.00    +0.000 A 
ENDBRANCH   8  13
ENDBRANCH   1   8
BRANCH   1  16
ATOM     16  C   UNL     1       1.842   7.261  19.054  0.00  0.00    +0.000 C 
BRANCH  16  17
ATOM     17  C   UNL     1       2.105   8.571  18.296  0.00  0.00    +0.000 C 
BRANCH  17  18
ATOM     18  N   UNL     1       1.629   9.779  18.978  0.00  0.00    +0.000 NA
ATOM     19  C   UNL     1       0.863   9.432  20.180  0.00  0.00    +0.000 C 
ATOM     20  C   UNL     1       0.465  10.729  20.924  0.00  0.00    +0.000 C 
ATOM     21  C   UNL     1      -0.546  11.431  20.047  0.00  0.00    +0.000 A 
ATOM     22  C   UNL     1      -1.657  12.076  20.591  0.00  0.00    +0.000 A 
ATOM     23  C   UNL     1      -2.796  12.216  19.808  0.00  0.00    +0.000 A 
ATOM     24  C   UNL     1      -2.804  11.738  18.496  0.00  0.00    +0.000 A 
ATOM     25  C   UNL     1      -1.627  11.262  17.908  0.00  0.00    +0.000 A 
ATOM     26  C   UNL     1      -0.463  11.163  18.669  0.00  0.00    +0.000 A 
ATOM     27  C   UNL     1       0.868  10.699  18.101  0.00  0.00    +0.000 C 
ENDBRANCH  17  18
ENDBRANCH  16  17
ENDBRANCH   1  16
TORSDOF 6
ENDMDL
MODEL 9
REMARK VINA RESULT:      -8.0      2.518      5.834
REMARK  Name = 
REMARK  7 active torsions:
REMARK  status: ('A' for Active; 'I' for Inactive)
REMARK    1  A    between atoms: C_1  and  C_2
REMARK    2  A    between atoms: C_5  and  O_6
REMARK    3  A    between atoms: O_6  and  C_7
REMARK    4  A    between atoms: C_7  and  C_8
REMARK    5  A    between atoms: C_7  and  C_20
REMARK    6  A    between atoms: C_8  and  C_9
REMARK    7  A    between atoms: C_9  and  N_10
REMARK                            x       y       z     vdW  Elec       q    Type
REMARK                         _______ _______ _______ _____ _____    ______ ____
ROOT
ATOM      1  C   UNL     1       5.567   4.853  16.092  0.00  0.00    +0.000 C 
ENDROOT
BRANCH   1   2
ATOM      2  C   UNL     1       6.029   4.455  14.683  0.00  0.00    +0.000 A 
ATOM      3  C   UNL     1       5.278   3.613  13.846  0.00  0.00    +0.000 A 
ATOM      4  C   UNL     1       5.700   3.361  12.533  0.00  0.00    +0.000 A 
ATOM      5  C   UNL     1       6.859   3.951  12.040  0.00  0.00    +0.000 A 
ATOM      6  C   UNL     1       7.611   4.782  12.857  0.00  0.00    +0.000 A 
ATOM      7  C   UNL     1       7.214   5.029  14.176  0.00  0.00    +0.000 A 
ENDBRANCH   1   2
BRANCH   1   8
ATOM      8  O   UNL     1       6.615   4.965  17.068  0.00  0.00    +0.000 OA
BRANCH   8  13
ATOM      9  C   UNL     1       9.194   9.655  18.865  0.00  0.00    +0.000 C 
ATOM     10  C   UNL     1       8.321   8.490  18.499  0.00  0.00    +0.000 A 
ATOM     11  C   UNL     1       8.482   7.266  19.152  0.00  0.00    +0.000 A 
ATOM     12  C   UNL     1       7.827   6.125  18.676  0.00  0.00    +0.000 A 
ATOM     13  C   UNL     1       6.998   6.184  17.552  0.00  0.00    +0.000 A 
ATOM     14  C   UNL     1       6.758   7.420  16.959  0.00  0.00    +0.000 A 
ATOM     15  C   UNL     1       7.430   8.565  17.421  0.00  0.00    +0.000 A 
ENDBRANCH   8  13
ENDBRANCH   1   8
BRANCH   1  16
ATOM     16  C   UNL     1       4.640   3.709  16.579  0.00  0.00    +0.000 C 
BRANCH  16  17
ATOM     17  C   UNL     1       3.255   4.137  17.089  0.00  0.00    +0.000 C 
BRANCH  17  18
ATOM     18  N   UNL     1       3.278   4.979  18.289  0.00  0.00    +0.000 NA
ATOM     19  C   UNL     1       2.044   4.816  19.064  0.00  0.00    +0.000 C 
ATOM     20  C   UNL     1       2.148   5.640  20.370  0.00  0.00    +0.000 C 
ATOM     21  C   UNL     1       2.123   7.095  19.959  0.00  0.00    +0.000 A 
ATOM     22  C   UNL     1       1.426   8.047  20.703  0.00  0.00    +0.000 A 
ATOM     23  C   UNL     1       0.966   9.190  20.059  0.00  0.00    +0.000 A 
ATOM     24  C   UNL     1       1.226   9.376  18.700  0.00  0.00    +0.000 A 
ATOM     25  C   UNL     1       2.080   8.506  18.015  0.00  0.00    +0.000 A 
ATOM     26  C   UNL     1       2.589   7.381  18.664  0.00  0.00    +0.000 A 
ATOM     27  C   UNL     1       3.556   6.408  18.011  0.00  0.00    +0.000 C 
ENDBRANCH  17  18
ENDBRANCH  16  17
ENDBRANCH   1  16
TORSDOF 6
ENDMDL
