MODEL 1
REMARK VINA RESULT:      -7.5      0.000      0.000
REMARK  Name = 
REMARK  5 active torsions:
REMARK  status: ('A' for Active; 'I' for Inactive)
REMARK    1  A    between atoms: C_3  and  N_4
REMARK    2  A    between atoms: N_4  and  C_5
REMARK    3  A    between atoms: C_8  and  O_9
REMARK    4  A    between atoms: N_14  and  S_15
REMARK    5  A    between atoms: S_15  and  C_18
REMARK                            x       y       z     vdW  Elec       q    Type
REMARK                         _______ _______ _______ _____ _____    ______ ____
ROOT
ATOM      1  O   UNL     1      -1.805  10.158  16.667  0.00  0.00    +0.000 OA
ATOM      2  C   UNL     1      -1.992  10.846  17.668  0.00  0.00    +0.000 C 
ATOM      3  C   UNL     1      -0.845  11.198  18.551  0.00  0.00    +0.000 C 
ATOM      4  C   UNL     1      -1.088  11.878  19.676  0.00  0.00    +0.000 C 
ATOM      5  C   UNL     1      -2.432  12.335  20.157  0.00  0.00    +0.000 C 
ATOM      6  N   UNL     1      -2.391  12.992  21.287  0.00  0.00    +0.000 NA
ATOM      7  C   UNL     1      -3.590  11.987  19.244  0.00  0.00    +0.000 A 
ATOM      8  C   UNL     1      -4.937  12.281  19.513  0.00  0.00    +0.000 A 
ATOM      9  C   UNL     1      -5.962  12.052  18.589  0.00  0.00    +0.000 A 
ATOM     10  C   UNL     1      -5.677  11.483  17.366  0.00  0.00    +0.000 A 
ATOM     11  C   UNL     1      -4.368  11.107  17.091  0.00  0.00    +0.000 A 
ATOM     12  C   UNL     1      -3.335  11.342  18.024  0.00  0.00    +0.000 A 
ENDROOT
BRANCH   6  13
ATOM     13  S   UNL     1      -3.660  13.635  22.032  0.00  0.00    +0.000 S 
ATOM     14  O   UNL     1      -4.222  14.696  21.217  0.00  0.00    +0.000 OA
ATOM     15  O   UNL     1      -4.486  12.604  22.618  0.00  0.00    +0.000 OA
BRANCH  13  16
ATOM     16  C   UNL     1      -2.986  14.511  23.419  0.00  0.00    +0.000 A 
ATOM     17  C   UNL     1      -3.630  15.181  24.445  0.00  0.00    +0.000 A 
ATOM     18  C   UNL     1      -2.738  15.596  25.470  0.00  0.00    +0.000 A 
ATOM     19  C   UNL     1      -1.438  15.235  25.190  0.00  0.00    +0.000 A 
ATOM     20  S   UNL     1      -1.303  14.416  23.689  0.00  0.00    +0.000 S 
ENDBRANCH  13  16
ENDBRANCH   6  13
BRANCH   3  21
ATOM     21  N   UNL     1       0.398  10.720  18.129  0.00  0.00    +0.000 N 
ATOM     22  H   UNL     1       1.072  11.494  18.095  0.00  0.00    +0.000 HD
BRANCH  21  23
ATOM     23  C   UNL     1       1.033   9.575  18.675  0.00  0.00    +0.000 A 
ATOM     24  C   UNL     1       1.864   8.807  17.846  0.00  0.00    +0.000 A 
ATOM     25  C   UNL     1       2.482   7.645  18.322  0.00  0.00    +0.000 A 
ATOM     26  C   UNL     1       2.302   7.273  19.650  0.00  0.00    +0.000 A 
ATOM     27  C   UNL     1       1.558   8.068  20.509  0.00  0.00    +0.000 A 
ATOM     28  C   UNL     1       0.932   9.221  20.026  0.00  0.00    +0.000 A 
BRANCH  26  29
ATOM     29  O   UNL     1       2.843   6.127  20.149  0.00  0.00    +0.000 OA
ATOM     30  H   UNL     1       3.679   5.950  19.687  0.00  0.00    +0.000 HD
ENDBRANCH  26  29
ENDBRANCH  21  23
ENDBRANCH   3  21
TORSDOF 5
ENDMDL
MODEL 2
REMARK VINA RESULT:      -7.2      4.916      9.806
REMARK  Name = 
REMARK  5 active torsions:
REMARK  status: ('A' for Active; 'I' for Inactive)
REMARK    1  A    between atoms: C_3  and  N_4
REMARK    2  A    between atoms: N_4  and  C_5
REMARK    3  A    between atoms: C_8  and  O_9
REMARK    4  A    between atoms: N_14  and  S_15
REMARK    5  A    between atoms: S_15  and  C_18
REMARK                            x       y       z     vdW  Elec       q    Type
REMARK                         _______ _______ _______ _____ _____    ______ ____
ROOT
ATOM      1  O   UNL     1       0.561   8.145  21.006  0.00  0.00    +0.000 OA
ATOM      2  C   UNL     1       1.389   7.942  20.121  0.00  0.00    +0.000 C 
ATOM      3  C   UNL     1       1.720   9.025  19.153  0.00  0.00    +0.000 C 
ATOM      4  C   UNL     1       2.562   8.752  18.151  0.00  0.00    +0.000 C 
ATOM      5  C   UNL     1       3.225   7.433  17.891  0.00  0.00    +0.000 C 
ATOM      6  N   UNL     1       4.014   7.438  16.848  0.00  0.00    +0.000 NA
ATOM      7  C   UNL     1       2.895   6.343  18.891  0.00  0.00    +0.000 A 
ATOM      8  C   UNL     1       3.372   5.024  18.821  0.00  0.00    +0.000 A 
ATOM      9  C   UNL     1       3.143   4.081  19.830  0.00  0.00    +0.000 A 
ATOM     10  C   UNL     1       2.392   4.420  20.936  0.00  0.00    +0.000 A 
ATOM     11  C   UNL     1       1.839   5.693  21.006  0.00  0.00    +0.000 A 
ATOM     12  C   UNL     1       2.075   6.642  19.989  0.00  0.00    +0.000 A 
ENDROOT
BRANCH   6  13
ATOM     13  S   UNL     1       4.886   6.189  16.339  0.00  0.00    +0.000 S 
ATOM     14  O   UNL     1       4.242   4.949  16.730  0.00  0.00    +0.000 OA
ATOM     15  O   UNL     1       5.360   6.410  14.991  0.00  0.00    +0.000 OA
BRANCH  13  16
ATOM     16  C   UNL     1       6.351   6.211  17.338  0.00  0.00    +0.000 A 
ATOM     17  C   UNL     1       7.197   7.261  17.651  0.00  0.00    +0.000 A 
ATOM     18  C   UNL     1       8.160   6.912  18.636  0.00  0.00    +0.000 A 
ATOM     19  C   UNL     1       8.022   5.602  19.039  0.00  0.00    +0.000 A 
ATOM     20  S   UNL     1       6.746   4.802  18.216  0.00  0.00    +0.000 S 
ENDBRANCH  13  16
ENDBRANCH   6  13
BRANCH   3  21
ATOM     21  N   UNL     1       1.055  10.235  19.364  0.00  0.00    +0.000 N 
ATOM     22  H   UNL     1       1.729  11.010  19.330  0.00  0.00    +0.000 HD
BRANCH  21  23
ATOM     23  C   UNL     1      -0.128  10.617  18.682  0.00  0.00    +0.000 A 
ATOM     24  C   UNL     1      -0.619  11.919  18.864  0.00  0.00    +0.000 A 
ATOM     25  C   UNL     1      -1.805  12.336  18.247  0.00  0.00    +0.000 A 
ATOM     26  C   UNL     1      -2.480  11.458  17.407  0.00  0.00    +0.000 A 
ATOM     27  C   UNL     1      -1.963  10.198  17.141  0.00  0.00    +0.000 A 
ATOM     28  C   UNL     1      -0.785   9.782  17.770  0.00  0.00    +0.000 A 
BRANCH  26  29
ATOM     29  O   UNL     1      -3.661  11.798  16.820  0.00  0.00    +0.000 OA
ATOM     30  H   UNL     1      -4.231  12.216  17.486  0.00  0.00    +0.000 HD
ENDBRANCH  26  29
ENDBRANCH  21  23
ENDBRANCH   3  21
TORSDOF 5
ENDMDL
MODEL 3
REMARK VINA RESULT:      -7.1      1.070      1.206
REMARK  Name = 
REMARK  5 active torsions:
REMARK  status: ('A' for Active; 'I' for Inactive)
REMARK    1  A    between atoms: C_3  and  N_4
REMARK    2  A    between atoms: N_4  and  C_5
REMARK    3  A    between atoms: C_8  and  O_9
REMARK    4  A    between atoms: N_14  and  S_15
REMARK    5  A    between atoms: S_15  and  C_18
REMARK                            x       y       z     vdW  Elec       q    Type
REMARK                         _______ _______ _______ _____ _____    ______ ____
ROOT
ATOM      1  O   UNL     1      -2.591  10.552  16.923  0.00  0.00    +0.000 OA
ATOM      2  C   UNL     1      -2.796  11.211  17.940  0.00  0.00    +0.000 C 
ATOM      3  C   UNL     1      -1.649  11.656  18.779  0.00  0.00    +0.000 C 
ATOM      4  C   UNL     1      -1.904  12.299  19.924  0.00  0.00    +0.000 C 
ATOM      5  C   UNL     1      -3.263  12.627  20.466  0.00  0.00    +0.000 C 
ATOM      6  N   UNL     1      -3.233  13.274  21.602  0.00  0.00    +0.000 NA
ATOM      7  C   UNL     1      -4.423  12.185  19.597  0.00  0.00    +0.000 A 
ATOM      8  C   UNL     1      -5.778  12.354  19.926  0.00  0.00    +0.000 A 
ATOM      9  C   UNL     1      -6.816  12.043  19.041  0.00  0.00    +0.000 A 
ATOM     10  C   UNL     1      -6.533  11.514  17.800  0.00  0.00    +0.000 A 
ATOM     11  C   UNL     1      -5.208  11.261  17.465  0.00  0.00    +0.000 A 
ATOM     12  C   UNL     1      -4.162  11.579  18.358  0.00  0.00    +0.000 A 
ENDROOT
BRANCH   6  13
ATOM     13  S   UNL     1      -4.522  13.792  22.409  0.00  0.00    +0.000 S 
ATOM     14  O   UNL     1      -5.222  14.792  21.624  0.00  0.00    +0.000 OA
ATOM     15  O   UNL     1      -5.215  12.686  23.030  0.00  0.00    +0.000 OA
BRANCH  13  16
ATOM     16  C   UNL     1      -3.871  14.732  23.764  0.00  0.00    +0.000 A 
ATOM     17  C   UNL     1      -2.863  14.418  24.660  0.00  0.00    +0.000 A 
ATOM     18  C   UNL     1      -2.508  15.517  25.488  0.00  0.00    +0.000 A 
ATOM     19  C   UNL     1      -3.264  16.633  25.204  0.00  0.00    +0.000 A 
ATOM     20  S   UNL     1      -4.402  16.342  23.954  0.00  0.00    +0.000 S 
ENDBRANCH  13  16
ENDBRANCH   6  13
BRANCH   3  21
ATOM     21  N   UNL     1      -0.387  11.296  18.301  0.00  0.00    +0.000 N 
ATOM     22  H   UNL     1       0.212  12.129  18.249  0.00  0.00    +0.000 HD
BRANCH  21  23
ATOM     23  C   UNL     1       0.371  10.208  18.804  0.00  0.00    +0.000 A 
ATOM     24  C   UNL     1       1.257   9.549  17.939  0.00  0.00    +0.000 A 
ATOM     25  C   UNL     1       1.999   8.444  18.372  0.00  0.00    +0.000 A 
ATOM     26  C   UNL     1       1.885   8.022  19.693  0.00  0.00    +0.000 A 
ATOM     27  C   UNL     1       1.084   8.717  20.587  0.00  0.00    +0.000 A 
ATOM     28  C   UNL     1       0.335   9.812  20.146  0.00  0.00    +0.000 A 
BRANCH  26  29
ATOM     29  O   UNL     1       2.549   6.925  20.152  0.00  0.00    +0.000 OA
ATOM     30  H   UNL     1       1.904   6.217  20.316  0.00  0.00    +0.000 HD
ENDBRANCH  26  29
ENDBRANCH  21  23
ENDBRANCH   3  21
TORSDOF 5
ENDMDL
MODEL 4
REMARK VINA RESULT:      -6.9      5.278     10.781
REMARK  Name = 
REMARK  5 active torsions:
REMARK  status: ('A' for Active; 'I' for Inactive)
REMARK    1  A    between atoms: C_3  and  N_4
REMARK    2  A    between atoms: N_4  and  C_5
REMARK    3  A    between atoms: C_8  and  O_9
REMARK    4  A    between atoms: N_14  and  S_15
REMARK    5  A    between atoms: S_15  and  C_18
REMARK                            x       y       z     vdW  Elec       q    Type
REMARK                         _______ _______ _______ _____ _____    ______ ____
ROOT
ATOM      1  O   UNL     1       1.125   8.250  20.387  0.00  0.00    +0.000 OA
ATOM      2  C   UNL     1       1.897   7.658  19.637  0.00  0.00    +0.000 C 
ATOM      3  C   UNL     1       2.477   8.364  18.461  0.00  0.00    +0.000 C 
ATOM      4  C   UNL     1       3.249   7.673  17.615  0.00  0.00    +0.000 C 
ATOM      5  C   UNL     1       3.599   6.220  17.729  0.00  0.00    +0.000 C 
ATOM      6  N   UNL     1       4.382   5.792  16.772  0.00  0.00    +0.000 NA
ATOM      7  C   UNL     1       3.017   5.514  18.937  0.00  0.00    +0.000 A 
ATOM      8  C   UNL     1       3.183   4.149  19.222  0.00  0.00    +0.000 A 
ATOM      9  C   UNL     1       2.733   3.563  20.410  0.00  0.00    +0.000 A 
ATOM     10  C   UNL     1       2.064   4.323  21.346  0.00  0.00    +0.000 A 
ATOM     11  C   UNL     1       1.813   5.661  21.069  0.00  0.00    +0.000 A 
ATOM     12  C   UNL     1       2.272   6.250  19.871  0.00  0.00    +0.000 A 
ENDROOT
BRANCH   6  13
ATOM     13  S   UNL     1       4.955   4.297  16.643  0.00  0.00    +0.000 S 
ATOM     14  O   UNL     1       5.988   4.080  17.638  0.00  0.00    +0.000 OA
ATOM     15  O   UNL     1       3.879   3.352  16.442  0.00  0.00    +0.000 OA
BRANCH  13  16
ATOM     16  C   UNL     1       5.858   4.279  15.117  0.00  0.00    +0.000 A 
ATOM     17  C   UNL     1       5.517   3.738  13.890  0.00  0.00    +0.000 A 
ATOM     18  C   UNL     1       6.431   4.097  12.862  0.00  0.00    +0.000 A 
ATOM     19  C   UNL     1       7.446   4.895  13.341  0.00  0.00    +0.000 A 
ATOM     20  S   UNL     1       7.297   5.192  15.025  0.00  0.00    +0.000 S 
ENDBRANCH  13  16
ENDBRANCH   6  13
BRANCH   3  21
ATOM     21  N   UNL     1       2.101   9.703  18.326  0.00  0.00    +0.000 N 
ATOM     22  H   UNL     1       2.590  10.120  17.524  0.00  0.00    +0.000 HD
BRANCH  21  23
ATOM     23  C   UNL     1       0.756  10.152  18.336  0.00  0.00    +0.000 A 
ATOM     24  C   UNL     1       0.426  11.270  19.118  0.00  0.00    +0.000 A 
ATOM     25  C   UNL     1      -0.893  11.731  19.196  0.00  0.00    +0.000 A 
ATOM     26  C   UNL     1      -1.882  11.096  18.453  0.00  0.00    +0.000 A 
ATOM     27  C   UNL     1      -1.560  10.047  17.604  0.00  0.00    +0.000 A 
ATOM     28  C   UNL     1      -0.243   9.582  17.539  0.00  0.00    +0.000 A 
BRANCH  26  29
ATOM     29  O   UNL     1      -3.188  11.475  18.530  0.00  0.00    +0.000 OA
ATOM     30  H   UNL     1      -3.517  11.641  17.631  0.00  0.00    +0.000 HD
ENDBRANCH  26  29
ENDBRANCH  21  23
ENDBRANCH   3  21
TORSDOF 5
ENDMDL
MODEL 5
REMARK VINA RESULT:      -6.8      0.514      1.045
REMARK  Name = 
REMARK  5 active torsions:
REMARK  status: ('A' for Active; 'I' for Inactive)
REMARK    1  A    between atoms: C_3  and  N_4
REMARK    2  A    between atoms: N_4  and  C_5
REMARK    3  A    between atoms: C_8  and  O_9
REMARK    4  A    between atoms: N_14  and  S_15
REMARK    5  A    between atoms: S_15  and  C_18
REMARK                            x       y       z     vdW  Elec       q    Type
REMARK                         _______ _______ _______ _____ _____    ______ ____
ROOT
ATOM      1  O   UNL     1      -1.163  10.007  17.175  0.00  0.00    +0.000 OA
ATOM      2  C   UNL     1      -1.478  10.737  18.112  0.00  0.00    +0.000 C 
ATOM      3  C   UNL     1      -0.447  11.170  19.094  0.00  0.00    +0.000 C 
ATOM      4  C   UNL     1      -0.831  11.896  20.149  0.00  0.00    +0.000 C 
ATOM      5  C   UNL     1      -2.233  12.330  20.456  0.00  0.00    +0.000 C 
ATOM      6  N   UNL     1      -2.335  13.043  21.548  0.00  0.00    +0.000 NA
ATOM      7  C   UNL     1      -3.273  11.899  19.442  0.00  0.00    +0.000 A 
ATOM      8  C   UNL     1      -4.649  12.161  19.547  0.00  0.00    +0.000 A 
ATOM      9  C   UNL     1      -5.558  11.853  18.529  0.00  0.00    +0.000 A 
ATOM     10  C   UNL     1      -5.124  11.234  17.376  0.00  0.00    +0.000 A 
ATOM     11  C   UNL     1      -3.782  10.889  17.266  0.00  0.00    +0.000 A 
ATOM     12  C   UNL     1      -2.866  11.205  18.292  0.00  0.00    +0.000 A 
ENDROOT
BRANCH   6  13
ATOM     13  S   UNL     1      -3.696  13.679  22.116  0.00  0.00    +0.000 S 
ATOM     14  O   UNL     1      -4.210  14.658  21.176  0.00  0.00    +0.000 OA
ATOM     15  O   UNL     1      -4.541  12.654  22.687  0.00  0.00    +0.000 OA
BRANCH  13  16
ATOM     16  C   UNL     1      -3.200  14.673  23.498  0.00  0.00    +0.000 A 
ATOM     17  C   UNL     1      -3.967  15.420  24.375  0.00  0.00    +0.000 A 
ATOM     18  C   UNL     1      -3.210  15.926  25.466  0.00  0.00    +0.000 A 
ATOM     19  C   UNL     1      -1.886  15.555  25.382  0.00  0.00    +0.000 A 
ATOM     20  S   UNL     1      -1.565  14.615  23.983  0.00  0.00    +0.000 S 
ENDBRANCH  13  16
ENDBRANCH   6  13
BRANCH   3  21
ATOM     21  N   UNL     1       0.848  10.714  18.837  0.00  0.00    +0.000 N 
ATOM     22  H   UNL     1       1.531  11.411  19.160  0.00  0.00    +0.000 HD
BRANCH  21  23
ATOM     23  C   UNL     1       1.313   9.417  19.174  0.00  0.00    +0.000 A 
ATOM     24  C   UNL     1       1.045   8.919  20.459  0.00  0.00    +0.000 A 
ATOM     25  C   UNL     1       1.515   7.663  20.858  0.00  0.00    +0.000 A 
ATOM     26  C   UNL     1       2.221   6.880  19.951  0.00  0.00    +0.000 A 
ATOM     27  C   UNL     1       2.418   7.316  18.649  0.00  0.00    +0.000 A 
ATOM     28  C   UNL     1       1.958   8.577  18.259  0.00  0.00    +0.000 A 
BRANCH  26  29
ATOM     29  O   UNL     1       2.740   5.671  20.304  0.00  0.00    +0.000 OA
ATOM     30  H   UNL     1       3.540   5.819  20.835  0.00  0.00    +0.000 HD
ENDBRANCH  26  29
ENDBRANCH  21  23
ENDBRANCH   3  21
TORSDOF 5
ENDMDL
MODEL 6
REMARK VINA RESULT:      -6.8      5.266     10.757
REMARK  Name = 
REMARK  5 active torsions:
REMARK  status: ('A' for Active; 'I' for Inactive)
REMARK    1  A    between atoms: C_3  and  N_4
REMARK    2  A    between atoms: N_4  and  C_5
REMARK    3  A    between atoms: C_8  and  O_9
REMARK    4  A    between atoms: N_14  and  S_15
REMARK    5  A    between atoms: S_15  and  C_18
REMARK                            x       y       z     vdW  Elec       q    Type
REMARK                         _______ _______ _______ _____ _____    ______ ____
ROOT
ATOM      1  O   UNL     1       1.081   7.775  20.901  0.00  0.00    +0.000 OA
ATOM      2  C   UNL     1       1.818   7.237  20.079  0.00  0.00    +0.000 C 
ATOM      3  C   UNL     1       2.369   8.030  18.946  0.00  0.00    +0.000 C 
ATOM      4  C   UNL     1       3.101   7.401  18.020  0.00  0.00    +0.000 C 
ATOM      5  C   UNL     1       3.432   5.939  18.001  0.00  0.00    +0.000 C 
ATOM      6  N   UNL     1       4.175   5.581  16.987  0.00  0.00    +0.000 NA
ATOM      7  C   UNL     1       2.880   5.144  19.167  0.00  0.00    +0.000 A 
ATOM      8  C   UNL     1       3.034   3.758  19.334  0.00  0.00    +0.000 A 
ATOM      9  C   UNL     1       2.615   3.081  20.485  0.00  0.00    +0.000 A 
ATOM     10  C   UNL     1       1.990   3.770  21.503  0.00  0.00    +0.000 A 
ATOM     11  C   UNL     1       1.751   5.129  21.344  0.00  0.00    +0.000 A 
ATOM     12  C   UNL     1       2.178   5.810  20.184  0.00  0.00    +0.000 A 
ENDROOT
BRANCH   6  13
ATOM     13  S   UNL     1       4.720   4.095  16.715  0.00  0.00    +0.000 S 
ATOM     14  O   UNL     1       5.679   3.729  17.742  0.00  0.00    +0.000 OA
ATOM     15  O   UNL     1       3.638   3.215  16.333  0.00  0.00    +0.000 OA
BRANCH  13  16
ATOM     16  C   UNL     1       5.724   4.230  15.260  0.00  0.00    +0.000 A 
ATOM     17  C   UNL     1       5.460   3.836  13.960  0.00  0.00    +0.000 A 
ATOM     18  C   UNL     1       6.446   4.289  13.042  0.00  0.00    +0.000 A 
ATOM     19  C   UNL     1       7.436   5.008  13.674  0.00  0.00    +0.000 A 
ATOM     20  S   UNL     1       7.178   5.117  15.366  0.00  0.00    +0.000 S 
ENDBRANCH  13  16
ENDBRANCH   6  13
BRANCH   3  21
ATOM     21  N   UNL     1       2.010   9.380  18.934  0.00  0.00    +0.000 N 
ATOM     22  H   UNL     1       2.625   9.895  18.293  0.00  0.00    +0.000 HD
BRANCH  21  23
ATOM     23  C   UNL     1       0.679   9.844  18.775  0.00  0.00    +0.000 A 
ATOM     24  C   UNL     1      -0.063   9.395  17.671  0.00  0.00    +0.000 A 
ATOM     25  C   UNL     1      -1.366   9.853  17.445  0.00  0.00    +0.000 A 
ATOM     26  C   UNL     1      -1.947  10.732  18.352  0.00  0.00    +0.000 A 
ATOM     27  C   UNL     1      -1.264  11.115  19.497  0.00  0.00    +0.000 A 
ATOM     28  C   UNL     1       0.043  10.666  19.713  0.00  0.00    +0.000 A 
BRANCH  26  29
ATOM     29  O   UNL     1      -3.194  11.243  18.153  0.00  0.00    +0.000 OA
ATOM     30  H   UNL     1      -3.223  11.660  17.276  0.00  0.00    +0.000 HD
ENDBRANCH  26  29
ENDBRANCH  21  23
ENDBRANCH   3  21
TORSDOF 5
ENDMDL
MODEL 7
REMARK VINA RESULT:      -6.7      5.174      8.541
REMARK  Name = 
REMARK  5 active torsions:
REMARK  status: ('A' for Active; 'I' for Inactive)
REMARK    1  A    between atoms: C_3  and  N_4
REMARK    2  A    between atoms: N_4  and  C_5
REMARK    3  A    between atoms: C_8  and  O_9
REMARK    4  A    between atoms: N_14  and  S_15
REMARK    5  A    between atoms: S_15  and  C_18
REMARK                            x       y       z     vdW  Elec       q    Type
REMARK                         _______ _______ _______ _____ _____    ______ ____
ROOT
ATOM      1  O   UNL     1       5.617   4.180  18.214  0.00  0.00    +0.000 OA
ATOM      2  C   UNL     1       4.888   5.167  18.135  0.00  0.00    +0.000 C 
ATOM      3  C   UNL     1       5.210   6.251  17.166  0.00  0.00    +0.000 C 
ATOM      4  C   UNL     1       4.448   7.350  17.158  0.00  0.00    +0.000 C 
ATOM      5  C   UNL     1       3.272   7.613  18.049  0.00  0.00    +0.000 C 
ATOM      6  N   UNL     1       2.692   8.764  17.828  0.00  0.00    +0.000 NA
ATOM      7  C   UNL     1       2.942   6.497  19.020  0.00  0.00    +0.000 A 
ATOM      8  C   UNL     1       1.909   6.543  19.970  0.00  0.00    +0.000 A 
ATOM      9  C   UNL     1       1.560   5.445  20.764  0.00  0.00    +0.000 A 
ATOM     10  C   UNL     1       2.262   4.263  20.657  0.00  0.00    +0.000 A 
ATOM     11  C   UNL     1       3.340   4.200  19.783  0.00  0.00    +0.000 A 
ATOM     12  C   UNL     1       3.688   5.308  18.981  0.00  0.00    +0.000 A 
ENDROOT
BRANCH   6  13
ATOM     13  S   UNL     1       1.391   9.310  18.596  0.00  0.00    +0.000 S 
ATOM     14  O   UNL     1       0.206   9.048  17.801  0.00  0.00    +0.000 OA
ATOM     15  O   UNL     1       1.453   8.983  20.004  0.00  0.00    +0.000 OA
BRANCH  13  16
ATOM     16  C   UNL     1       1.529  11.076  18.539  0.00  0.00    +0.000 A 
ATOM     17  C   UNL     1       2.533  11.873  18.017  0.00  0.00    +0.000 A 
ATOM     18  C   UNL     1       2.184  13.250  17.999  0.00  0.00    +0.000 A 
ATOM     19  C   UNL     1       0.925  13.462  18.516  0.00  0.00    +0.000 A 
ATOM     20  S   UNL     1       0.184  12.003  19.033  0.00  0.00    +0.000 S 
ENDBRANCH  13  16
ENDBRANCH   6  13
BRANCH   3  21
ATOM     21  N   UNL     1       6.342   6.028  16.378  0.00  0.00    +0.000 N 
ATOM     22  H   UNL     1       7.126   5.735  16.975  0.00  0.00    +0.000 HD
BRANCH  21  23
ATOM     23  C   UNL     1       6.342   5.248  15.195  0.00  0.00    +0.000 A 
ATOM     24  C   UNL     1       5.197   4.499  14.883  0.00  0.00    +0.000 A 
ATOM     25  C   UNL     1       5.158   3.680  13.748  0.00  0.00    +0.000 A 
ATOM     26  C   UNL     1       6.256   3.643  12.896  0.00  0.00    +0.000 A 
ATOM     27  C   UNL     1       7.362   4.446  13.138  0.00  0.00    +0.000 A 
ATOM     28  C   UNL     1       7.401   5.252  14.279  0.00  0.00    +0.000 A 
BRANCH  26  29
ATOM     29  O   UNL     1       6.287   2.828  11.806  0.00  0.00    +0.000 OA
ATOM     30  H   UNL     1       6.345   1.907  12.107  0.00  0.00    +0.000 HD
ENDBRANCH  26  29
ENDBRANCH  21  23
ENDBRANCH   3  21
TORSDOF 5
ENDMDL
MODEL 8
REMARK VINA RESULT:      -6.7      1.437      1.992
REMARK  Name = 
REMARK  5 active torsions:
REMARK  status: ('A' for Active; 'I' for Inactive)
REMARK    1  A    between atoms: C_3  and  N_4
REMARK    2  A    between atoms: N_4  and  C_5
REMARK    3  A    between atoms: C_8  and  O_9
REMARK    4  A    between atoms: N_14  and  S_15
REMARK    5  A    between atoms: S_15  and  C_18
REMARK                            x       y       z     vdW  Elec       q    Type
REMARK                         _______ _______ _______ _____ _____    ______ ____
ROOT
ATOM      1  O   UNL     1      -2.781  10.605  17.350  0.00  0.00    +0.000 OA
ATOM      2  C   UNL     1      -3.059  11.352  18.285  0.00  0.00    +0.000 C 
ATOM      3  C   UNL     1      -1.969  11.983  19.080  0.00  0.00    +0.000 C 
ATOM      4  C   UNL     1      -2.298  12.725  20.143  0.00  0.00    +0.000 C 
ATOM      5  C   UNL     1      -3.689  12.993  20.634  0.00  0.00    +0.000 C 
ATOM      6  N   UNL     1      -3.734  13.761  21.691  0.00  0.00    +0.000 NA
ATOM      7  C   UNL     1      -4.792  12.360  19.810  0.00  0.00    +0.000 A 
ATOM      8  C   UNL     1      -6.162  12.447  20.106  0.00  0.00    +0.000 A 
ATOM      9  C   UNL     1      -7.154  11.952  19.253  0.00  0.00    +0.000 A 
ATOM     10  C   UNL     1      -6.805  11.316  18.081  0.00  0.00    +0.000 A 
ATOM     11  C   UNL     1      -5.458  11.142  17.788  0.00  0.00    +0.000 A 
ATOM     12  C   UNL     1      -4.459  11.645  18.648  0.00  0.00    +0.000 A 
ENDROOT
BRANCH   6  13
ATOM     13  S   UNL     1      -5.076  14.252  22.424  0.00  0.00    +0.000 S 
ATOM     14  O   UNL     1      -5.820  15.136  21.545  0.00  0.00    +0.000 OA
ATOM     15  O   UNL     1      -5.712  13.154  23.118  0.00  0.00    +0.000 OA
BRANCH  13  16
ATOM     16  C   UNL     1      -4.527  15.339  23.713  0.00  0.00    +0.000 A 
ATOM     17  C   UNL     1      -3.308  15.398  24.365  0.00  0.00    +0.000 A 
ATOM     18  C   UNL     1      -3.196  16.535  25.211  0.00  0.00    +0.000 A 
ATOM     19  C   UNL     1      -4.339  17.304  25.183  0.00  0.00    +0.000 A 
ATOM     20  S   UNL     1      -5.539  16.641  24.151  0.00  0.00    +0.000 S 
ENDBRANCH  13  16
ENDBRANCH   6  13
BRANCH   3  21
ATOM     21  N   UNL     1      -0.673  11.683  18.654  0.00  0.00    +0.000 N 
ATOM     22  H   UNL     1      -0.084  12.522  18.723  0.00  0.00    +0.000 HD
BRANCH  21  23
ATOM     23  C   UNL     1       0.066  10.558  19.100  0.00  0.00    +0.000 A 
ATOM     24  C   UNL     1      -0.177  10.062  20.390  0.00  0.00    +0.000 A 
ATOM     25  C   UNL     1       0.553   8.979  20.895  0.00  0.00    +0.000 A 
ATOM     26  C   UNL     1       1.502   8.362  20.089  0.00  0.00    +0.000 A 
ATOM     27  C   UNL     1       1.693   8.779  18.780  0.00  0.00    +0.000 A 
ATOM     28  C   UNL     1       0.971   9.869  18.284  0.00  0.00    +0.000 A 
BRANCH  26  29
ATOM     29  O   UNL     1       2.271   7.336  20.548  0.00  0.00    +0.000 OA
ATOM     30  H   UNL     1       3.084   7.294  20.017  0.00  0.00    +0.000 HD
ENDBRANCH  26  29
ENDBRANCH  21  23
ENDBRANCH   3  21
TORSDOF 5
ENDMDL
MODEL 9
REMARK VINA RESULT:      -6.6      1.457      1.777
REMARK  Name = 
REMARK  5 active torsions:
REMARK  status: ('A' for Active; 'I' for Inactive)
REMARK    1  A    between atoms: C_3  and  N_4
REMARK    2  A    between atoms: N_4  and  C_5
REMARK    3  A    between atoms: C_8  and  O_9
REMARK    4  A    between atoms: N_14  and  S_15
REMARK    5  A    between atoms: S_15  and  C_18
REMARK                            x       y       z     vdW  Elec       q    Type
REMARK                         _______ _______ _______ _____ _____    ______ ____
ROOT
ATOM      1  O   UNL     1      -1.852   9.772  17.323  0.00  0.00    +0.000 OA
ATOM      2  C   UNL     1      -1.963  10.749  18.060  0.00  0.00    +0.000 C 
ATOM      3  C   UNL     1      -0.744  11.417  18.595  0.00  0.00    +0.000 C 
ATOM      4  C   UNL     1      -0.893  12.426  19.460  0.00  0.00    +0.000 C 
ATOM      5  C   UNL     1      -2.197  12.970  19.963  0.00  0.00    +0.000 C 
ATOM      6  N   UNL     1      -2.063  13.969  20.796  0.00  0.00    +0.000 NA
ATOM      7  C   UNL     1      -3.431  12.295  19.400  0.00  0.00    +0.000 A 
ATOM      8  C   UNL     1      -4.751  12.614  19.759  0.00  0.00    +0.000 A 
ATOM      9  C   UNL     1      -5.865  12.052  19.126  0.00  0.00    +0.000 A 
ATOM     10  C   UNL     1      -5.696  11.116  18.128  0.00  0.00    +0.000 A 
ATOM     11  C   UNL     1      -4.407  10.716  17.796  0.00  0.00    +0.000 A 
ATOM     12  C   UNL     1      -3.285  11.288  18.433  0.00  0.00    +0.000 A 
ENDROOT
BRANCH   6  13
ATOM     13  S   UNL     1      -3.273  14.779  21.473  0.00  0.00    +0.000 S 
ATOM     14  O   UNL     1      -2.746  15.862  22.283  0.00  0.00    +0.000 OA
ATOM     15  O   UNL     1      -4.345  14.988  20.525  0.00  0.00    +0.000 OA
BRANCH  13  16
ATOM     16  C   UNL     1      -3.952  13.672  22.680  0.00  0.00    +0.000 A 
ATOM     17  C   UNL     1      -3.320  12.742  23.487  0.00  0.00    +0.000 A 
ATOM     18  C   UNL     1      -4.192  12.180  24.459  0.00  0.00    +0.000 A 
ATOM     19  C   UNL     1      -5.466  12.694  24.356  0.00  0.00    +0.000 A 
ATOM     20  S   UNL     1      -5.602  13.835  23.082  0.00  0.00    +0.000 S 
ENDBRANCH  13  16
ENDBRANCH   6  13
BRANCH   3  21
ATOM     21  N   UNL     1       0.469  10.870  18.170  0.00  0.00    +0.000 N 
ATOM     22  H   UNL     1       1.181  11.609  18.116  0.00  0.00    +0.000 HD
BRANCH  21  23
ATOM     23  C   UNL     1       1.051   9.704  18.729  0.00  0.00    +0.000 A 
ATOM     24  C   UNL     1       1.858   8.897  17.913  0.00  0.00    +0.000 A 
ATOM     25  C   UNL     1       2.424   7.714  18.403  0.00  0.00    +0.000 A 
ATOM     26  C   UNL     1       2.216   7.358  19.731  0.00  0.00    +0.000 A 
ATOM     27  C   UNL     1       1.497   8.189  20.578  0.00  0.00    +0.000 A 
ATOM     28  C   UNL     1       0.923   9.363  20.081  0.00  0.00    +0.000 A 
BRANCH  26  29
ATOM     29  O   UNL     1       2.705   6.195  20.244  0.00  0.00    +0.000 OA
ATOM     30  H   UNL     1       2.306   5.451  19.763  0.00  0.00    +0.000 HD
ENDBRANCH  26  29
ENDBRANCH  21  23
ENDBRANCH   3  21
TORSDOF 5
ENDMDL
