MODEL 1
REMARK VINA RESULT:      -7.3      0.000      0.000
REMARK  Name = 
REMARK  8 active torsions:
REMARK  status: ('A' for Active; 'I' for Inactive)
REMARK    1  A    between atoms: C_1  and  N_2
REMARK    2  A    between atoms: N_2  and  C_3
REMARK    3  A    between atoms: N_2  and  C_4
REMARK    4  A    between atoms: C_4  and  C_5
REMARK    5  A    between atoms: C_5  and  N_6
REMARK    6  A    between atoms: C_7  and  C_9
REMARK    7  A    between atoms: C_9  and  N_10
REMARK    8  A    between atoms: C_18  and  N_19
REMARK                            x       y       z     vdW  Elec       q    Type
REMARK                         _______ _______ _______ _____ _____    ______ ____
ROOT
ATOM      1  N   UNL     1       6.691   5.421  18.048  0.00  0.00    +0.000 N 
ATOM      2  C   UNL     1       5.830   5.215  19.096  0.00  0.00    +0.000 A 
ATOM      3  C   UNL     1       4.604   4.584  18.914  0.00  0.00    +0.000 A 
ATOM      4  C   UNL     1       4.230   4.147  17.651  0.00  0.00    +0.000 A 
ATOM      5  O   UNL     1       3.150   3.599  17.506  0.00  0.00    +0.000 OA
ATOM      6  C   UNL     1       5.091   4.355  16.561  0.00  0.00    +0.000 A 
ATOM      7  C   UNL     1       4.726   3.936  15.270  0.00  0.00    +0.000 A 
ATOM      8  C   UNL     1       5.567   4.161  14.187  0.00  0.00    +0.000 A 
ATOM      9  C   UNL     1       6.795   4.816  14.359  0.00  0.00    +0.000 A 
ATOM     10  C   UNL     1       7.173   5.229  15.651  0.00  0.00    +0.000 A 
ATOM     11  C   UNL     1       6.340   5.007  16.773  0.00  0.00    +0.000 A 
ENDROOT
BRANCH   9  12
ATOM     12  N   UNL     1       7.643   5.068  13.238  0.00  0.00    +0.000 N 
ATOM     13  O   UNL     1       8.587   5.793  13.341  0.00  0.00    +0.000 OA
ATOM     14  O   UNL     1       7.423   4.470  12.087  0.00  0.00    +0.000 OA
ENDBRANCH   9  12
BRANCH   1  15
ATOM     15  C   UNL     1       7.961   6.121  18.351  0.00  0.00    +0.000 C 
BRANCH  15  17
ATOM     16  N   UNL     1       8.707   8.464  18.770  0.00  0.00    +0.000 N 
ATOM     17  C   UNL     1       7.875   7.610  18.107  0.00  0.00    +0.000 C 
ATOM     18  O   UNL     1       7.089   8.027  17.270  0.00  0.00    +0.000 OA
ATOM     19  H   UNL     1       9.382   8.077  19.448  0.00  0.00    +0.000 HD
BRANCH  16  20
ATOM     20  C   UNL     1       8.755   9.898  18.534  0.00  0.00    +0.000 C 
BRANCH  20  21
ATOM     21  C   UNL     1       9.493  10.671  19.645  0.00  0.00    +0.000 C 
BRANCH  21  23
ATOM     22  C   UNL     1      10.690  11.857  17.867  0.00  0.00    +0.000 C 
ATOM     23  N   UNL     1      10.783  11.249  19.207  0.00  0.00    +0.000 NA
ATOM     24  C   UNL     1      11.205  12.277  20.175  0.00  0.00    +0.000 C 
ENDBRANCH  21  23
ENDBRANCH  20  21
ENDBRANCH  16  20
ENDBRANCH  15  17
ENDBRANCH   1  15
TORSDOF 6
ENDMDL
MODEL 2
REMARK VINA RESULT:      -7.2      3.129      5.688
REMARK  Name = 
REMARK  8 active torsions:
REMARK  status: ('A' for Active; 'I' for Inactive)
REMARK    1  A    between atoms: C_1  and  N_2
REMARK    2  A    between atoms: N_2  and  C_3
REMARK    3  A    between atoms: N_2  and  C_4
REMARK    4  A    between atoms: C_4  and  C_5
REMARK    5  A    between atoms: C_5  and  N_6
REMARK    6  A    between atoms: C_7  and  C_9
REMARK    7  A    between atoms: C_9  and  N_10
REMARK    8  A    between atoms: C_18  and  N_19
REMARK                            x       y       z     vdW  Elec       q    Type
REMARK                         _______ _______ _______ _____ _____    ______ ____
ROOT
ATOM      1  N   UNL     1       3.426   3.608  18.301  0.00  0.00    +0.000 N 
ATOM      2  C   UNL     1       3.555   2.457  19.037  0.00  0.00    +0.000 A 
ATOM      3  C   UNL     1       3.128   2.388  20.358  0.00  0.00    +0.000 A 
ATOM      4  C   UNL     1       2.556   3.500  20.960  0.00  0.00    +0.000 A 
ATOM      5  O   UNL     1       2.190   3.427  22.121  0.00  0.00    +0.000 OA
ATOM      6  C   UNL     1       2.420   4.692  20.229  0.00  0.00    +0.000 A 
ATOM      7  C   UNL     1       1.858   5.836  20.823  0.00  0.00    +0.000 A 
ATOM      8  C   UNL     1       1.745   7.023  20.109  0.00  0.00    +0.000 A 
ATOM      9  C   UNL     1       2.193   7.105  18.783  0.00  0.00    +0.000 A 
ATOM     10  C   UNL     1       2.746   5.961  18.177  0.00  0.00    +0.000 A 
ATOM     11  C   UNL     1       2.869   4.737  18.879  0.00  0.00    +0.000 A 
ENDROOT
BRANCH   9  12
ATOM     12  N   UNL     1       2.097   8.335  18.063  0.00  0.00    +0.000 N 
ATOM     13  O   UNL     1       2.823   8.556  17.140  0.00  0.00    +0.000 OA
ATOM     14  O   UNL     1       1.178   9.222  18.376  0.00  0.00    +0.000 OA
ENDBRANCH   9  12
BRANCH   1  15
ATOM     15  C   UNL     1       3.932   3.575  16.910  0.00  0.00    +0.000 C 
BRANCH  15  17
ATOM     16  N   UNL     1       6.150   4.207  17.862  0.00  0.00    +0.000 N 
ATOM     17  C   UNL     1       5.317   4.166  16.782  0.00  0.00    +0.000 C 
ATOM     18  O   UNL     1       5.695   4.555  15.687  0.00  0.00    +0.000 OA
ATOM     19  H   UNL     1       5.812   3.841  18.766  0.00  0.00    +0.000 HD
BRANCH  16  20
ATOM     20  C   UNL     1       7.525   4.674  17.811  0.00  0.00    +0.000 C 
BRANCH  20  21
ATOM     21  C   UNL     1       7.717   6.065  18.449  0.00  0.00    +0.000 C 
BRANCH  21  23
ATOM     22  C   UNL     1       6.147   7.509  17.244  0.00  0.00    +0.000 C 
ATOM     23  N   UNL     1       7.564   7.183  17.491  0.00  0.00    +0.000 NA
ATOM     24  C   UNL     1       8.248   8.373  18.025  0.00  0.00    +0.000 C 
ENDBRANCH  21  23
ENDBRANCH  20  21
ENDBRANCH  16  20
ENDBRANCH  15  17
ENDBRANCH   1  15
TORSDOF 6
ENDMDL
MODEL 3
REMARK VINA RESULT:      -7.1      4.213      7.525
REMARK  Name = 
REMARK  8 active torsions:
REMARK  status: ('A' for Active; 'I' for Inactive)
REMARK    1  A    between atoms: C_1  and  N_2
REMARK    2  A    between atoms: N_2  and  C_3
REMARK    3  A    between atoms: N_2  and  C_4
REMARK    4  A    between atoms: C_4  and  C_5
REMARK    5  A    between atoms: C_5  and  N_6
REMARK    6  A    between atoms: C_7  and  C_9
REMARK    7  A    between atoms: C_9  and  N_10
REMARK    8  A    between atoms: C_18  and  N_19
REMARK                            x       y       z     vdW  Elec       q    Type
REMARK                         _______ _______ _______ _____ _____    ______ ____
ROOT
ATOM      1  N   UNL     1       4.995   5.462  18.275  0.00  0.00    +0.000 N 
ATOM      2  C   UNL     1       5.047   6.547  17.438  0.00  0.00    +0.000 A 
ATOM      3  C   UNL     1       4.009   7.471  17.380  0.00  0.00    +0.000 A 
ATOM      4  C   UNL     1       2.889   7.305  18.183  0.00  0.00    +0.000 A 
ATOM      5  O   UNL     1       1.985   8.121  18.120  0.00  0.00    +0.000 OA
ATOM      6  C   UNL     1       2.809   6.197  19.043  0.00  0.00    +0.000 A 
ATOM      7  C   UNL     1       1.678   6.000  19.854  0.00  0.00    +0.000 A 
ATOM      8  C   UNL     1       1.587   4.892  20.688  0.00  0.00    +0.000 A 
ATOM      9  C   UNL     1       2.620   3.945  20.735  0.00  0.00    +0.000 A 
ATOM     10  C   UNL     1       3.762   4.142  19.934  0.00  0.00    +0.000 A 
ATOM     11  C   UNL     1       3.884   5.264  19.080  0.00  0.00    +0.000 A 
ENDROOT
BRANCH   9  12
ATOM     12  N   UNL     1       2.509   2.795  21.574  0.00  0.00    +0.000 N 
ATOM     13  O   UNL     1       1.456   2.488  22.046  0.00  0.00    +0.000 OA
ATOM     14  O   UNL     1       3.556   2.033  21.802  0.00  0.00    +0.000 OA
ENDBRANCH   9  12
BRANCH   1  15
ATOM     15  C   UNL     1       6.146   4.532  18.240  0.00  0.00    +0.000 C 
BRANCH  15  17
ATOM     16  N   UNL     1       5.943   4.152  15.783  0.00  0.00    +0.000 N 
ATOM     17  C   UNL     1       6.745   4.400  16.859  0.00  0.00    +0.000 C 
ATOM     18  O   UNL     1       7.946   4.573  16.716  0.00  0.00    +0.000 OA
ATOM     19  H   UNL     1       4.928   4.042  15.933  0.00  0.00    +0.000 HD
BRANCH  16  20
ATOM     20  C   UNL     1       6.419   4.097  14.411  0.00  0.00    +0.000 C 
BRANCH  20  21
ATOM     21  C   UNL     1       5.364   3.559  13.424  0.00  0.00    +0.000 C 
BRANCH  21  23
ATOM     22  C   UNL     1       7.264   3.866  11.908  0.00  0.00    +0.000 C 
ATOM     23  N   UNL     1       5.846   3.480  12.026  0.00  0.00    +0.000 NA
ATOM     24  C   UNL     1       5.679   2.101  11.535  0.00  0.00    +0.000 C 
ENDBRANCH  21  23
ENDBRANCH  20  21
ENDBRANCH  16  20
ENDBRANCH  15  17
ENDBRANCH   1  15
TORSDOF 6
ENDMDL
MODEL 4
REMARK VINA RESULT:      -7.0      0.533      1.019
REMARK  Name = 
REMARK  8 active torsions:
REMARK  status: ('A' for Active; 'I' for Inactive)
REMARK    1  A    between atoms: C_1  and  N_2
REMARK    2  A    between atoms: N_2  and  C_3
REMARK    3  A    between atoms: N_2  and  C_4
REMARK    4  A    between atoms: C_4  and  C_5
REMARK    5  A    between atoms: C_5  and  N_6
REMARK    6  A    between atoms: C_7  and  C_9
REMARK    7  A    between atoms: C_9  and  N_10
REMARK    8  A    between atoms: C_18  and  N_19
REMARK                            x       y       z     vdW  Elec       q    Type
REMARK                         _______ _______ _______ _____ _____    ______ ____
ROOT
ATOM      1  N   UNL     1       6.692   5.394  18.049  0.00  0.00    +0.000 N 
ATOM      2  C   UNL     1       5.824   5.180  19.090  0.00  0.00    +0.000 A 
ATOM      3  C   UNL     1       4.604   4.543  18.898  0.00  0.00    +0.000 A 
ATOM      4  C   UNL     1       4.241   4.107  17.631  0.00  0.00    +0.000 A 
ATOM      5  O   UNL     1       3.166   3.553  17.476  0.00  0.00    +0.000 OA
ATOM      6  C   UNL     1       5.110   4.322  16.548  0.00  0.00    +0.000 A 
ATOM      7  C   UNL     1       4.757   3.904  15.253  0.00  0.00    +0.000 A 
ATOM      8  C   UNL     1       5.605   4.137  14.177  0.00  0.00    +0.000 A 
ATOM      9  C   UNL     1       6.828   4.798  14.360  0.00  0.00    +0.000 A 
ATOM     10  C   UNL     1       7.194   5.209  15.656  0.00  0.00    +0.000 A 
ATOM     11  C   UNL     1       6.353   4.980  16.771  0.00  0.00    +0.000 A 
ENDROOT
BRANCH   9  12
ATOM     12  N   UNL     1       7.683   5.057  13.246  0.00  0.00    +0.000 N 
ATOM     13  O   UNL     1       7.459   4.565  12.181  0.00  0.00    +0.000 OA
ATOM     14  O   UNL     1       8.703   5.879  13.364  0.00  0.00    +0.000 OA
ENDBRANCH   9  12
BRANCH   1  15
ATOM     15  C   UNL     1       7.956   6.100  18.364  0.00  0.00    +0.000 C 
BRANCH  15  17
ATOM     16  N   UNL     1       8.662   8.453  18.796  0.00  0.00    +0.000 N 
ATOM     17  C   UNL     1       7.871   7.586  18.101  0.00  0.00    +0.000 C 
ATOM     18  O   UNL     1       7.124   7.989  17.223  0.00  0.00    +0.000 OA
ATOM     19  H   UNL     1       9.305   8.078  19.510  0.00  0.00    +0.000 HD
BRANCH  16  20
ATOM     20  C   UNL     1       8.710   9.885  18.549  0.00  0.00    +0.000 C 
BRANCH  20  21
ATOM     21  C   UNL     1       9.663  10.633  19.504  0.00  0.00    +0.000 C 
BRANCH  21  23
ATOM     22  C   UNL     1       9.539  12.808  20.625  0.00  0.00    +0.000 C 
ATOM     23  N   UNL     1       9.636  12.103  19.333  0.00  0.00    +0.000 NA
ATOM     24  C   UNL     1      10.865  12.530  18.641  0.00  0.00    +0.000 C 
ENDBRANCH  21  23
ENDBRANCH  20  21
ENDBRANCH  16  20
ENDBRANCH  15  17
ENDBRANCH   1  15
TORSDOF 6
ENDMDL
MODEL 5
REMARK VINA RESULT:      -6.9      3.477      6.161
REMARK  Name = 
REMARK  8 active torsions:
REMARK  status: ('A' for Active; 'I' for Inactive)
REMARK    1  A    between atoms: C_1  and  N_2
REMARK    2  A    between atoms: N_2  and  C_3
REMARK    3  A    between atoms: N_2  and  C_4
REMARK    4  A    between atoms: C_4  and  C_5
REMARK    5  A    between atoms: C_5  and  N_6
REMARK    6  A    between atoms: C_7  and  C_9
REMARK    7  A    between atoms: C_9  and  N_10
REMARK    8  A    between atoms: C_18  and  N_19
REMARK                            x       y       z     vdW  Elec       q    Type
REMARK                         _______ _______ _______ _____ _____    ______ ____
ROOT
ATOM      1  N   UNL     1       2.987   3.846  18.153  0.00  0.00    +0.000 N 
ATOM      2  C   UNL     1       3.143   2.623  18.755  0.00  0.00    +0.000 A 
ATOM      3  C   UNL     1       2.870   2.439  20.106  0.00  0.00    +0.000 A 
ATOM      4  C   UNL     1       2.428   3.506  20.875  0.00  0.00    +0.000 A 
ATOM      5  O   UNL     1       2.195   3.331  22.059  0.00  0.00    +0.000 OA
ATOM      6  C   UNL     1       2.268   4.770  20.282  0.00  0.00    +0.000 A 
ATOM      7  C   UNL     1       1.836   5.869  21.045  0.00  0.00    +0.000 A 
ATOM      8  C   UNL     1       1.700   7.124  20.465  0.00  0.00    +0.000 A 
ATOM      9  C   UNL     1       1.994   7.322  19.109  0.00  0.00    +0.000 A 
ATOM     10  C   UNL     1       2.416   6.224  18.335  0.00  0.00    +0.000 A 
ATOM     11  C   UNL     1       2.558   4.932  18.897  0.00  0.00    +0.000 A 
ENDROOT
BRANCH   9  12
ATOM     12  N   UNL     1       1.877   8.620  18.525  0.00  0.00    +0.000 N 
ATOM     13  O   UNL     1       1.403   9.524  19.146  0.00  0.00    +0.000 OA
ATOM     14  O   UNL     1       2.332   8.851  17.313  0.00  0.00    +0.000 OA
ENDBRANCH   9  12
BRANCH   1  15
ATOM     15  C   UNL     1       3.326   3.933  16.714  0.00  0.00    +0.000 C 
BRANCH  15  17
ATOM     16  N   UNL     1       5.817   3.846  16.820  0.00  0.00    +0.000 N 
ATOM     17  C   UNL     1       4.692   4.535  16.475  0.00  0.00    +0.000 C 
ATOM     18  O   UNL     1       4.769   5.622  15.921  0.00  0.00    +0.000 OA
ATOM     19  H   UNL     1       5.718   2.917  17.258  0.00  0.00    +0.000 HD
BRANCH  16  20
ATOM     20  C   UNL     1       7.168   4.309  16.547  0.00  0.00    +0.000 C 
BRANCH  20  21
ATOM     21  C   UNL     1       8.014   4.496  17.823  0.00  0.00    +0.000 C 
BRANCH  21  23
ATOM     22  C   UNL     1       7.488   6.877  17.591  0.00  0.00    +0.000 C 
ATOM     23  N   UNL     1       7.748   5.769  18.529  0.00  0.00    +0.000 NA
ATOM     24  C   UNL     1       6.579   5.598  19.409  0.00  0.00    +0.000 C 
ENDBRANCH  21  23
ENDBRANCH  20  21
ENDBRANCH  16  20
ENDBRANCH  15  17
ENDBRANCH   1  15
TORSDOF 6
ENDMDL
MODEL 6
REMARK VINA RESULT:      -6.9      4.973      6.338
REMARK  Name = 
REMARK  8 active torsions:
REMARK  status: ('A' for Active; 'I' for Inactive)
REMARK    1  A    between atoms: C_1  and  N_2
REMARK    2  A    between atoms: N_2  and  C_3
REMARK    3  A    between atoms: N_2  and  C_4
REMARK    4  A    between atoms: C_4  and  C_5
REMARK    5  A    between atoms: C_5  and  N_6
REMARK    6  A    between atoms: C_7  and  C_9
REMARK    7  A    between atoms: C_9  and  N_10
REMARK    8  A    between atoms: C_18  and  N_19
REMARK                            x       y       z     vdW  Elec       q    Type
REMARK                         _______ _______ _______ _____ _____    ______ ____
ROOT
ATOM      1  N   UNL     1       2.707   5.845  18.870  0.00  0.00    +0.000 N 
ATOM      2  C   UNL     1       1.583   5.121  19.176  0.00  0.00    +0.000 A 
ATOM      3  C   UNL     1       1.384   3.841  18.670  0.00  0.00    +0.000 A 
ATOM      4  C   UNL     1       2.334   3.270  17.836  0.00  0.00    +0.000 A 
ATOM      5  O   UNL     1       2.145   2.148  17.397  0.00  0.00    +0.000 OA
ATOM      6  C   UNL     1       3.490   3.995  17.503  0.00  0.00    +0.000 A 
ATOM      7  C   UNL     1       4.460   3.443  16.647  0.00  0.00    +0.000 A 
ATOM      8  C   UNL     1       5.593   4.168  16.297  0.00  0.00    +0.000 A 
ATOM      9  C   UNL     1       5.790   5.467  16.787  0.00  0.00    +0.000 A 
ATOM     10  C   UNL     1       4.829   6.022  17.653  0.00  0.00    +0.000 A 
ATOM     11  C   UNL     1       3.669   5.305  18.031  0.00  0.00    +0.000 A 
ENDROOT
BRANCH   9  12
ATOM     12  N   UNL     1       6.943   6.217  16.402  0.00  0.00    +0.000 N 
ATOM     13  O   UNL     1       7.256   7.200  17.004  0.00  0.00    +0.000 OA
ATOM     14  O   UNL     1       7.702   5.810  15.408  0.00  0.00    +0.000 OA
ENDBRANCH   9  12
BRANCH   1  15
ATOM     15  C   UNL     1       2.807   7.205  19.448  0.00  0.00    +0.000 C 
BRANCH  15  17
ATOM     16  N   UNL     1       1.177   9.085  19.271  0.00  0.00    +0.000 N 
ATOM     17  C   UNL     1       2.041   8.233  18.648  0.00  0.00    +0.000 C 
ATOM     18  O   UNL     1       2.249   8.321  17.447  0.00  0.00    +0.000 OA
ATOM     19  H   UNL     1       1.047   9.005  20.292  0.00  0.00    +0.000 HD
BRANCH  16  20
ATOM     20  C   UNL     1       0.467  10.159  18.596  0.00  0.00    +0.000 C 
BRANCH  20  21
ATOM     21  C   UNL     1      -0.941  10.411  19.173  0.00  0.00    +0.000 C 
BRANCH  21  23
ATOM     22  C   UNL     1      -0.519  12.719  18.466  0.00  0.00    +0.000 C 
ATOM     23  N   UNL     1      -1.541  11.690  18.729  0.00  0.00    +0.000 NA
ATOM     24  C   UNL     1      -2.319  11.456  17.500  0.00  0.00    +0.000 C 
ENDBRANCH  21  23
ENDBRANCH  20  21
ENDBRANCH  16  20
ENDBRANCH  15  17
ENDBRANCH   1  15
TORSDOF 6
ENDMDL
MODEL 7
REMARK VINA RESULT:      -6.9      3.062      4.900
REMARK  Name = 
REMARK  8 active torsions:
REMARK  status: ('A' for Active; 'I' for Inactive)
REMARK    1  A    between atoms: C_1  and  N_2
REMARK    2  A    between atoms: N_2  and  C_3
REMARK    3  A    between atoms: N_2  and  C_4
REMARK    4  A    between atoms: C_4  and  C_5
REMARK    5  A    between atoms: C_5  and  N_6
REMARK    6  A    between atoms: C_7  and  C_9
REMARK    7  A    between atoms: C_9  and  N_10
REMARK    8  A    between atoms: C_18  and  N_19
REMARK                            x       y       z     vdW  Elec       q    Type
REMARK                         _______ _______ _______ _____ _____    ______ ____
ROOT
ATOM      1  N   UNL     1       4.587   5.291  17.689  0.00  0.00    +0.000 N 
ATOM      2  C   UNL     1       5.004   4.034  18.044  0.00  0.00    +0.000 A 
ATOM      3  C   UNL     1       4.443   3.362  19.125  0.00  0.00    +0.000 A 
ATOM      4  C   UNL     1       3.439   3.964  19.870  0.00  0.00    +0.000 A 
ATOM      5  O   UNL     1       2.959   3.365  20.818  0.00  0.00    +0.000 OA
ATOM      6  C   UNL     1       3.002   5.255  19.530  0.00  0.00    +0.000 A 
ATOM      7  C   UNL     1       1.997   5.891  20.280  0.00  0.00    +0.000 A 
ATOM      8  C   UNL     1       1.580   7.177  19.959  0.00  0.00    +0.000 A 
ATOM      9  C   UNL     1       2.156   7.869  18.884  0.00  0.00    +0.000 A 
ATOM     10  C   UNL     1       3.154   7.234  18.121  0.00  0.00    +0.000 A 
ATOM     11  C   UNL     1       3.594   5.923  18.421  0.00  0.00    +0.000 A 
ENDROOT
BRANCH   9  12
ATOM     12  N   UNL     1       1.741   9.201  18.576  0.00  0.00    +0.000 N 
ATOM     13  O   UNL     1       2.009   9.691  17.520  0.00  0.00    +0.000 OA
ATOM     14  O   UNL     1       1.020   9.890  19.433  0.00  0.00    +0.000 OA
ENDBRANCH   9  12
BRANCH   1  15
ATOM     15  C   UNL     1       5.267   5.921  16.534  0.00  0.00    +0.000 C 
BRANCH  15  17
ATOM     16  N   UNL     1       6.859   7.697  17.268  0.00  0.00    +0.000 N 
ATOM     17  C   UNL     1       6.658   6.407  16.873  0.00  0.00    +0.000 C 
ATOM     18  O   UNL     1       7.585   5.612  16.838  0.00  0.00    +0.000 OA
ATOM     19  H   UNL     1       6.049   8.335  17.317  0.00  0.00    +0.000 HD
BRANCH  16  20
ATOM     20  C   UNL     1       8.144   8.224  17.696  0.00  0.00    +0.000 C 
BRANCH  20  21
ATOM     21  C   UNL     1       8.107   9.735  18.004  0.00  0.00    +0.000 C 
BRANCH  21  23
ATOM     22  C   UNL     1       9.775  11.524  17.875  0.00  0.00    +0.000 C 
ATOM     23  N   UNL     1       9.386  10.263  18.531  0.00  0.00    +0.000 NA
ATOM     24  C   UNL     1       9.252  10.493  19.979  0.00  0.00    +0.000 C 
ENDBRANCH  21  23
ENDBRANCH  20  21
ENDBRANCH  16  20
ENDBRANCH  15  17
ENDBRANCH   1  15
TORSDOF 6
ENDMDL
MODEL 8
REMARK VINA RESULT:      -6.8      4.724      5.897
REMARK  Name = 
REMARK  8 active torsions:
REMARK  status: ('A' for Active; 'I' for Inactive)
REMARK    1  A    between atoms: C_1  and  N_2
REMARK    2  A    between atoms: N_2  and  C_3
REMARK    3  A    between atoms: N_2  and  C_4
REMARK    4  A    between atoms: C_4  and  C_5
REMARK    5  A    between atoms: C_5  and  N_6
REMARK    6  A    between atoms: C_7  and  C_9
REMARK    7  A    between atoms: C_9  and  N_10
REMARK    8  A    between atoms: C_18  and  N_19
REMARK                            x       y       z     vdW  Elec       q    Type
REMARK                         _______ _______ _______ _____ _____    ______ ____
ROOT
ATOM      1  N   UNL     1       2.894   5.873  18.656  0.00  0.00    +0.000 N 
ATOM      2  C   UNL     1       1.741   5.224  19.017  0.00  0.00    +0.000 A 
ATOM      3  C   UNL     1       1.465   3.934  18.578  0.00  0.00    +0.000 A 
ATOM      4  C   UNL     1       2.368   3.274  17.756  0.00  0.00    +0.000 A 
ATOM      5  O   UNL     1       2.112   2.144  17.376  0.00  0.00    +0.000 OA
ATOM      6  C   UNL     1       3.552   3.921  17.366  0.00  0.00    +0.000 A 
ATOM      7  C   UNL     1       4.474   3.279  16.520  0.00  0.00    +0.000 A 
ATOM      8  C   UNL     1       5.634   3.927  16.114  0.00  0.00    +0.000 A 
ATOM      9  C   UNL     1       5.908   5.236  16.536  0.00  0.00    +0.000 A 
ATOM     10  C   UNL     1       4.996   5.881  17.392  0.00  0.00    +0.000 A 
ATOM     11  C   UNL     1       3.809   5.244  17.826  0.00  0.00    +0.000 A 
ENDROOT
BRANCH   9  12
ATOM     12  N   UNL     1       7.090   5.905  16.094  0.00  0.00    +0.000 N 
ATOM     13  O   UNL     1       7.622   5.586  15.073  0.00  0.00    +0.000 OA
ATOM     14  O   UNL     1       7.582   6.913  16.781  0.00  0.00    +0.000 OA
ENDBRANCH   9  12
BRANCH   1  15
ATOM     15  C   UNL     1       3.075   7.252  19.164  0.00  0.00    +0.000 C 
BRANCH  15  17
ATOM     16  N   UNL     1       1.273   8.975  19.084  0.00  0.00    +0.000 N 
ATOM     17  C   UNL     1       2.228   8.260  18.423  0.00  0.00    +0.000 C 
ATOM     18  O   UNL     1       2.450   8.460  17.238  0.00  0.00    +0.000 OA
ATOM     19  H   UNL     1       1.132   8.805  20.092  0.00  0.00    +0.000 HD
BRANCH  16  20
ATOM     20  C   UNL     1       0.475  10.025  18.472  0.00  0.00    +0.000 C 
BRANCH  20  21
ATOM     21  C   UNL     1      -0.693  10.495  19.362  0.00  0.00    +0.000 C 
BRANCH  21  23
ATOM     22  C   UNL     1       0.111  11.815  21.264  0.00  0.00    +0.000 C 
ATOM     23  N   UNL     1      -0.500  11.852  19.923  0.00  0.00    +0.000 NA
ATOM     24  C   UNL     1       0.366  12.629  19.019  0.00  0.00    +0.000 C 
ENDBRANCH  21  23
ENDBRANCH  20  21
ENDBRANCH  16  20
ENDBRANCH  15  17
ENDBRANCH   1  15
TORSDOF 6
ENDMDL
MODEL 9
REMARK VINA RESULT:      -6.8      4.628      5.723
REMARK  Name = 
REMARK  8 active torsions:
REMARK  status: ('A' for Active; 'I' for Inactive)
REMARK    1  A    between atoms: C_1  and  N_2
REMARK    2  A    between atoms: N_2  and  C_3
REMARK    3  A    between atoms: N_2  and  C_4
REMARK    4  A    between atoms: C_4  and  C_5
REMARK    5  A    between atoms: C_5  and  N_6
REMARK    6  A    between atoms: C_7  and  C_9
REMARK    7  A    between atoms: C_9  and  N_10
REMARK    8  A    between atoms: C_18  and  N_19
REMARK                            x       y       z     vdW  Elec       q    Type
REMARK                         _______ _______ _______ _____ _____    ______ ____
ROOT
ATOM      1  N   UNL     1       2.616   5.741  19.160  0.00  0.00    +0.000 N 
ATOM      2  C   UNL     1       1.519   4.965  19.439  0.00  0.00    +0.000 A 
ATOM      3  C   UNL     1       1.325   3.734  18.823  0.00  0.00    +0.000 A 
ATOM      4  C   UNL     1       2.253   3.265  17.904  0.00  0.00    +0.000 A 
ATOM      5  O   UNL     1       2.069   2.185  17.369  0.00  0.00    +0.000 OA
ATOM      6  C   UNL     1       3.380   4.045  17.596  0.00  0.00    +0.000 A 
ATOM      7  C   UNL     1       4.325   3.598  16.656  0.00  0.00    +0.000 A 
ATOM      8  C   UNL     1       5.429   4.379  16.333  0.00  0.00    +0.000 A 
ATOM      9  C   UNL     1       5.620   5.631  16.935  0.00  0.00    +0.000 A 
ATOM     10  C   UNL     1       4.683   6.081  17.886  0.00  0.00    +0.000 A 
ATOM     11  C   UNL     1       3.554   5.304  18.238  0.00  0.00    +0.000 A 
ENDROOT
BRANCH   9  12
ATOM     12  N   UNL     1       6.741   6.440  16.579  0.00  0.00    +0.000 N 
ATOM     13  O   UNL     1       6.881   7.527  17.055  0.00  0.00    +0.000 OA
ATOM     14  O   UNL     1       7.660   5.982  15.757  0.00  0.00    +0.000 OA
ENDBRANCH   9  12
BRANCH   1  15
ATOM     15  C   UNL     1       2.712   7.043  19.859  0.00  0.00    +0.000 C 
BRANCH  15  17
ATOM     16  N   UNL     1       1.116   8.954  20.014  0.00  0.00    +0.000 N 
ATOM     17  C   UNL     1       1.840   8.105  19.230  0.00  0.00    +0.000 C 
ATOM     18  O   UNL     1       1.837   8.222  18.013  0.00  0.00    +0.000 OA
ATOM     19  H   UNL     1       1.165   8.849  21.040  0.00  0.00    +0.000 HD
BRANCH  16  20
ATOM     20  C   UNL     1       0.322  10.057  19.499  0.00  0.00    +0.000 C 
BRANCH  20  21
ATOM     21  C   UNL     1       1.087  11.396  19.478  0.00  0.00    +0.000 C 
BRANCH  21  23
ATOM     22  C   UNL     1       1.983  13.283  20.758  0.00  0.00    +0.000 C 
ATOM     23  N   UNL     1       1.296  11.980  20.822  0.00  0.00    +0.000 NA
ATOM     24  C   UNL     1      -0.010  12.155  21.480  0.00  0.00    +0.000 C 
ENDBRANCH  21  23
ENDBRANCH  20  21
ENDBRANCH  16  20
ENDBRANCH  15  17
ENDBRANCH   1  15
TORSDOF 6
ENDMDL
