MODEL 1
REMARK VINA RESULT:      -7.4      0.000      0.000
REMARK  Name = 
REMARK  10 active torsions:
REMARK  status: ('A' for Active; 'I' for Inactive)
REMARK    1  A    between atoms: C_1  and  C_2
REMARK    2  A    between atoms: C_2  and  C_3
REMARK    3  A    between atoms: C_3  and  C_4
REMARK    4  A    between atoms: C_3  and  C_6
REMARK    5  A    between atoms: C_4  and  C_5
REMARK    6  A    between atoms: N_8  and  C_9
REMARK    7  A    between atoms: C_11  and  C_12
REMARK    8  A    between atoms: C_12  and  O_14
REMARK    9  A    between atoms: C_18  and  N_19
REMARK   10  A    between atoms: C_20  and  C_21
REMARK                            x       y       z     vdW  Elec       q    Type
REMARK                         _______ _______ _______ _____ _____    ______ ____
ROOT
ATOM      1  C   UNL     1       5.853   3.966  15.788  0.00  0.00    +0.000 A 
ATOM      2  C   UNL     1       5.399   3.352  14.604  0.00  0.00    +0.000 A 
ATOM      3  C   UNL     1       5.968   3.673  13.356  0.00  0.00    +0.000 A 
ATOM      4  C   UNL     1       7.044   4.535  13.311  0.00  0.00    +0.000 A 
ATOM      5  F   UNL     1       7.636   4.837  12.146  0.00  0.00    +0.000 F 
ATOM      6  C   UNL     1       7.543   5.105  14.469  0.00  0.00    +0.000 A 
ATOM      7  C   UNL     1       6.948   4.867  15.716  0.00  0.00    +0.000 A 
ENDROOT
BRANCH   7   8
ATOM      8  N   UNL     1       7.506   5.456  16.879  0.00  0.00    +0.000 N 
ATOM      9  C   UNL     1       7.267   6.747  17.324  0.00  0.00    +0.000 C 
ATOM     10  C   UNL     1       8.098   7.138  18.513  0.00  0.00    +0.000 C 
ATOM     11  O   UNL     1       6.466   7.550  16.850  0.00  0.00    +0.000 OA
ATOM     12  H   UNL     1       7.942   4.816  17.532  0.00  0.00    +0.000 HD
ENDBRANCH   7   8
BRANCH   1  15
ATOM     13  C   UNL     1       4.146   4.417  17.526  0.00  0.00    +0.000 C 
ATOM     14  O   UNL     1       3.879   5.538  17.108  0.00  0.00    +0.000 OA
ATOM     15  N   UNL     1       5.147   3.620  16.980  0.00  0.00    +0.000 N 
ATOM     16  H   UNL     1       5.015   2.625  17.138  0.00  0.00    +0.000 HD
BRANCH  13  17
ATOM     17  C   UNL     1       3.399   3.774  18.719  0.00  0.00    +0.000 C 
BRANCH  17  19
ATOM     18  C   UNL     1       1.087   3.942  19.856  0.00  0.00    +0.000 C 
ATOM     19  C   UNL     1       1.881   3.983  18.554  0.00  0.00    +0.000 C 
ENDBRANCH  17  19
BRANCH  17  20
ATOM     20  C   UNL     1       3.804   2.300  18.961  0.00  0.00    +0.000 C 
ATOM     21  C   UNL     1       4.502   1.994  20.282  0.00  0.00    +0.000 C 
ENDBRANCH  17  20
ENDBRANCH  13  17
ENDBRANCH   1  15
BRANCH   3  22
ATOM     22  C   UNL     1       5.390   3.086  12.123  0.00  0.00    +0.000 C 
ATOM     23  O   UNL     1       4.429   3.595  11.569  0.00  0.00    +0.000 OA
BRANCH  22  24
ATOM     24  O   UNL     1       5.990   1.977  11.646  0.00  0.00    +0.000 OA
ATOM     25  H   UNL     1       5.873   1.156  12.175  0.00  0.00    +0.000 HD
ENDBRANCH  22  24
ENDBRANCH   3  22
TORSDOF 7
ENDMDL
MODEL 2
REMARK VINA RESULT:      -7.4      1.250      1.510
REMARK  Name = 
REMARK  10 active torsions:
REMARK  status: ('A' for Active; 'I' for Inactive)
REMARK    1  A    between atoms: C_1  and  C_2
REMARK    2  A    between atoms: C_2  and  C_3
REMARK    3  A    between atoms: C_3  and  C_4
REMARK    4  A    between atoms: C_3  and  C_6
REMARK    5  A    between atoms: C_4  and  C_5
REMARK    6  A    between atoms: N_8  and  C_9
REMARK    7  A    between atoms: C_11  and  C_12
REMARK    8  A    between atoms: C_12  and  O_14
REMARK    9  A    between atoms: C_18  and  N_19
REMARK   10  A    between atoms: C_20  and  C_21
REMARK                            x       y       z     vdW  Elec       q    Type
REMARK                         _______ _______ _______ _____ _____    ______ ____
ROOT
ATOM      1  C   UNL     1       5.653   4.335  15.588  0.00  0.00    +0.000 A 
ATOM      2  C   UNL     1       5.283   3.554  14.475  0.00  0.00    +0.000 A 
ATOM      3  C   UNL     1       5.928   3.709  13.232  0.00  0.00    +0.000 A 
ATOM      4  C   UNL     1       6.996   4.576  13.135  0.00  0.00    +0.000 A 
ATOM      5  F   UNL     1       7.660   4.724  11.978  0.00  0.00    +0.000 F 
ATOM      6  C   UNL     1       7.413   5.311  14.231  0.00  0.00    +0.000 A 
ATOM      7  C   UNL     1       6.741   5.237  15.459  0.00  0.00    +0.000 A 
ENDROOT
BRANCH   7   8
ATOM      8  N   UNL     1       7.217   5.993  16.561  0.00  0.00    +0.000 N 
ATOM      9  C   UNL     1       7.637   5.472  17.775  0.00  0.00    +0.000 C 
ATOM     10  C   UNL     1       7.964   6.521  18.800  0.00  0.00    +0.000 C 
ATOM     11  O   UNL     1       7.763   4.283  18.060  0.00  0.00    +0.000 OA
ATOM     12  H   UNL     1       7.456   6.957  16.365  0.00  0.00    +0.000 HD
ENDBRANCH   7   8
BRANCH   1  15
ATOM     13  C   UNL     1       4.122   5.159  17.353  0.00  0.00    +0.000 C 
ATOM     14  O   UNL     1       4.168   6.325  16.981  0.00  0.00    +0.000 OA
ATOM     15  N   UNL     1       4.874   4.144  16.770  0.00  0.00    +0.000 N 
ATOM     16  H   UNL     1       4.480   3.216  16.889  0.00  0.00    +0.000 HD
BRANCH  13  17
ATOM     17  C   UNL     1       3.225   4.693  18.524  0.00  0.00    +0.000 C 
BRANCH  17  19
ATOM     18  C   UNL     1       1.893   5.677  20.505  0.00  0.00    +0.000 C 
ATOM     19  C   UNL     1       3.064   5.839  19.542  0.00  0.00    +0.000 C 
ENDBRANCH  17  19
BRANCH  17  20
ATOM     20  C   UNL     1       1.883   4.083  18.052  0.00  0.00    +0.000 C 
ATOM     21  C   UNL     1       1.727   2.574  18.214  0.00  0.00    +0.000 C 
ENDBRANCH  17  20
ENDBRANCH  13  17
ENDBRANCH   1  15
BRANCH   3  22
ATOM     22  C   UNL     1       5.437   2.945  12.060  0.00  0.00    +0.000 C 
ATOM     23  O   UNL     1       4.420   3.273  11.470  0.00  0.00    +0.000 OA
BRANCH  22  24
ATOM     24  O   UNL     1       6.180   1.886  11.677  0.00  0.00    +0.000 OA
ATOM     25  H   UNL     1       5.693   1.046  11.524  0.00  0.00    +0.000 HD
ENDBRANCH  22  24
ENDBRANCH   3  22
TORSDOF 7
ENDMDL
MODEL 3
REMARK VINA RESULT:      -7.3      1.039      1.053
REMARK  Name = 
REMARK  10 active torsions:
REMARK  status: ('A' for Active; 'I' for Inactive)
REMARK    1  A    between atoms: C_1  and  C_2
REMARK    2  A    between atoms: C_2  and  C_3
REMARK    3  A    between atoms: C_3  and  C_4
REMARK    4  A    between atoms: C_3  and  C_6
REMARK    5  A    between atoms: C_4  and  C_5
REMARK    6  A    between atoms: N_8  and  C_9
REMARK    7  A    between atoms: C_11  and  C_12
REMARK    8  A    between atoms: C_12  and  O_14
REMARK    9  A    between atoms: C_18  and  N_19
REMARK   10  A    between atoms: C_20  and  C_21
REMARK                            x       y       z     vdW  Elec       q    Type
REMARK                         _______ _______ _______ _____ _____    ______ ____
ROOT
ATOM      1  C   UNL     1       5.788   4.088  15.667  0.00  0.00    +0.000 A 
ATOM      2  C   UNL     1       5.495   3.367  14.493  0.00  0.00    +0.000 A 
ATOM      3  C   UNL     1       6.110   3.693  13.268  0.00  0.00    +0.000 A 
ATOM      4  C   UNL     1       7.079   4.674  13.244  0.00  0.00    +0.000 A 
ATOM      5  F   UNL     1       7.714   4.988  12.105  0.00  0.00    +0.000 F 
ATOM      6  C   UNL     1       7.424   5.356  14.398  0.00  0.00    +0.000 A 
ATOM      7  C   UNL     1       6.773   5.109  15.615  0.00  0.00    +0.000 A 
ENDROOT
BRANCH   7   8
ATOM      8  N   UNL     1       7.174   5.816  16.777  0.00  0.00    +0.000 N 
ATOM      9  C   UNL     1       7.734   5.252  17.913  0.00  0.00    +0.000 C 
ATOM     10  C   UNL     1       7.938   6.231  19.035  0.00  0.00    +0.000 C 
ATOM     11  O   UNL     1       8.066   4.078  18.062  0.00  0.00    +0.000 OA
ATOM     12  H   UNL     1       7.244   6.822  16.679  0.00  0.00    +0.000 HD
ENDBRANCH   7   8
BRANCH   1  15
ATOM     13  C   UNL     1       4.104   4.554  17.424  0.00  0.00    +0.000 C 
ATOM     14  O   UNL     1       3.934   5.719  17.084  0.00  0.00    +0.000 OA
ATOM     15  N   UNL     1       5.043   3.718  16.828  0.00  0.00    +0.000 N 
ATOM     16  H   UNL     1       4.831   2.728  16.915  0.00  0.00    +0.000 HD
BRANCH  13  17
ATOM     17  C   UNL     1       3.296   3.891  18.565  0.00  0.00    +0.000 C 
BRANCH  17  19
ATOM     18  C   UNL     1       0.964   2.784  18.613  0.00  0.00    +0.000 C 
ATOM     19  C   UNL     1       1.788   4.023  18.275  0.00  0.00    +0.000 C 
ENDBRANCH  17  19
BRANCH  17  20
ATOM     20  C   UNL     1       3.751   2.443  18.865  0.00  0.00    +0.000 C 
ATOM     21  C   UNL     1       4.430   2.208  20.211  0.00  0.00    +0.000 C 
ENDBRANCH  17  20
ENDBRANCH  13  17
ENDBRANCH   1  15
BRANCH   3  22
ATOM     22  C   UNL     1       5.694   2.981  12.036  0.00  0.00    +0.000 C 
ATOM     23  O   UNL     1       4.661   3.271  11.454  0.00  0.00    +0.000 OA
BRANCH  22  24
ATOM     24  O   UNL     1       6.522   2.014  11.590  0.00  0.00    +0.000 OA
ATOM     25  H   UNL     1       6.566   1.195  12.133  0.00  0.00    +0.000 HD
ENDBRANCH  22  24
ENDBRANCH   3  22
TORSDOF 7
ENDMDL
MODEL 4
REMARK VINA RESULT:      -7.3      4.398      7.302
REMARK  Name = 
REMARK  10 active torsions:
REMARK  status: ('A' for Active; 'I' for Inactive)
REMARK    1  A    between atoms: C_1  and  C_2
REMARK    2  A    between atoms: C_2  and  C_3
REMARK    3  A    between atoms: C_3  and  C_4
REMARK    4  A    between atoms: C_3  and  C_6
REMARK    5  A    between atoms: C_4  and  C_5
REMARK    6  A    between atoms: N_8  and  C_9
REMARK    7  A    between atoms: C_11  and  C_12
REMARK    8  A    between atoms: C_12  and  O_14
REMARK    9  A    between atoms: C_18  and  N_19
REMARK   10  A    between atoms: C_20  and  C_21
REMARK                            x       y       z     vdW  Elec       q    Type
REMARK                         _______ _______ _______ _____ _____    ______ ____
ROOT
ATOM      1  C   UNL     1       2.443   6.624  18.894  0.00  0.00    +0.000 A 
ATOM      2  C   UNL     1       2.274   7.874  18.265  0.00  0.00    +0.000 A 
ATOM      3  C   UNL     1       1.655   8.946  18.936  0.00  0.00    +0.000 A 
ATOM      4  C   UNL     1       1.292   8.791  20.257  0.00  0.00    +0.000 A 
ATOM      5  F   UNL     1       0.733   9.800  20.942  0.00  0.00    +0.000 F 
ATOM      6  C   UNL     1       1.501   7.589  20.912  0.00  0.00    +0.000 A 
ATOM      7  C   UNL     1       2.042   6.480  20.248  0.00  0.00    +0.000 A 
ENDROOT
BRANCH   7   8
ATOM      8  N   UNL     1       2.258   5.275  20.964  0.00  0.00    +0.000 N 
ATOM      9  C   UNL     1       1.603   4.074  20.740  0.00  0.00    +0.000 C 
ATOM     10  C   UNL     1       1.945   3.005  21.739  0.00  0.00    +0.000 C 
ATOM     11  O   UNL     1       0.812   3.828  19.832  0.00  0.00    +0.000 OA
ATOM     12  H   UNL     1       3.094   5.245  21.535  0.00  0.00    +0.000 HD
ENDBRANCH   7   8
BRANCH   1  15
ATOM     13  C   UNL     1       4.253   5.021  18.350  0.00  0.00    +0.000 C 
ATOM     14  O   UNL     1       5.014   5.443  19.212  0.00  0.00    +0.000 OA
ATOM     15  N   UNL     1       3.011   5.592  18.086  0.00  0.00    +0.000 N 
ATOM     16  H   UNL     1       2.347   4.956  17.656  0.00  0.00    +0.000 HD
BRANCH  13  17
ATOM     17  C   UNL     1       4.599   3.810  17.453  0.00  0.00    +0.000 C 
BRANCH  17  19
ATOM     18  C   UNL     1       3.449   1.693  18.383  0.00  0.00    +0.000 C 
ATOM     19  C   UNL     1       3.395   2.850  17.391  0.00  0.00    +0.000 C 
ENDBRANCH  17  19
BRANCH  17  20
ATOM     20  C   UNL     1       5.143   4.222  16.064  0.00  0.00    +0.000 C 
ATOM     21  C   UNL     1       6.653   4.402  15.950  0.00  0.00    +0.000 C 
ENDBRANCH  17  20
ENDBRANCH  13  17
ENDBRANCH   1  15
BRANCH   3  22
ATOM     22  C   UNL     1       1.400  10.209  18.202  0.00  0.00    +0.000 C 
ATOM     23  O   UNL     1       2.299  11.003  17.976  0.00  0.00    +0.000 OA
BRANCH  22  24
ATOM     24  O   UNL     1       0.134  10.421  17.790  0.00  0.00    +0.000 OA
ATOM     25  H   UNL     1      -0.385  11.082  18.300  0.00  0.00    +0.000 HD
ENDBRANCH  22  24
ENDBRANCH   3  22
TORSDOF 7
ENDMDL
MODEL 5
REMARK VINA RESULT:      -7.2      0.590      1.368
REMARK  Name = 
REMARK  10 active torsions:
REMARK  status: ('A' for Active; 'I' for Inactive)
REMARK    1  A    between atoms: C_1  and  C_2
REMARK    2  A    between atoms: C_2  and  C_3
REMARK    3  A    between atoms: C_3  and  C_4
REMARK    4  A    between atoms: C_3  and  C_6
REMARK    5  A    between atoms: C_4  and  C_5
REMARK    6  A    between atoms: N_8  and  C_9
REMARK    7  A    between atoms: C_11  and  C_12
REMARK    8  A    between atoms: C_12  and  O_14
REMARK    9  A    between atoms: C_18  and  N_19
REMARK   10  A    between atoms: C_20  and  C_21
REMARK                            x       y       z     vdW  Elec       q    Type
REMARK                         _______ _______ _______ _____ _____    ______ ____
ROOT
ATOM      1  C   UNL     1       5.846   4.054  15.798  0.00  0.00    +0.000 A 
ATOM      2  C   UNL     1       5.389   3.433  14.619  0.00  0.00    +0.000 A 
ATOM      3  C   UNL     1       5.979   3.718  13.372  0.00  0.00    +0.000 A 
ATOM      4  C   UNL     1       7.078   4.549  13.325  0.00  0.00    +0.000 A 
ATOM      5  F   UNL     1       7.692   4.815  12.162  0.00  0.00    +0.000 F 
ATOM      6  C   UNL     1       7.581   5.125  14.479  0.00  0.00    +0.000 A 
ATOM      7  C   UNL     1       6.966   4.923  15.723  0.00  0.00    +0.000 A 
ENDROOT
BRANCH   7   8
ATOM      8  N   UNL     1       7.527   5.515  16.882  0.00  0.00    +0.000 N 
ATOM      9  C   UNL     1       7.296   6.811  17.320  0.00  0.00    +0.000 C 
ATOM     10  C   UNL     1       8.129   7.204  18.507  0.00  0.00    +0.000 C 
ATOM     11  O   UNL     1       6.500   7.615  16.842  0.00  0.00    +0.000 OA
ATOM     12  H   UNL     1       7.960   4.877  17.539  0.00  0.00    +0.000 HD
ENDBRANCH   7   8
BRANCH   1  15
ATOM     13  C   UNL     1       4.144   4.586  17.518  0.00  0.00    +0.000 C 
ATOM     14  O   UNL     1       3.924   5.712  17.087  0.00  0.00    +0.000 OA
ATOM     15  N   UNL     1       5.118   3.746  16.987  0.00  0.00    +0.000 N 
ATOM     16  H   UNL     1       4.947   2.758  17.153  0.00  0.00    +0.000 HD
BRANCH  13  17
ATOM     17  C   UNL     1       3.365   3.983  18.710  0.00  0.00    +0.000 C 
BRANCH  17  19
ATOM     18  C   UNL     1       3.488   1.404  18.679  0.00  0.00    +0.000 C 
ATOM     19  C   UNL     1       4.078   2.709  19.204  0.00  0.00    +0.000 C 
ENDBRANCH  17  19
BRANCH  17  20
ATOM     20  C   UNL     1       3.080   5.014  19.829  0.00  0.00    +0.000 C 
ATOM     21  C   UNL     1       2.274   4.516  21.024  0.00  0.00    +0.000 C 
ENDBRANCH  17  20
ENDBRANCH  13  17
ENDBRANCH   1  15
BRANCH   3  22
ATOM     22  C   UNL     1       5.398   3.126  12.143  0.00  0.00    +0.000 C 
ATOM     23  O   UNL     1       4.442   3.638  11.583  0.00  0.00    +0.000 OA
BRANCH  22  24
ATOM     24  O   UNL     1       5.992   2.009  11.674  0.00  0.00    +0.000 OA
ATOM     25  H   UNL     1       5.391   1.302  11.349  0.00  0.00    +0.000 HD
ENDBRANCH  22  24
ENDBRANCH   3  22
TORSDOF 7
ENDMDL
MODEL 6
REMARK VINA RESULT:      -7.2      1.281      1.641
REMARK  Name = 
REMARK  10 active torsions:
REMARK  status: ('A' for Active; 'I' for Inactive)
REMARK    1  A    between atoms: C_1  and  C_2
REMARK    2  A    between atoms: C_2  and  C_3
REMARK    3  A    between atoms: C_3  and  C_4
REMARK    4  A    between atoms: C_3  and  C_6
REMARK    5  A    between atoms: C_4  and  C_5
REMARK    6  A    between atoms: N_8  and  C_9
REMARK    7  A    between atoms: C_11  and  C_12
REMARK    8  A    between atoms: C_12  and  O_14
REMARK    9  A    between atoms: C_18  and  N_19
REMARK   10  A    between atoms: C_20  and  C_21
REMARK                            x       y       z     vdW  Elec       q    Type
REMARK                         _______ _______ _______ _____ _____    ______ ____
ROOT
ATOM      1  C   UNL     1       5.560   4.023  15.814  0.00  0.00    +0.000 A 
ATOM      2  C   UNL     1       5.311   3.387  14.582  0.00  0.00    +0.000 A 
ATOM      3  C   UNL     1       6.017   3.756  13.419  0.00  0.00    +0.000 A 
ATOM      4  C   UNL     1       7.025   4.691  13.516  0.00  0.00    +0.000 A 
ATOM      5  F   UNL     1       7.745   5.042  12.439  0.00  0.00    +0.000 F 
ATOM      6  C   UNL     1       7.325   5.287  14.728  0.00  0.00    +0.000 A 
ATOM      7  C   UNL     1       6.589   4.999  15.886  0.00  0.00    +0.000 A 
ENDROOT
BRANCH   7   8
ATOM      8  N   UNL     1       6.944   5.617  17.111  0.00  0.00    +0.000 N 
ATOM      9  C   UNL     1       7.803   5.088  18.063  0.00  0.00    +0.000 C 
ATOM     10  C   UNL     1       7.889   5.909  19.319  0.00  0.00    +0.000 C 
ATOM     11  O   UNL     1       8.468   4.060  17.961  0.00  0.00    +0.000 OA
ATOM     12  H   UNL     1       6.715   6.600  17.193  0.00  0.00    +0.000 HD
ENDBRANCH   7   8
BRANCH   1  15
ATOM     13  C   UNL     1       3.829   4.479  17.528  0.00  0.00    +0.000 C 
ATOM     14  O   UNL     1       3.771   5.679  17.287  0.00  0.00    +0.000 OA
ATOM     15  N   UNL     1       4.728   3.620  16.903  0.00  0.00    +0.000 N 
ATOM     16  H   UNL     1       4.432   2.648  16.891  0.00  0.00    +0.000 HD
BRANCH  13  17
ATOM     17  C   UNL     1       2.912   3.792  18.567  0.00  0.00    +0.000 C 
BRANCH  17  19
ATOM     18  C   UNL     1       2.189   4.920  20.775  0.00  0.00    +0.000 C 
ATOM     19  C   UNL     1       2.030   4.851  19.260  0.00  0.00    +0.000 C 
ENDBRANCH  17  19
BRANCH  17  20
ATOM     20  C   UNL     1       2.115   2.604  17.978  0.00  0.00    +0.000 C 
ATOM     21  C   UNL     1       0.822   2.228  18.696  0.00  0.00    +0.000 C 
ENDBRANCH  17  20
ENDBRANCH  13  17
ENDBRANCH   1  15
BRANCH   3  22
ATOM     22  C   UNL     1       5.649   3.138  12.123  0.00  0.00    +0.000 C 
ATOM     23  O   UNL     1       6.411   2.379  11.544  0.00  0.00    +0.000 OA
BRANCH  22  24
ATOM     24  O   UNL     1       4.431   3.445  11.632  0.00  0.00    +0.000 OA
ATOM     25  H   UNL     1       3.769   3.766  12.284  0.00  0.00    +0.000 HD
ENDBRANCH  22  24
ENDBRANCH   3  22
TORSDOF 7
ENDMDL
MODEL 7
REMARK VINA RESULT:      -7.1      1.307      1.616
REMARK  Name = 
REMARK  10 active torsions:
REMARK  status: ('A' for Active; 'I' for Inactive)
REMARK    1  A    between atoms: C_1  and  C_2
REMARK    2  A    between atoms: C_2  and  C_3
REMARK    3  A    between atoms: C_3  and  C_4
REMARK    4  A    between atoms: C_3  and  C_6
REMARK    5  A    between atoms: C_4  and  C_5
REMARK    6  A    between atoms: N_8  and  C_9
REMARK    7  A    between atoms: C_11  and  C_12
REMARK    8  A    between atoms: C_12  and  O_14
REMARK    9  A    between atoms: C_18  and  N_19
REMARK   10  A    between atoms: C_20  and  C_21
REMARK                            x       y       z     vdW  Elec       q    Type
REMARK                         _______ _______ _______ _____ _____    ______ ____
ROOT
ATOM      1  C   UNL     1       5.296   4.233  15.761  0.00  0.00    +0.000 A 
ATOM      2  C   UNL     1       4.994   3.570  14.556  0.00  0.00    +0.000 A 
ATOM      3  C   UNL     1       5.783   3.759  13.405  0.00  0.00    +0.000 A 
ATOM      4  C   UNL     1       6.919   4.537  13.492  0.00  0.00    +0.000 A 
ATOM      5  F   UNL     1       7.717   4.711  12.427  0.00  0.00    +0.000 F 
ATOM      6  C   UNL     1       7.266   5.152  14.682  0.00  0.00    +0.000 A 
ATOM      7  C   UNL     1       6.458   5.047  15.822  0.00  0.00    +0.000 A 
ENDROOT
BRANCH   7   8
ATOM      8  N   UNL     1       6.864   5.676  17.026  0.00  0.00    +0.000 N 
ATOM      9  C   UNL     1       7.732   5.140  17.965  0.00  0.00    +0.000 C 
ATOM     10  C   UNL     1       7.875   5.980  19.202  0.00  0.00    +0.000 C 
ATOM     11  O   UNL     1       8.364   4.092  17.865  0.00  0.00    +0.000 OA
ATOM     12  H   UNL     1       6.664   6.667  17.095  0.00  0.00    +0.000 HD
ENDBRANCH   7   8
BRANCH   1  15
ATOM     13  C   UNL     1       3.673   5.059  17.442  0.00  0.00    +0.000 C 
ATOM     14  O   UNL     1       3.877   6.242  17.197  0.00  0.00    +0.000 OA
ATOM     15  N   UNL     1       4.377   4.024  16.835  0.00  0.00    +0.000 N 
ATOM     16  H   UNL     1       3.881   3.138  16.820  0.00  0.00    +0.000 HD
BRANCH  13  17
ATOM     17  C   UNL     1       2.611   4.592  18.465  0.00  0.00    +0.000 C 
BRANCH  17  19
ATOM     18  C   UNL     1       1.420   2.301  18.504  0.00  0.00    +0.000 C 
ATOM     19  C   UNL     1       2.727   3.069  18.674  0.00  0.00    +0.000 C 
ENDBRANCH  17  19
BRANCH  17  20
ATOM     20  C   UNL     1       2.640   5.407  19.781  0.00  0.00    +0.000 C 
ATOM     21  C   UNL     1       2.231   4.666  21.050  0.00  0.00    +0.000 C 
ENDBRANCH  17  20
ENDBRANCH  13  17
ENDBRANCH   1  15
BRANCH   3  22
ATOM     22  C   UNL     1       5.369   3.127  12.129  0.00  0.00    +0.000 C 
ATOM     23  O   UNL     1       4.412   3.544  11.497  0.00  0.00    +0.000 OA
BRANCH  22  24
ATOM     24  O   UNL     1       6.113   2.085  11.704  0.00  0.00    +0.000 OA
ATOM     25  H   UNL     1       6.051   1.261  12.236  0.00  0.00    +0.000 HD
ENDBRANCH  22  24
ENDBRANCH   3  22
TORSDOF 7
ENDMDL
MODEL 8
REMARK VINA RESULT:      -7.1      3.011      5.931
REMARK  Name = 
REMARK  10 active torsions:
REMARK  status: ('A' for Active; 'I' for Inactive)
REMARK    1  A    between atoms: C_1  and  C_2
REMARK    2  A    between atoms: C_2  and  C_3
REMARK    3  A    between atoms: C_3  and  C_4
REMARK    4  A    between atoms: C_3  and  C_6
REMARK    5  A    between atoms: C_4  and  C_5
REMARK    6  A    between atoms: N_8  and  C_9
REMARK    7  A    between atoms: C_11  and  C_12
REMARK    8  A    between atoms: C_12  and  O_14
REMARK    9  A    between atoms: C_18  and  N_19
REMARK   10  A    between atoms: C_20  and  C_21
REMARK                            x       y       z     vdW  Elec       q    Type
REMARK                         _______ _______ _______ _____ _____    ______ ____
ROOT
ATOM      1  C   UNL     1       4.791   4.808  16.617  0.00  0.00    +0.000 A 
ATOM      2  C   UNL     1       3.917   3.738  16.892  0.00  0.00    +0.000 A 
ATOM      3  C   UNL     1       3.508   3.455  18.210  0.00  0.00    +0.000 A 
ATOM      4  C   UNL     1       3.902   4.296  19.229  0.00  0.00    +0.000 A 
ATOM      5  F   UNL     1       3.504   4.081  20.493  0.00  0.00    +0.000 F 
ATOM      6  C   UNL     1       4.714   5.387  18.973  0.00  0.00    +0.000 A 
ATOM      7  C   UNL     1       5.201   5.649  17.685  0.00  0.00    +0.000 A 
ENDROOT
BRANCH   7   8
ATOM      8  N   UNL     1       6.013   6.790  17.464  0.00  0.00    +0.000 N 
ATOM      9  C   UNL     1       7.299   6.972  17.952  0.00  0.00    +0.000 C 
ATOM     10  C   UNL     1       7.864   8.335  17.666  0.00  0.00    +0.000 C 
ATOM     11  O   UNL     1       7.977   6.148  18.561  0.00  0.00    +0.000 OA
ATOM     12  H   UNL     1       5.705   7.416  16.731  0.00  0.00    +0.000 HD
ENDBRANCH   7   8
BRANCH   1  15
ATOM     13  C   UNL     1       6.499   4.712  14.824  0.00  0.00    +0.000 C 
ATOM     14  O   UNL     1       7.429   4.496  15.592  0.00  0.00    +0.000 OA
ATOM     15  N   UNL     1       5.196   4.947  15.254  0.00  0.00    +0.000 N 
ATOM     16  H   UNL     1       4.486   4.729  14.562  0.00  0.00    +0.000 HD
BRANCH  13  17
ATOM     17  C   UNL     1       6.679   4.756  13.288  0.00  0.00    +0.000 C 
BRANCH  17  19
ATOM     18  C   UNL     1       8.128   6.196  11.709  0.00  0.00    +0.000 C 
ATOM     19  C   UNL     1       8.078   5.305  12.946  0.00  0.00    +0.000 C 
ENDBRANCH  17  19
BRANCH  17  20
ATOM     20  C   UNL     1       6.352   3.408  12.602  0.00  0.00    +0.000 C 
ATOM     21  C   UNL     1       5.016   3.323  11.871  0.00  0.00    +0.000 C 
ENDBRANCH  17  20
ENDBRANCH  13  17
ENDBRANCH   1  15
BRANCH   3  22
ATOM     22  C   UNL     1       2.675   2.256  18.469  0.00  0.00    +0.000 C 
ATOM     23  O   UNL     1       1.479   2.351  18.692  0.00  0.00    +0.000 OA
BRANCH  22  24
ATOM     24  O   UNL     1       3.305   1.064  18.428  0.00  0.00    +0.000 OA
ATOM     25  H   UNL     1       3.862   0.840  19.207  0.00  0.00    +0.000 HD
ENDBRANCH  22  24
ENDBRANCH   3  22
TORSDOF 7
ENDMDL
MODEL 9
REMARK VINA RESULT:      -7.1      0.777      1.189
REMARK  Name = 
REMARK  10 active torsions:
REMARK  status: ('A' for Active; 'I' for Inactive)
REMARK    1  A    between atoms: C_1  and  C_2
REMARK    2  A    between atoms: C_2  and  C_3
REMARK    3  A    between atoms: C_3  and  C_4
REMARK    4  A    between atoms: C_3  and  C_6
REMARK    5  A    between atoms: C_4  and  C_5
REMARK    6  A    between atoms: N_8  and  C_9
REMARK    7  A    between atoms: C_11  and  C_12
REMARK    8  A    between atoms: C_12  and  O_14
REMARK    9  A    between atoms: C_18  and  N_19
REMARK   10  A    between atoms: C_20  and  C_21
REMARK                            x       y       z     vdW  Elec       q    Type
REMARK                         _______ _______ _______ _____ _____    ______ ____
ROOT
ATOM      1  C   UNL     1       5.768   3.935  15.674  0.00  0.00    +0.000 A 
ATOM      2  C   UNL     1       5.333   3.340  14.473  0.00  0.00    +0.000 A 
ATOM      3  C   UNL     1       5.947   3.653  13.244  0.00  0.00    +0.000 A 
ATOM      4  C   UNL     1       7.047   4.485  13.237  0.00  0.00    +0.000 A 
ATOM      5  F   UNL     1       7.682   4.777  12.092  0.00  0.00    +0.000 F 
ATOM      6  C   UNL     1       7.526   5.035  14.413  0.00  0.00    +0.000 A 
ATOM      7  C   UNL     1       6.888   4.806  15.640  0.00  0.00    +0.000 A 
ENDROOT
BRANCH   7   8
ATOM      8  N   UNL     1       7.427   5.373  16.823  0.00  0.00    +0.000 N 
ATOM      9  C   UNL     1       7.243   6.680  17.248  0.00  0.00    +0.000 C 
ATOM     10  C   UNL     1       8.041   7.034  18.471  0.00  0.00    +0.000 C 
ATOM     11  O   UNL     1       6.512   7.523  16.733  0.00  0.00    +0.000 OA
ATOM     12  H   UNL     1       7.796   4.716  17.499  0.00  0.00    +0.000 HD
ENDBRANCH   7   8
BRANCH   1  15
ATOM     13  C   UNL     1       4.057   4.444  17.392  0.00  0.00    +0.000 C 
ATOM     14  O   UNL     1       3.870   5.591  17.002  0.00  0.00    +0.000 OA
ATOM     15  N   UNL     1       5.017   3.601  16.842  0.00  0.00    +0.000 N 
ATOM     16  H   UNL     1       4.821   2.612  16.969  0.00  0.00    +0.000 HD
BRANCH  13  17
ATOM     17  C   UNL     1       3.248   3.817  18.552  0.00  0.00    +0.000 C 
BRANCH  17  19
ATOM     18  C   UNL     1       2.552   5.697  20.179  0.00  0.00    +0.000 C 
ATOM     19  C   UNL     1       2.153   4.800  19.012  0.00  0.00    +0.000 C 
ENDBRANCH  17  19
BRANCH  17  20
ATOM     20  C   UNL     1       2.718   2.401  18.221  0.00  0.00    +0.000 C 
ATOM     21  C   UNL     1       1.317   2.064  18.723  0.00  0.00    +0.000 C 
ENDBRANCH  17  20
ENDBRANCH  13  17
ENDBRANCH   1  15
BRANCH   3  22
ATOM     22  C   UNL     1       5.390   3.088  11.991  0.00  0.00    +0.000 C 
ATOM     23  O   UNL     1       5.902   2.121  11.450  0.00  0.00    +0.000 OA
BRANCH  22  24
ATOM     24  O   UNL     1       4.288   3.688  11.498  0.00  0.00    +0.000 OA
ATOM     25  H   UNL     1       3.507   3.720  12.095  0.00  0.00    +0.000 HD
ENDBRANCH  22  24
ENDBRANCH   3  22
TORSDOF 7
ENDMDL
