MODEL 1
REMARK VINA RESULT:      -7.1      0.000      0.000
REMARK  Name = 
REMARK  1 active torsions:
REMARK  status: ('A' for Active; 'I' for Inactive)
REMARK    1  A    between atoms: C_4  and  C_5
REMARK                            x       y       z     vdW  Elec       q    Type
REMARK                         _______ _______ _______ _____ _____    ______ ____
ROOT
ATOM      1  C   UNL     1       4.723   4.151  18.270  0.00  0.00    +0.000 A 
ATOM      2  C   UNL     1       5.880   4.759  18.744  0.00  0.00    +0.000 A 
ATOM      3  C   UNL     1       6.998   4.793  17.950  0.00  0.00    +0.000 A 
ATOM      4  C   UNL     1       6.760   4.742  16.585  0.00  0.00    +0.000 A 
ATOM      5  N   UNL     1       7.418   5.325  15.527  0.00  0.00    +0.000 N 
ATOM      6  C   UNL     1       6.846   4.917  14.351  0.00  0.00    +0.000 A 
ATOM      7  C   UNL     1       5.835   4.030  14.661  0.00  0.00    +0.000 A 
ATOM      8  C   UNL     1       5.653   4.069  16.068  0.00  0.00    +0.000 A 
ATOM      9  C   UNL     1       4.685   3.600  16.964  0.00  0.00    +0.000 A 
ATOM     10  H   UNL     1       8.096   6.071  15.619  0.00  0.00    +0.000 HD
ENDROOT
BRANCH   1  14
ATOM     11  O   UNL     1       2.521   2.610  22.027  0.00  0.00    +0.000 OA
ATOM     12  C   UNL     1       2.683   3.246  20.996  0.00  0.00    +0.000 A 
ATOM     13  O   UNL     1       3.798   3.236  20.237  0.00  0.00    +0.000 OA
ATOM     14  C   UNL     1       3.571   4.090  19.220  0.00  0.00    +0.000 A 
ATOM     15  N   UNL     1       2.473   4.715  19.021  0.00  0.00    +0.000 NA
ATOM     16  S   UNL     1       1.461   4.297  20.314  0.00  0.00    +0.000 S 
ENDBRANCH   1  14
TORSDOF 1
ENDMDL
MODEL 2
REMARK VINA RESULT:      -7.1      1.143      1.143
REMARK  Name = 
REMARK  1 active torsions:
REMARK  status: ('A' for Active; 'I' for Inactive)
REMARK    1  A    between atoms: C_4  and  C_5
REMARK                            x       y       z     vdW  Elec       q    Type
REMARK                         _______ _______ _______ _____ _____    ______ ____
ROOT
ATOM      1  C   UNL     1       4.793   4.341  17.996  0.00  0.00    +0.000 A 
ATOM      2  C   UNL     1       6.012   4.808  18.474  0.00  0.00    +0.000 A 
ATOM      3  C   UNL     1       7.128   4.711  17.682  0.00  0.00    +0.000 A 
ATOM      4  C   UNL     1       6.889   4.691  16.316  0.00  0.00    +0.000 A 
ATOM      5  N   UNL     1       7.613   5.195  15.261  0.00  0.00    +0.000 N 
ATOM      6  C   UNL     1       6.999   4.860  14.083  0.00  0.00    +0.000 A 
ATOM      7  C   UNL     1       5.891   4.097  14.390  0.00  0.00    +0.000 A 
ATOM      8  C   UNL     1       5.711   4.155  15.796  0.00  0.00    +0.000 A 
ATOM      9  C   UNL     1       4.693   3.801  16.689  0.00  0.00    +0.000 A 
ATOM     10  H   UNL     1       8.374   5.855  15.356  0.00  0.00    +0.000 HD
ENDROOT
BRANCH   1  14
ATOM     11  O   UNL     1       0.725   2.962  19.695  0.00  0.00    +0.000 OA
ATOM     12  C   UNL     1       1.728   3.652  19.590  0.00  0.00    +0.000 A 
ATOM     13  O   UNL     1       2.723   3.458  18.700  0.00  0.00    +0.000 OA
ATOM     14  C   UNL     1       3.639   4.414  18.944  0.00  0.00    +0.000 A 
ATOM     15  N   UNL     1       3.516   5.342  19.816  0.00  0.00    +0.000 NA
ATOM     16  S   UNL     1       2.043   5.045  20.601  0.00  0.00    +0.000 S 
ENDBRANCH   1  14
TORSDOF 1
ENDMDL
MODEL 3
REMARK VINA RESULT:      -7.1      3.083      5.900
REMARK  Name = 
REMARK  1 active torsions:
REMARK  status: ('A' for Active; 'I' for Inactive)
REMARK    1  A    between atoms: C_4  and  C_5
REMARK                            x       y       z     vdW  Elec       q    Type
REMARK                         _______ _______ _______ _____ _____    ______ ____
ROOT
ATOM      1  C   UNL     1       4.148   4.127  18.285  0.00  0.00    +0.000 A 
ATOM      2  C   UNL     1       2.964   4.180  17.559  0.00  0.00    +0.000 A 
ATOM      3  C   UNL     1       1.872   3.475  18.000  0.00  0.00    +0.000 A 
ATOM      4  C   UNL     1       1.829   3.235  19.365  0.00  0.00    +0.000 A 
ATOM      5  N   UNL     1       0.772   3.158  20.240  0.00  0.00    +0.000 N 
ATOM      6  C   UNL     1       1.232   2.826  21.487  0.00  0.00    +0.000 A 
ATOM      7  C   UNL     1       2.598   2.648  21.396  0.00  0.00    +0.000 A 
ATOM      8  C   UNL     1       3.000   3.095  20.111  0.00  0.00    +0.000 A 
ATOM      9  C   UNL     1       4.221   3.383  19.489  0.00  0.00    +0.000 A 
ATOM     10  H   UNL     1      -0.166   3.473  20.028  0.00  0.00    +0.000 HD
ENDROOT
BRANCH   1  14
ATOM     11  O   UNL     1       7.543   4.755  15.215  0.00  0.00    +0.000 OA
ATOM     12  C   UNL     1       6.855   4.984  16.200  0.00  0.00    +0.000 A 
ATOM     13  O   UNL     1       5.798   4.251  16.605  0.00  0.00    +0.000 OA
ATOM     14  C   UNL     1       5.313   4.862  17.703  0.00  0.00    +0.000 A 
ATOM     15  N   UNL     1       5.827   5.896  18.253  0.00  0.00    +0.000 NA
ATOM     16  S   UNL     1       7.142   6.333  17.277  0.00  0.00    +0.000 S 
ENDBRANCH   1  14
TORSDOF 1
ENDMDL
MODEL 4
REMARK VINA RESULT:      -7.1      3.120      5.908
REMARK  Name = 
REMARK  1 active torsions:
REMARK  status: ('A' for Active; 'I' for Inactive)
REMARK    1  A    between atoms: C_4  and  C_5
REMARK                            x       y       z     vdW  Elec       q    Type
REMARK                         _______ _______ _______ _____ _____    ______ ____
ROOT
ATOM      1  C   UNL     1       3.840   3.917  17.965  0.00  0.00    +0.000 A 
ATOM      2  C   UNL     1       2.568   4.183  17.471  0.00  0.00    +0.000 A 
ATOM      3  C   UNL     1       1.475   3.639  18.095  0.00  0.00    +0.000 A 
ATOM      4  C   UNL     1       1.640   3.350  19.441  0.00  0.00    +0.000 A 
ATOM      5  N   UNL     1       0.759   3.400  20.495  0.00  0.00    +0.000 N 
ATOM      6  C   UNL     1       1.376   2.948  21.631  0.00  0.00    +0.000 A 
ATOM      7  C   UNL     1       2.657   2.565  21.289  0.00  0.00    +0.000 A 
ATOM      8  C   UNL     1       2.888   2.999  19.957  0.00  0.00    +0.000 A 
ATOM      9  C   UNL     1       4.008   3.120  19.126  0.00  0.00    +0.000 A 
ATOM     10  H   UNL     1      -0.140   3.865  20.464  0.00  0.00    +0.000 HD
ENDROOT
BRANCH   1  14
ATOM     11  O   UNL     1       6.827   7.250  16.820  0.00  0.00    +0.000 OA
ATOM     12  C   UNL     1       6.280   6.158  16.767  0.00  0.00    +0.000 A 
ATOM     13  O   UNL     1       5.264   5.752  17.556  0.00  0.00    +0.000 OA
ATOM     14  C   UNL     1       4.984   4.486  17.189  0.00  0.00    +0.000 A 
ATOM     15  N   UNL     1       5.553   3.859  16.230  0.00  0.00    +0.000 NA
ATOM     16  S   UNL     1       6.733   4.914  15.623  0.00  0.00    +0.000 S 
ENDBRANCH   1  14
TORSDOF 1
ENDMDL
MODEL 5
REMARK VINA RESULT:      -7.0      3.374      5.912
REMARK  Name = 
REMARK  1 active torsions:
REMARK  status: ('A' for Active; 'I' for Inactive)
REMARK    1  A    between atoms: C_4  and  C_5
REMARK                            x       y       z     vdW  Elec       q    Type
REMARK                         _______ _______ _______ _____ _____    ______ ____
ROOT
ATOM      1  C   UNL     1       4.402   4.533  18.972  0.00  0.00    +0.000 A 
ATOM      2  C   UNL     1       3.304   5.015  18.269  0.00  0.00    +0.000 A 
ATOM      3  C   UNL     1       2.084   4.405  18.424  0.00  0.00    +0.000 A 
ATOM      4  C   UNL     1       1.893   3.755  19.634  0.00  0.00    +0.000 A 
ATOM      5  N   UNL     1       0.767   3.587  20.405  0.00  0.00    +0.000 N 
ATOM      6  C   UNL     1       1.066   2.803  21.488  0.00  0.00    +0.000 A 
ATOM      7  C   UNL     1       2.392   2.432  21.384  0.00  0.00    +0.000 A 
ATOM      8  C   UNL     1       2.962   3.188  20.327  0.00  0.00    +0.000 A 
ATOM      9  C   UNL     1       4.260   3.444  19.869  0.00  0.00    +0.000 A 
ATOM     10  H   UNL     1      -0.091   4.108  20.281  0.00  0.00    +0.000 HD
ENDROOT
BRANCH   1  14
ATOM     11  O   UNL     1       7.556   6.503  16.232  0.00  0.00    +0.000 OA
ATOM     12  C   UNL     1       7.075   6.071  17.269  0.00  0.00    +0.000 A 
ATOM     13  O   UNL     1       5.855   5.509  17.392  0.00  0.00    +0.000 OA
ATOM     14  C   UNL     1       5.710   5.203  18.696  0.00  0.00    +0.000 A 
ATOM     15  N   UNL     1       6.607   5.371  19.592  0.00  0.00    +0.000 NA
ATOM     16  S   UNL     1       7.915   6.106  18.803  0.00  0.00    +0.000 S 
ENDBRANCH   1  14
TORSDOF 1
ENDMDL
MODEL 6
REMARK VINA RESULT:      -6.9      3.523      5.623
REMARK  Name = 
REMARK  1 active torsions:
REMARK  status: ('A' for Active; 'I' for Inactive)
REMARK    1  A    between atoms: C_4  and  C_5
REMARK                            x       y       z     vdW  Elec       q    Type
REMARK                         _______ _______ _______ _____ _____    ______ ____
ROOT
ATOM      1  C   UNL     1       4.111   5.131  18.874  0.00  0.00    +0.000 A 
ATOM      2  C   UNL     1       3.365   5.823  19.822  0.00  0.00    +0.000 A 
ATOM      3  C   UNL     1       2.027   5.550  19.957  0.00  0.00    +0.000 A 
ATOM      4  C   UNL     1       1.639   4.274  19.577  0.00  0.00    +0.000 A 
ATOM      5  N   UNL     1       0.668   3.436  20.073  0.00  0.00    +0.000 N 
ATOM      6  C   UNL     1       0.615   2.297  19.313  0.00  0.00    +0.000 A 
ATOM      7  C   UNL     1       1.536   2.429  18.293  0.00  0.00    +0.000 A 
ATOM      8  C   UNL     1       2.315   3.582  18.572  0.00  0.00    +0.000 A 
ATOM      9  C   UNL     1       3.507   4.126  18.078  0.00  0.00    +0.000 A 
ATOM     10  H   UNL     1       0.201   3.568  20.960  0.00  0.00    +0.000 HD
ENDROOT
BRANCH   1  14
ATOM     11  O   UNL     1       7.695   7.012  16.649  0.00  0.00    +0.000 OA
ATOM     12  C   UNL     1       7.104   6.431  17.547  0.00  0.00    +0.000 A 
ATOM     13  O   UNL     1       5.785   6.150  17.563  0.00  0.00    +0.000 OA
ATOM     14  C   UNL     1       5.544   5.536  18.737  0.00  0.00    +0.000 A 
ATOM     15  N   UNL     1       6.435   5.241  19.606  0.00  0.00    +0.000 NA
ATOM     16  S   UNL     1       7.895   5.848  18.994  0.00  0.00    +0.000 S 
ENDBRANCH   1  14
TORSDOF 1
ENDMDL
MODEL 7
REMARK VINA RESULT:      -6.9      1.530      1.550
REMARK  Name = 
REMARK  1 active torsions:
REMARK  status: ('A' for Active; 'I' for Inactive)
REMARK    1  A    between atoms: C_4  and  C_5
REMARK                            x       y       z     vdW  Elec       q    Type
REMARK                         _______ _______ _______ _____ _____    ______ ____
ROOT
ATOM      1  C   UNL     1       4.874   4.365  18.137  0.00  0.00    +0.000 A 
ATOM      2  C   UNL     1       6.090   4.887  18.563  0.00  0.00    +0.000 A 
ATOM      3  C   UNL     1       7.184   4.805  17.738  0.00  0.00    +0.000 A 
ATOM      4  C   UNL     1       6.903   4.739  16.382  0.00  0.00    +0.000 A 
ATOM      5  N   UNL     1       7.576   5.237  15.291  0.00  0.00    +0.000 N 
ATOM      6  C   UNL     1       6.938   4.849  14.143  0.00  0.00    +0.000 A 
ATOM      7  C   UNL     1       5.867   4.058  14.505  0.00  0.00    +0.000 A 
ATOM      8  C   UNL     1       5.729   4.149  15.914  0.00  0.00    +0.000 A 
ATOM      9  C   UNL     1       4.752   3.786  16.848  0.00  0.00    +0.000 A 
ATOM     10  H   UNL     1       8.316   5.925  15.344  0.00  0.00    +0.000 HD
ENDROOT
BRANCH   1  14
ATOM     11  O   UNL     1       1.676   6.555  20.651  0.00  0.00    +0.000 OA
ATOM     12  C   UNL     1       2.332   5.611  20.234  0.00  0.00    +0.000 A 
ATOM     13  O   UNL     1       3.313   5.687  19.311  0.00  0.00    +0.000 OA
ATOM     14  C   UNL     1       3.748   4.427  19.119  0.00  0.00    +0.000 A 
ATOM     15  N   UNL     1       3.327   3.401  19.757  0.00  0.00    +0.000 NA
ATOM     16  S   UNL     1       2.103   3.966  20.785  0.00  0.00    +0.000 S 
ENDBRANCH   1  14
TORSDOF 1
ENDMDL
MODEL 8
REMARK VINA RESULT:      -6.8      3.126      5.616
REMARK  Name = 
REMARK  1 active torsions:
REMARK  status: ('A' for Active; 'I' for Inactive)
REMARK    1  A    between atoms: C_4  and  C_5
REMARK                            x       y       z     vdW  Elec       q    Type
REMARK                         _______ _______ _______ _____ _____    ______ ____
ROOT
ATOM      1  C   UNL     1       3.766   4.512  17.522  0.00  0.00    +0.000 A 
ATOM      2  C   UNL     1       3.526   5.592  18.363  0.00  0.00    +0.000 A 
ATOM      3  C   UNL     1       2.321   5.685  19.013  0.00  0.00    +0.000 A 
ATOM      4  C   UNL     1       1.673   4.481  19.241  0.00  0.00    +0.000 A 
ATOM      5  N   UNL     1       0.878   4.062  20.282  0.00  0.00    +0.000 N 
ATOM      6  C   UNL     1       0.406   2.803  20.019  0.00  0.00    +0.000 A 
ATOM      7  C   UNL     1       0.873   2.431  18.775  0.00  0.00    +0.000 A 
ATOM      8  C   UNL     1       1.826   3.401  18.372  0.00  0.00    +0.000 A 
ATOM      9  C   UNL     1       2.791   3.495  17.361  0.00  0.00    +0.000 A 
ATOM     10  H   UNL     1       0.805   4.539  21.171  0.00  0.00    +0.000 HD
ENDROOT
BRANCH   1  14
ATOM     11  O   UNL     1       8.372   4.269  17.263  0.00  0.00    +0.000 OA
ATOM     12  C   UNL     1       7.225   4.406  16.863  0.00  0.00    +0.000 A 
ATOM     13  O   UNL     1       6.116   4.347  17.628  0.00  0.00    +0.000 OA
ATOM     14  C   UNL     1       5.072   4.518  16.794  0.00  0.00    +0.000 A 
ATOM     15  N   UNL     1       5.167   4.752  15.540  0.00  0.00    +0.000 NA
ATOM     16  S   UNL     1       6.825   4.716  15.187  0.00  0.00    +0.000 S 
ENDBRANCH   1  14
TORSDOF 1
ENDMDL
MODEL 9
REMARK VINA RESULT:      -6.8      4.254      6.182
REMARK  Name = 
REMARK  1 active torsions:
REMARK  status: ('A' for Active; 'I' for Inactive)
REMARK    1  A    between atoms: C_4  and  C_5
REMARK                            x       y       z     vdW  Elec       q    Type
REMARK                         _______ _______ _______ _____ _____    ______ ____
ROOT
ATOM      1  C   UNL     1       6.108   4.406  15.889  0.00  0.00    +0.000 A 
ATOM      2  C   UNL     1       7.004   4.678  16.917  0.00  0.00    +0.000 A 
ATOM      3  C   UNL     1       6.554   4.701  18.213  0.00  0.00    +0.000 A 
ATOM      4  C   UNL     1       5.432   3.927  18.468  0.00  0.00    +0.000 A 
ATOM      5  N   UNL     1       5.057   3.212  19.581  0.00  0.00    +0.000 N 
ATOM      6  C   UNL     1       3.818   2.665  19.378  0.00  0.00    +0.000 A 
ATOM      7  C   UNL     1       3.378   3.072  18.134  0.00  0.00    +0.000 A 
ATOM      8  C   UNL     1       4.471   3.701  17.483  0.00  0.00    +0.000 A 
ATOM      9  C   UNL     1       4.750   4.119  16.177  0.00  0.00    +0.000 A 
ATOM     10  H   UNL     1       5.677   2.984  20.347  0.00  0.00    +0.000 HD
ENDROOT
BRANCH   1  14
ATOM     11  O   UNL     1       8.825   6.138  12.579  0.00  0.00    +0.000 OA
ATOM     12  C   UNL     1       7.972   5.417  13.076  0.00  0.00    +0.000 A 
ATOM     13  O   UNL     1       7.585   5.438  14.368  0.00  0.00    +0.000 OA
ATOM     14  C   UNL     1       6.657   4.471  14.500  0.00  0.00    +0.000 A 
ATOM     15  N   UNL     1       6.215   3.745  13.544  0.00  0.00    +0.000 NA
ATOM     16  S   UNL     1       7.088   4.211  12.168  0.00  0.00    +0.000 S 
ENDBRANCH   1  14
TORSDOF 1
ENDMDL
