MODEL 1
REMARK VINA RESULT:      -6.9      0.000      0.000
REMARK  Name = 
REMARK  9 active torsions:
REMARK  status: ('A' for Active; 'I' for Inactive)
REMARK    1  A    between atoms: C_1  and  C_2
REMARK    2  A    between atoms: C_6  and  C_7
REMARK    3  A    between atoms: C_8  and  O_9
REMARK    4  A    between atoms: O_9  and  C_10
REMARK    5  A    between atoms: C_10  and  C_11
REMARK    6  A    between atoms: C_11  and  C_12
REMARK    7  A    between atoms: C_11  and  N_13
REMARK    8  A    between atoms: N_13  and  C_14
REMARK    9  A    between atoms: C_14  and  C_15
REMARK                            x       y       z     vdW  Elec       q    Type
REMARK                         _______ _______ _______ _____ _____    ______ ____
ROOT
ATOM      1  C   UNL     1       5.576   4.549  18.237  0.00  0.00    +0.000 C 
ATOM      2  C   UNL     1       6.875   4.794  17.456  0.00  0.00    +0.000 C 
ENDROOT
BRANCH   1   3
ATOM      3  N   UNL     1       4.985   5.846  18.639  0.00  0.00    +0.000 NA
ATOM      4  H   UNL     1       5.724   6.543  18.743  0.00  0.00    +0.000 HD
BRANCH   3   5
ATOM      5  C   UNL     1       4.005   6.357  17.665  0.00  0.00    +0.000 C 
BRANCH   5   6
ATOM      6  C   UNL     1       3.023   7.303  18.304  0.00  0.00    +0.000 A 
ATOM      7  C   UNL     1       2.504   8.409  17.601  0.00  0.00    +0.000 A 
ATOM      8  C   UNL     1       1.596   9.273  18.217  0.00  0.00    +0.000 A 
ATOM      9  C   UNL     1       1.196   9.043  19.532  0.00  0.00    +0.000 A 
ATOM     10  C   UNL     1       1.689   7.941  20.228  0.00  0.00    +0.000 A 
ATOM     11  C   UNL     1       2.592   7.076  19.614  0.00  0.00    +0.000 A 
ENDBRANCH   5   6
ENDBRANCH   3   5
ENDBRANCH   1   3
BRANCH   1  12
ATOM     12  C   UNL     1       4.591   3.742  17.374  0.00  0.00    +0.000 C 
BRANCH  12  13
ATOM     13  O   UNL     1       3.980   2.666  18.053  0.00  0.00    +0.000 OA
BRANCH  13  21
ATOM     14  C   UNL     1       1.198   4.159  17.554  0.00  0.00    +0.000 C 
ATOM     15  C   UNL     1       1.783   3.621  18.836  0.00  0.00    +0.000 A 
ATOM     16  C   UNL     1       0.964   3.800  19.970  0.00  0.00    +0.000 A 
ATOM     17  C   UNL     1       1.348   3.352  21.228  0.00  0.00    +0.000 A 
ATOM     18  C   UNL     1       2.568   2.712  21.389  0.00  0.00    +0.000 A 
ATOM     19  C   UNL     1       3.412   2.512  20.291  0.00  0.00    +0.000 A 
ATOM     20  C   UNL     1       4.728   1.811  20.506  0.00  0.00    +0.000 C 
ATOM     21  C   UNL     1       3.028   2.965  19.002  0.00  0.00    +0.000 A 
ENDBRANCH  13  21
ENDBRANCH  12  13
ENDBRANCH   1  12
TORSDOF 6
ENDMDL
MODEL 2
REMARK VINA RESULT:      -6.8      2.774      5.200
REMARK  Name = 
REMARK  9 active torsions:
REMARK  status: ('A' for Active; 'I' for Inactive)
REMARK    1  A    between atoms: C_1  and  C_2
REMARK    2  A    between atoms: C_6  and  C_7
REMARK    3  A    between atoms: C_8  and  O_9
REMARK    4  A    between atoms: O_9  and  C_10
REMARK    5  A    between atoms: C_10  and  C_11
REMARK    6  A    between atoms: C_11  and  C_12
REMARK    7  A    between atoms: C_11  and  N_13
REMARK    8  A    between atoms: N_13  and  C_14
REMARK    9  A    between atoms: C_14  and  C_15
REMARK                            x       y       z     vdW  Elec       q    Type
REMARK                         _______ _______ _______ _____ _____    ______ ____
ROOT
ATOM      1  C   UNL     1       6.273   5.238  17.839  0.00  0.00    +0.000 C 
ATOM      2  C   UNL     1       7.634   5.504  18.499  0.00  0.00    +0.000 C 
ENDROOT
BRANCH   1   3
ATOM      3  N   UNL     1       6.403   4.138  16.858  0.00  0.00    +0.000 NA
ATOM      4  H   UNL     1       6.278   3.240  17.328  0.00  0.00    +0.000 HD
BRANCH   3   5
ATOM      5  C   UNL     1       5.418   4.224  15.764  0.00  0.00    +0.000 C 
BRANCH   5   6
ATOM      6  C   UNL     1       6.084   4.255  14.414  0.00  0.00    +0.000 A 
ATOM      7  C   UNL     1       5.603   3.478  13.340  0.00  0.00    +0.000 A 
ATOM      8  C   UNL     1       6.240   3.524  12.098  0.00  0.00    +0.000 A 
ATOM      9  C   UNL     1       7.353   4.341  11.913  0.00  0.00    +0.000 A 
ATOM     10  C   UNL     1       7.823   5.127  12.963  0.00  0.00    +0.000 A 
ATOM     11  C   UNL     1       7.187   5.086  14.203  0.00  0.00    +0.000 A 
ENDBRANCH   5   6
ENDBRANCH   3   5
ENDBRANCH   1   3
BRANCH   1  12
ATOM     12  C   UNL     1       5.228   4.893  18.915  0.00  0.00    +0.000 C 
BRANCH  12  13
ATOM     13  O   UNL     1       3.892   5.078  18.499  0.00  0.00    +0.000 OA
BRANCH  13  21
ATOM     14  C   UNL     1       3.583   1.929  18.046  0.00  0.00    +0.000 C 
ATOM     15  C   UNL     1       2.749   2.865  18.885  0.00  0.00    +0.000 A 
ATOM     16  C   UNL     1       1.688   2.241  19.574  0.00  0.00    +0.000 A 
ATOM     17  C   UNL     1       0.831   2.958  20.400  0.00  0.00    +0.000 A 
ATOM     18  C   UNL     1       1.009   4.324  20.559  0.00  0.00    +0.000 A 
ATOM     19  C   UNL     1       2.049   4.984  19.894  0.00  0.00    +0.000 A 
ATOM     20  C   UNL     1       2.212   6.469  20.094  0.00  0.00    +0.000 C 
ATOM     21  C   UNL     1       2.930   4.261  19.050  0.00  0.00    +0.000 A 
ENDBRANCH  13  21
ENDBRANCH  12  13
ENDBRANCH   1  12
TORSDOF 6
ENDMDL
MODEL 3
REMARK VINA RESULT:      -6.8      2.827      5.276
REMARK  Name = 
REMARK  9 active torsions:
REMARK  status: ('A' for Active; 'I' for Inactive)
REMARK    1  A    between atoms: C_1  and  C_2
REMARK    2  A    between atoms: C_6  and  C_7
REMARK    3  A    between atoms: C_8  and  O_9
REMARK    4  A    between atoms: O_9  and  C_10
REMARK    5  A    between atoms: C_10  and  C_11
REMARK    6  A    between atoms: C_11  and  C_12
REMARK    7  A    between atoms: C_11  and  N_13
REMARK    8  A    between atoms: N_13  and  C_14
REMARK    9  A    between atoms: C_14  and  C_15
REMARK                            x       y       z     vdW  Elec       q    Type
REMARK                         _______ _______ _______ _____ _____    ______ ____
ROOT
ATOM      1  C   UNL     1       6.253   5.388  17.516  0.00  0.00    +0.000 C 
ATOM      2  C   UNL     1       7.477   6.090  18.120  0.00  0.00    +0.000 C 
ENDROOT
BRANCH   1   3
ATOM      3  N   UNL     1       6.681   4.156  16.817  0.00  0.00    +0.000 NA
ATOM      4  H   UNL     1       6.745   3.386  17.484  0.00  0.00    +0.000 HD
BRANCH   3   5
ATOM      5  C   UNL     1       5.757   3.755  15.741  0.00  0.00    +0.000 C 
BRANCH   5   6
ATOM      6  C   UNL     1       6.328   4.043  14.377  0.00  0.00    +0.000 A 
ATOM      7  C   UNL     1       7.361   4.985  14.197  0.00  0.00    +0.000 A 
ATOM      8  C   UNL     1       7.871   5.235  12.921  0.00  0.00    +0.000 A 
ATOM      9  C   UNL     1       7.362   4.551  11.819  0.00  0.00    +0.000 A 
ATOM     10  C   UNL     1       6.355   3.604  11.991  0.00  0.00    +0.000 A 
ATOM     11  C   UNL     1       5.846   3.350  13.263  0.00  0.00    +0.000 A 
ENDBRANCH   5   6
ENDBRANCH   3   5
ENDBRANCH   1   3
BRANCH   1  12
ATOM     12  C   UNL     1       5.235   5.064  18.624  0.00  0.00    +0.000 C 
BRANCH  12  13
ATOM     13  O   UNL     1       3.889   5.124  18.203  0.00  0.00    +0.000 OA
BRANCH  13  21
ATOM     14  C   UNL     1       3.500   1.957  18.015  0.00  0.00    +0.000 C 
ATOM     15  C   UNL     1       2.754   2.968  18.849  0.00  0.00    +0.000 A 
ATOM     16  C   UNL     1       1.748   2.419  19.671  0.00  0.00    +0.000 A 
ATOM     17  C   UNL     1       0.975   3.210  20.511  0.00  0.00    +0.000 A 
ATOM     18  C   UNL     1       1.185   4.581  20.551  0.00  0.00    +0.000 A 
ATOM     19  C   UNL     1       2.173   5.169  19.753  0.00  0.00    +0.000 A 
ATOM     20  C   UNL     1       2.371   6.661  19.827  0.00  0.00    +0.000 C 
ATOM     21  C   UNL     1       2.968   4.369  18.894  0.00  0.00    +0.000 A 
ENDBRANCH  13  21
ENDBRANCH  12  13
ENDBRANCH   1  12
TORSDOF 6
ENDMDL
MODEL 4
REMARK VINA RESULT:      -6.7      2.775      5.062
REMARK  Name = 
REMARK  9 active torsions:
REMARK  status: ('A' for Active; 'I' for Inactive)
REMARK    1  A    between atoms: C_1  and  C_2
REMARK    2  A    between atoms: C_6  and  C_7
REMARK    3  A    between atoms: C_8  and  O_9
REMARK    4  A    between atoms: O_9  and  C_10
REMARK    5  A    between atoms: C_10  and  C_11
REMARK    6  A    between atoms: C_11  and  C_12
REMARK    7  A    between atoms: C_11  and  N_13
REMARK    8  A    between atoms: N_13  and  C_14
REMARK    9  A    between atoms: C_14  and  C_15
REMARK                            x       y       z     vdW  Elec       q    Type
REMARK                         _______ _______ _______ _____ _____    ______ ____
ROOT
ATOM      1  C   UNL     1       6.389   6.053  17.897  0.00  0.00    +0.000 C 
ATOM      2  C   UNL     1       7.769   6.435  18.452  0.00  0.00    +0.000 C 
ENDROOT
BRANCH   1   3
ATOM      3  N   UNL     1       6.424   6.078  16.417  0.00  0.00    +0.000 NA
ATOM      4  H   UNL     1       7.388   5.991  16.094  0.00  0.00    +0.000 HD
BRANCH   3   5
ATOM      5  C   UNL     1       5.635   4.994  15.805  0.00  0.00    +0.000 C 
BRANCH   5   6
ATOM      6  C   UNL     1       6.142   4.639  14.433  0.00  0.00    +0.000 A 
ATOM      7  C   UNL     1       5.473   3.699  13.622  0.00  0.00    +0.000 A 
ATOM      8  C   UNL     1       5.965   3.386  12.354  0.00  0.00    +0.000 A 
ATOM      9  C   UNL     1       7.122   4.003  11.881  0.00  0.00    +0.000 A 
ATOM     10  C   UNL     1       7.779   4.947  12.668  0.00  0.00    +0.000 A 
ATOM     11  C   UNL     1       7.287   5.264  13.933  0.00  0.00    +0.000 A 
ENDBRANCH   5   6
ENDBRANCH   3   5
ENDBRANCH   1   3
BRANCH   1  12
ATOM     12  C   UNL     1       5.985   4.661  18.412  0.00  0.00    +0.000 C 
BRANCH  12  13
ATOM     13  O   UNL     1       4.963   4.683  19.386  0.00  0.00    +0.000 OA
BRANCH  13  21
ATOM     14  C   UNL     1       2.775   6.430  17.842  0.00  0.00    +0.000 C 
ATOM     15  C   UNL     1       2.701   5.001  18.320  0.00  0.00    +0.000 A 
ATOM     16  C   UNL     1       1.486   4.350  18.023  0.00  0.00    +0.000 A 
ATOM     17  C   UNL     1       1.257   3.027  18.383  0.00  0.00    +0.000 A 
ATOM     18  C   UNL     1       2.241   2.316  19.054  0.00  0.00    +0.000 A 
ATOM     19  C   UNL     1       3.462   2.922  19.368  0.00  0.00    +0.000 A 
ATOM     20  C   UNL     1       4.507   2.116  20.096  0.00  0.00    +0.000 C 
ATOM     21  C   UNL     1       3.705   4.272  19.004  0.00  0.00    +0.000 A 
ENDBRANCH  13  21
ENDBRANCH  12  13
ENDBRANCH   1  12
TORSDOF 6
ENDMDL
MODEL 5
REMARK VINA RESULT:      -6.6      2.700      5.022
REMARK  Name = 
REMARK  9 active torsions:
REMARK  status: ('A' for Active; 'I' for Inactive)
REMARK    1  A    between atoms: C_1  and  C_2
REMARK    2  A    between atoms: C_6  and  C_7
REMARK    3  A    between atoms: C_8  and  O_9
REMARK    4  A    between atoms: O_9  and  C_10
REMARK    5  A    between atoms: C_10  and  C_11
REMARK    6  A    between atoms: C_11  and  C_12
REMARK    7  A    between atoms: C_11  and  N_13
REMARK    8  A    between atoms: N_13  and  C_14
REMARK    9  A    between atoms: C_14  and  C_15
REMARK                            x       y       z     vdW  Elec       q    Type
REMARK                         _______ _______ _______ _____ _____    ______ ____
ROOT
ATOM      1  C   UNL     1       6.491   5.258  18.123  0.00  0.00    +0.000 C 
ATOM      2  C   UNL     1       7.679   5.632  19.020  0.00  0.00    +0.000 C 
ENDROOT
BRANCH   1   3
ATOM      3  N   UNL     1       6.977   4.520  16.935  0.00  0.00    +0.000 NA
ATOM      4  H   UNL     1       6.276   3.839  16.642  0.00  0.00    +0.000 HD
BRANCH   3   5
ATOM      5  C   UNL     1       7.268   5.402  15.790  0.00  0.00    +0.000 C 
BRANCH   5   6
ATOM      6  C   UNL     1       6.870   4.770  14.483  0.00  0.00    +0.000 A 
ATOM      7  C   UNL     1       5.703   3.987  14.370  0.00  0.00    +0.000 A 
ATOM      8  C   UNL     1       5.357   3.411  13.146  0.00  0.00    +0.000 A 
ATOM      9  C   UNL     1       6.164   3.609  12.027  0.00  0.00    +0.000 A 
ATOM     10  C   UNL     1       7.309   4.398  12.125  0.00  0.00    +0.000 A 
ATOM     11  C   UNL     1       7.654   4.977  13.345  0.00  0.00    +0.000 A 
ENDBRANCH   5   6
ENDBRANCH   3   5
ENDBRANCH   1   3
BRANCH   1  12
ATOM     12  C   UNL     1       5.481   4.411  18.918  0.00  0.00    +0.000 C 
BRANCH  12  13
ATOM     13  O   UNL     1       4.267   4.177  18.237  0.00  0.00    +0.000 OA
BRANCH  13  21
ATOM     14  C   UNL     1       2.594   6.460  19.723  0.00  0.00    +0.000 C 
ATOM     15  C   UNL     1       2.353   4.972  19.673  0.00  0.00    +0.000 A 
ATOM     16  C   UNL     1       1.211   4.542  20.380  0.00  0.00    +0.000 A 
ATOM     17  C   UNL     1       0.839   3.204  20.426  0.00  0.00    +0.000 A 
ATOM     18  C   UNL     1       1.603   2.254  19.764  0.00  0.00    +0.000 A 
ATOM     19  C   UNL     1       2.744   2.636  19.049  0.00  0.00    +0.000 A 
ATOM     20  C   UNL     1       3.546   1.574  18.342  0.00  0.00    +0.000 C 
ATOM     21  C   UNL     1       3.131   3.999  18.996  0.00  0.00    +0.000 A 
ENDBRANCH  13  21
ENDBRANCH  12  13
ENDBRANCH   1  12
TORSDOF 6
ENDMDL
MODEL 6
REMARK VINA RESULT:      -6.5      2.801      5.445
REMARK  Name = 
REMARK  9 active torsions:
REMARK  status: ('A' for Active; 'I' for Inactive)
REMARK    1  A    between atoms: C_1  and  C_2
REMARK    2  A    between atoms: C_6  and  C_7
REMARK    3  A    between atoms: C_8  and  O_9
REMARK    4  A    between atoms: O_9  and  C_10
REMARK    5  A    between atoms: C_10  and  C_11
REMARK    6  A    between atoms: C_11  and  C_12
REMARK    7  A    between atoms: C_11  and  N_13
REMARK    8  A    between atoms: N_13  and  C_14
REMARK    9  A    between atoms: C_14  and  C_15
REMARK                            x       y       z     vdW  Elec       q    Type
REMARK                         _______ _______ _______ _____ _____    ______ ____
ROOT
ATOM      1  C   UNL     1       6.048   5.952  17.879  0.00  0.00    +0.000 C 
ATOM      2  C   UNL     1       7.415   6.645  17.965  0.00  0.00    +0.000 C 
ENDROOT
BRANCH   1   3
ATOM      3  N   UNL     1       6.020   5.052  16.704  0.00  0.00    +0.000 NA
ATOM      4  H   UNL     1       5.120   5.134  16.228  0.00  0.00    +0.000 HD
BRANCH   3   5
ATOM      5  C   UNL     1       7.084   5.346  15.728  0.00  0.00    +0.000 C 
BRANCH   5   6
ATOM      6  C   UNL     1       6.790   4.741  14.381  0.00  0.00    +0.000 A 
ATOM      7  C   UNL     1       5.650   3.941  14.167  0.00  0.00    +0.000 A 
ATOM      8  C   UNL     1       5.402   3.389  12.908  0.00  0.00    +0.000 A 
ATOM      9  C   UNL     1       6.281   3.630  11.855  0.00  0.00    +0.000 A 
ATOM     10  C   UNL     1       7.401   4.435  12.052  0.00  0.00    +0.000 A 
ATOM     11  C   UNL     1       7.649   4.990  13.306  0.00  0.00    +0.000 A 
ENDBRANCH   5   6
ENDBRANCH   3   5
ENDBRANCH   1   3
BRANCH   1  12
ATOM     12  C   UNL     1       5.775   5.169  19.175  0.00  0.00    +0.000 C 
BRANCH  12  13
ATOM     13  O   UNL     1       4.453   5.294  19.654  0.00  0.00    +0.000 OA
BRANCH  13  21
ATOM     14  C   UNL     1       4.537   2.164  20.298  0.00  0.00    +0.000 C 
ATOM     15  C   UNL     1       3.523   2.955  19.510  0.00  0.00    +0.000 A 
ATOM     16  C   UNL     1       2.455   2.189  18.999  0.00  0.00    +0.000 A 
ATOM     17  C   UNL     1       1.429   2.764  18.260  0.00  0.00    +0.000 A 
ATOM     18  C   UNL     1       1.443   4.128  18.008  0.00  0.00    +0.000 A 
ATOM     19  C   UNL     1       2.484   4.927  18.496  0.00  0.00    +0.000 A 
ATOM     20  C   UNL     1       2.462   6.405  18.202  0.00  0.00    +0.000 C 
ATOM     21  C   UNL     1       3.535   4.349  19.252  0.00  0.00    +0.000 A 
ENDBRANCH  13  21
ENDBRANCH  12  13
ENDBRANCH   1  12
TORSDOF 6
ENDMDL
MODEL 7
REMARK VINA RESULT:      -6.5      0.619      2.352
REMARK  Name = 
REMARK  9 active torsions:
REMARK  status: ('A' for Active; 'I' for Inactive)
REMARK    1  A    between atoms: C_1  and  C_2
REMARK    2  A    between atoms: C_6  and  C_7
REMARK    3  A    between atoms: C_8  and  O_9
REMARK    4  A    between atoms: O_9  and  C_10
REMARK    5  A    between atoms: C_10  and  C_11
REMARK    6  A    between atoms: C_11  and  C_12
REMARK    7  A    between atoms: C_11  and  N_13
REMARK    8  A    between atoms: N_13  and  C_14
REMARK    9  A    between atoms: C_14  and  C_15
REMARK                            x       y       z     vdW  Elec       q    Type
REMARK                         _______ _______ _______ _____ _____    ______ ____
ROOT
ATOM      1  C   UNL     1       5.539   4.980  17.292  0.00  0.00    +0.000 C 
ATOM      2  C   UNL     1       4.834   4.837  15.936  0.00  0.00    +0.000 C 
ENDROOT
BRANCH   1   3
ATOM      3  N   UNL     1       5.080   6.216  17.964  0.00  0.00    +0.000 NA
ATOM      4  H   UNL     1       5.869   6.852  18.092  0.00  0.00    +0.000 HD
BRANCH   3   5
ATOM      5  C   UNL     1       4.034   6.927  17.208  0.00  0.00    +0.000 C 
BRANCH   5   6
ATOM      6  C   UNL     1       3.029   7.579  18.120  0.00  0.00    +0.000 A 
ATOM      7  C   UNL     1       2.774   7.075  19.412  0.00  0.00    +0.000 A 
ATOM      8  C   UNL     1       1.835   7.697  20.238  0.00  0.00    +0.000 A 
ATOM      9  C   UNL     1       1.146   8.822  19.789  0.00  0.00    +0.000 A 
ATOM     10  C   UNL     1       1.405   9.337  18.521  0.00  0.00    +0.000 A 
ATOM     11  C   UNL     1       2.345   8.721  17.696  0.00  0.00    +0.000 A 
ENDBRANCH   5   6
ENDBRANCH   3   5
ENDBRANCH   1   3
BRANCH   1  12
ATOM     12  C   UNL     1       5.252   3.744  18.164  0.00  0.00    +0.000 C 
BRANCH  12  13
ATOM     13  O   UNL     1       3.953   3.216  18.001  0.00  0.00    +0.000 OA
BRANCH  13  21
ATOM     14  C   UNL     1       4.769   1.899  20.798  0.00  0.00    +0.000 C 
ATOM     15  C   UNL     1       3.470   2.543  20.382  0.00  0.00    +0.000 A 
ATOM     16  C   UNL     1       2.485   2.572  21.391  0.00  0.00    +0.000 A 
ATOM     17  C   UNL     1       1.235   3.140  21.178  0.00  0.00    +0.000 A 
ATOM     18  C   UNL     1       0.933   3.696  19.943  0.00  0.00    +0.000 A 
ATOM     19  C   UNL     1       1.880   3.690  18.913  0.00  0.00    +0.000 A 
ATOM     20  C   UNL     1       1.515   4.306  17.587  0.00  0.00    +0.000 C 
ATOM     21  C   UNL     1       3.159   3.113  19.122  0.00  0.00    +0.000 A 
ENDBRANCH  13  21
ENDBRANCH  12  13
ENDBRANCH   1  12
TORSDOF 6
ENDMDL
MODEL 8
REMARK VINA RESULT:      -6.5      2.914      5.274
REMARK  Name = 
REMARK  9 active torsions:
REMARK  status: ('A' for Active; 'I' for Inactive)
REMARK    1  A    between atoms: C_1  and  C_2
REMARK    2  A    between atoms: C_6  and  C_7
REMARK    3  A    between atoms: C_8  and  O_9
REMARK    4  A    between atoms: O_9  and  C_10
REMARK    5  A    between atoms: C_10  and  C_11
REMARK    6  A    between atoms: C_11  and  C_12
REMARK    7  A    between atoms: C_11  and  N_13
REMARK    8  A    between atoms: N_13  and  C_14
REMARK    9  A    between atoms: C_14  and  C_15
REMARK                            x       y       z     vdW  Elec       q    Type
REMARK                         _______ _______ _______ _____ _____    ______ ____
ROOT
ATOM      1  C   UNL     1       5.628   6.721  17.331  0.00  0.00    +0.000 C 
ATOM      2  C   UNL     1       7.100   6.667  17.763  0.00  0.00    +0.000 C 
ENDROOT
BRANCH   1   3
ATOM      3  N   UNL     1       5.505   6.272  15.925  0.00  0.00    +0.000 NA
ATOM      4  H   UNL     1       6.115   6.834  15.330  0.00  0.00    +0.000 HD
BRANCH   3   5
ATOM      5  C   UNL     1       5.864   4.855  15.741  0.00  0.00    +0.000 C 
BRANCH   5   6
ATOM      6  C   UNL     1       6.290   4.565  14.326  0.00  0.00    +0.000 A 
ATOM      7  C   UNL     1       7.398   5.213  13.745  0.00  0.00    +0.000 A 
ATOM      8  C   UNL     1       7.771   4.927  12.430  0.00  0.00    +0.000 A 
ATOM      9  C   UNL     1       7.049   3.996  11.685  0.00  0.00    +0.000 A 
ATOM     10  C   UNL     1       5.964   3.337  12.258  0.00  0.00    +0.000 A 
ATOM     11  C   UNL     1       5.592   3.617  13.572  0.00  0.00    +0.000 A 
ENDBRANCH   5   6
ENDBRANCH   3   5
ENDBRANCH   1   3
BRANCH   1  12
ATOM     12  C   UNL     1       4.776   5.842  18.263  0.00  0.00    +0.000 C 
BRANCH  12  13
ATOM     13  O   UNL     1       3.443   5.671  17.831  0.00  0.00    +0.000 OA
BRANCH  13  21
ATOM     14  C   UNL     1       2.100   6.760  20.520  0.00  0.00    +0.000 C 
ATOM     15  C   UNL     1       1.963   5.413  19.855  0.00  0.00    +0.000 A 
ATOM     16  C   UNL     1       1.103   4.517  20.525  0.00  0.00    +0.000 A 
ATOM     17  C   UNL     1       0.857   3.238  20.040  0.00  0.00    +0.000 A 
ATOM     18  C   UNL     1       1.468   2.816  18.869  0.00  0.00    +0.000 A 
ATOM     19  C   UNL     1       2.329   3.672  18.172  0.00  0.00    +0.000 A 
ATOM     20  C   UNL     1       2.972   3.177  16.902  0.00  0.00    +0.000 C 
ATOM     21  C   UNL     1       2.585   4.979  18.658  0.00  0.00    +0.000 A 
ENDBRANCH  13  21
ENDBRANCH  12  13
ENDBRANCH   1  12
TORSDOF 6
ENDMDL
MODEL 9
REMARK VINA RESULT:      -6.4      1.904      4.157
REMARK  Name = 
REMARK  9 active torsions:
REMARK  status: ('A' for Active; 'I' for Inactive)
REMARK    1  A    between atoms: C_1  and  C_2
REMARK    2  A    between atoms: C_6  and  C_7
REMARK    3  A    between atoms: C_8  and  O_9
REMARK    4  A    between atoms: O_9  and  C_10
REMARK    5  A    between atoms: C_10  and  C_11
REMARK    6  A    between atoms: C_11  and  C_12
REMARK    7  A    between atoms: C_11  and  N_13
REMARK    8  A    between atoms: N_13  and  C_14
REMARK    9  A    between atoms: C_14  and  C_15
REMARK                            x       y       z     vdW  Elec       q    Type
REMARK                         _______ _______ _______ _____ _____    ______ ____
ROOT
ATOM      1  C   UNL     1       4.064   3.075  17.581  0.00  0.00    +0.000 C 
ATOM      2  C   UNL     1       3.761   1.609  17.925  0.00  0.00    +0.000 C 
ENDROOT
BRANCH   1   3
ATOM      3  N   UNL     1       5.435   3.185  17.035  0.00  0.00    +0.000 NA
ATOM      4  H   UNL     1       5.606   2.425  16.376  0.00  0.00    +0.000 HD
BRANCH   3   5
ATOM      5  C   UNL     1       5.675   4.461  16.337  0.00  0.00    +0.000 C 
BRANCH   5   6
ATOM      6  C   UNL     1       6.533   5.392  17.152  0.00  0.00    +0.000 A 
ATOM      7  C   UNL     1       7.135   4.973  18.356  0.00  0.00    +0.000 A 
ATOM      8  C   UNL     1       7.924   5.858  19.094  0.00  0.00    +0.000 A 
ATOM      9  C   UNL     1       8.122   7.161  18.641  0.00  0.00    +0.000 A 
ATOM     10  C   UNL     1       7.546   7.578  17.443  0.00  0.00    +0.000 A 
ATOM     11  C   UNL     1       6.762   6.696  16.703  0.00  0.00    +0.000 A 
ENDBRANCH   5   6
ENDBRANCH   3   5
ENDBRANCH   1   3
BRANCH   1  12
ATOM     12  C   UNL     1       3.028   3.600  16.570  0.00  0.00    +0.000 C 
BRANCH  12  13
ATOM     13  O   UNL     1       1.800   3.981  17.152  0.00  0.00    +0.000 OA
BRANCH  13  21
ATOM     14  C   UNL     1       3.099   6.853  17.684  0.00  0.00    +0.000 C 
ATOM     15  C   UNL     1       2.402   5.922  18.644  0.00  0.00    +0.000 A 
ATOM     16  C   UNL     1       2.305   6.411  19.963  0.00  0.00    +0.000 A 
ATOM     17  C   UNL     1       1.682   5.683  20.970  0.00  0.00    +0.000 A 
ATOM     18  C   UNL     1       1.136   4.440  20.684  0.00  0.00    +0.000 A 
ATOM     19  C   UNL     1       1.208   3.917  19.388  0.00  0.00    +0.000 A 
ATOM     20  C   UNL     1       0.602   2.564  19.118  0.00  0.00    +0.000 C 
ATOM     21  C   UNL     1       1.842   4.652  18.354  0.00  0.00    +0.000 A 
ENDBRANCH  13  21
ENDBRANCH  12  13
ENDBRANCH   1  12
TORSDOF 6
ENDMDL
