MODEL 1
REMARK VINA RESULT:      -7.8      0.000      0.000
REMARK  Name = 
REMARK  3 active torsions:
REMARK  status: ('A' for Active; 'I' for Inactive)
REMARK    1  A    between atoms: C_1  and  C_2
REMARK    2  A    between atoms: C_5  and  C_6
REMARK    3  A    between atoms: C_13  and  C_14
REMARK                            x       y       z     vdW  Elec       q    Type
REMARK                         _______ _______ _______ _____ _____    ______ ____
ROOT
ATOM      1  C   UNL     1       1.030   9.099  20.159  0.00  0.00    +0.000 A 
ATOM      2  C   UNL     1       1.530   9.439  18.921  0.00  0.00    +0.000 A 
ATOM      3  S   UNL     1       2.386   8.130  18.254  0.00  0.00    +0.000 S 
ATOM      4  C   UNL     1       2.053   7.170  19.667  0.00  0.00    +0.000 A 
ATOM      5  N   UNL     1       2.451   5.871  19.770  0.00  0.00    +0.000 N 
ATOM      6  C   UNL     1       3.639   5.358  19.096  0.00  0.00    +0.000 C 
ATOM      7  C   UNL     1       3.265   4.050  18.400  0.00  0.00    +0.000 C 
ATOM      8  C   UNL     1       2.683   3.034  19.398  0.00  0.00    +0.000 C 
ATOM      9  C   UNL     1       1.533   3.667  20.202  0.00  0.00    +0.000 C 
ATOM     10  C   UNL     1       1.917   5.017  20.823  0.00  0.00    +0.000 C 
ATOM     11  N   UNL     1       1.332   7.808  20.571  0.00  0.00    +0.000 NA
ENDROOT
BRANCH   1  16
ATOM     12  C   UNL     1      -2.114  12.743  23.363  0.00  0.00    +0.000 C 
ATOM     13  C   UNL     1      -1.275  11.803  22.551  0.00  0.00    +0.000 A 
ATOM     14  C   UNL     1      -0.920  10.547  23.051  0.00  0.00    +0.000 A 
ATOM     15  C   UNL     1      -0.148   9.673  22.281  0.00  0.00    +0.000 A 
ATOM     16  C   UNL     1       0.277  10.032  20.993  0.00  0.00    +0.000 A 
ATOM     17  C   UNL     1      -0.060  11.298  20.503  0.00  0.00    +0.000 A 
ATOM     18  C   UNL     1      -0.835  12.174  21.273  0.00  0.00    +0.000 A 
ENDBRANCH   1  16
BRANCH   8  19
ATOM     19  C   UNL     1       3.787   2.458  20.280  0.00  0.00    +0.000 C 
ATOM     20  N   UNL     1       4.986   2.237  19.675  0.00  0.00    +0.000 N 
ATOM     21  O   UNL     1       3.666   2.241  21.484  0.00  0.00    +0.000 OA
ATOM     22  H   UNL     1       5.193   2.510  18.726  0.00  0.00    +0.000 HD
ATOM     23  H   UNL     1       5.745   1.924  20.267  0.00  0.00    +0.000 HD
ENDBRANCH   8  19
TORSDOF 2
ENDMDL
MODEL 2
REMARK VINA RESULT:      -7.7      0.256      1.073
REMARK  Name = 
REMARK  3 active torsions:
REMARK  status: ('A' for Active; 'I' for Inactive)
REMARK    1  A    between atoms: C_1  and  C_2
REMARK    2  A    between atoms: C_5  and  C_6
REMARK    3  A    between atoms: C_13  and  C_14
REMARK                            x       y       z     vdW  Elec       q    Type
REMARK                         _______ _______ _______ _____ _____    ______ ____
ROOT
ATOM      1  C   UNL     1       1.100   9.186  20.039  0.00  0.00    +0.000 A 
ATOM      2  C   UNL     1       1.586   9.479  18.783  0.00  0.00    +0.000 A 
ATOM      3  S   UNL     1       2.402   8.133  18.141  0.00  0.00    +0.000 S 
ATOM      4  C   UNL     1       2.071   7.221  19.585  0.00  0.00    +0.000 A 
ATOM      5  N   UNL     1       2.443   5.917  19.719  0.00  0.00    +0.000 N 
ATOM      6  C   UNL     1       3.607   5.358  19.041  0.00  0.00    +0.000 C 
ATOM      7  C   UNL     1       3.192   4.039  18.389  0.00  0.00    +0.000 C 
ATOM      8  C   UNL     1       2.606   3.066  19.425  0.00  0.00    +0.000 C 
ATOM      9  C   UNL     1       1.484   3.748  20.229  0.00  0.00    +0.000 C 
ATOM     10  C   UNL     1       1.907   5.106  20.805  0.00  0.00    +0.000 C 
ATOM     11  N   UNL     1       1.380   7.900  20.483  0.00  0.00    +0.000 NA
ENDROOT
BRANCH   1  16
ATOM     12  C   UNL     1      -1.586  13.052  23.394  0.00  0.00    +0.000 C 
ATOM     13  C   UNL     1      -0.912  12.052  22.505  0.00  0.00    +0.000 A 
ATOM     14  C   UNL     1      -0.340  12.444  21.292  0.00  0.00    +0.000 A 
ATOM     15  C   UNL     1       0.297  11.507  20.475  0.00  0.00    +0.000 A 
ATOM     16  C   UNL     1       0.382  10.159  20.858  0.00  0.00    +0.000 A 
ATOM     17  C   UNL     1      -0.211   9.764  22.061  0.00  0.00    +0.000 A 
ATOM     18  C   UNL     1      -0.848  10.703  22.881  0.00  0.00    +0.000 A 
ENDBRANCH   1  16
BRANCH   8  19
ATOM     19  C   UNL     1       3.712   2.490  20.304  0.00  0.00    +0.000 C 
ATOM     20  N   UNL     1       4.907   2.263  19.695  0.00  0.00    +0.000 N 
ATOM     21  O   UNL     1       3.595   2.279  21.510  0.00  0.00    +0.000 OA
ATOM     22  H   UNL     1       5.111   2.531  18.745  0.00  0.00    +0.000 HD
ATOM     23  H   UNL     1       5.668   1.950  20.286  0.00  0.00    +0.000 HD
ENDBRANCH   8  19
TORSDOF 2
ENDMDL
MODEL 3
REMARK VINA RESULT:      -7.7      1.106      1.145
REMARK  Name = 
REMARK  3 active torsions:
REMARK  status: ('A' for Active; 'I' for Inactive)
REMARK    1  A    between atoms: C_1  and  C_2
REMARK    2  A    between atoms: C_5  and  C_6
REMARK    3  A    between atoms: C_13  and  C_14
REMARK                            x       y       z     vdW  Elec       q    Type
REMARK                         _______ _______ _______ _____ _____    ______ ____
ROOT
ATOM      1  C   UNL     1       0.908   9.387  19.883  0.00  0.00    +0.000 A 
ATOM      2  C   UNL     1       1.206   9.878  18.630  0.00  0.00    +0.000 A 
ATOM      3  S   UNL     1       2.199   8.781  17.791  0.00  0.00    +0.000 S 
ATOM      4  C   UNL     1       2.189   7.702  19.156  0.00  0.00    +0.000 A 
ATOM      5  N   UNL     1       2.814   6.492  19.126  0.00  0.00    +0.000 N 
ATOM      6  C   UNL     1       3.993   6.236  18.305  0.00  0.00    +0.000 C 
ATOM      7  C   UNL     1       3.778   4.922  17.556  0.00  0.00    +0.000 C 
ATOM      8  C   UNL     1       3.490   3.766  18.529  0.00  0.00    +0.000 C 
ATOM      9  C   UNL     1       2.341   4.139  19.483  0.00  0.00    +0.000 C 
ATOM     10  C   UNL     1       2.550   5.500  20.161  0.00  0.00    +0.000 C 
ATOM     11  N   UNL     1       1.470   8.150  20.169  0.00  0.00    +0.000 NA
ENDROOT
BRANCH   1  16
ATOM     12  C   UNL     1      -2.453  12.217  23.640  0.00  0.00    +0.000 C 
ATOM     13  C   UNL     1      -1.557  11.494  22.681  0.00  0.00    +0.000 A 
ATOM     14  C   UNL     1      -0.857  10.352  23.079  0.00  0.00    +0.000 A 
ATOM     15  C   UNL     1      -0.034   9.676  22.174  0.00  0.00    +0.000 A 
ATOM     16  C   UNL     1       0.099  10.124  20.850  0.00  0.00    +0.000 A 
ATOM     17  C   UNL     1      -0.584  11.279  20.460  0.00  0.00    +0.000 A 
ATOM     18  C   UNL     1      -1.411  11.956  21.366  0.00  0.00    +0.000 A 
ENDBRANCH   1  16
BRANCH   8  19
ATOM     19  C   UNL     1       4.765   3.349  19.256  0.00  0.00    +0.000 C 
ATOM     20  N   UNL     1       4.750   2.121  19.839  0.00  0.00    +0.000 N 
ATOM     21  O   UNL     1       5.791   4.026  19.292  0.00  0.00    +0.000 OA
ATOM     22  H   UNL     1       3.992   1.463  19.740  0.00  0.00    +0.000 HD
ATOM     23  H   UNL     1       5.615   1.805  20.260  0.00  0.00    +0.000 HD
ENDBRANCH   8  19
TORSDOF 2
ENDMDL
MODEL 4
REMARK VINA RESULT:      -7.6      1.118      1.552
REMARK  Name = 
REMARK  3 active torsions:
REMARK  status: ('A' for Active; 'I' for Inactive)
REMARK    1  A    between atoms: C_1  and  C_2
REMARK    2  A    between atoms: C_5  and  C_6
REMARK    3  A    between atoms: C_13  and  C_14
REMARK                            x       y       z     vdW  Elec       q    Type
REMARK                         _______ _______ _______ _____ _____    ______ ____
ROOT
ATOM      1  C   UNL     1       0.862   9.369  19.818  0.00  0.00    +0.000 A 
ATOM      2  C   UNL     1       1.188   9.870  18.577  0.00  0.00    +0.000 A 
ATOM      3  S   UNL     1       2.214   8.788  17.759  0.00  0.00    +0.000 S 
ATOM      4  C   UNL     1       2.178   7.701  19.117  0.00  0.00    +0.000 A 
ATOM      5  N   UNL     1       2.815   6.497  19.097  0.00  0.00    +0.000 N 
ATOM      6  C   UNL     1       4.019   6.258  18.307  0.00  0.00    +0.000 C 
ATOM      7  C   UNL     1       3.836   4.946  17.545  0.00  0.00    +0.000 C 
ATOM      8  C   UNL     1       3.534   3.782  18.503  0.00  0.00    +0.000 C 
ATOM      9  C   UNL     1       2.356   4.137  19.428  0.00  0.00    +0.000 C 
ATOM     10  C   UNL     1       2.533   5.496  20.119  0.00  0.00    +0.000 C 
ATOM     11  N   UNL     1       1.428   8.136  20.112  0.00  0.00    +0.000 NA
ENDROOT
BRANCH   1  16
ATOM     12  C   UNL     1      -2.312  12.320  23.645  0.00  0.00    +0.000 C 
ATOM     13  C   UNL     1      -1.515  11.545  22.640  0.00  0.00    +0.000 A 
ATOM     14  C   UNL     1      -1.443  11.963  21.308  0.00  0.00    +0.000 A 
ATOM     15  C   UNL     1      -0.687  11.242  20.381  0.00  0.00    +0.000 A 
ATOM     16  C   UNL     1       0.020  10.092  20.768  0.00  0.00    +0.000 A 
ATOM     17  C   UNL     1      -0.072   9.663  22.095  0.00  0.00    +0.000 A 
ATOM     18  C   UNL     1      -0.828  10.386  23.025  0.00  0.00    +0.000 A 
ENDBRANCH   1  16
BRANCH   8  19
ATOM     19  C   UNL     1       4.792   3.373  19.261  0.00  0.00    +0.000 C 
ATOM     20  N   UNL     1       4.771   2.144  19.844  0.00  0.00    +0.000 N 
ATOM     21  O   UNL     1       5.813   4.056  19.324  0.00  0.00    +0.000 OA
ATOM     22  H   UNL     1       4.019   1.481  19.726  0.00  0.00    +0.000 HD
ATOM     23  H   UNL     1       5.626   1.833  20.287  0.00  0.00    +0.000 HD
ENDBRANCH   8  19
TORSDOF 2
ENDMDL
MODEL 5
REMARK VINA RESULT:      -7.5      3.387      8.278
REMARK  Name = 
REMARK  3 active torsions:
REMARK  status: ('A' for Active; 'I' for Inactive)
REMARK    1  A    between atoms: C_1  and  C_2
REMARK    2  A    between atoms: C_5  and  C_6
REMARK    3  A    between atoms: C_13  and  C_14
REMARK                            x       y       z     vdW  Elec       q    Type
REMARK                         _______ _______ _______ _____ _____    ______ ____
ROOT
ATOM      1  C   UNL     1       3.324   5.755  18.461  0.00  0.00    +0.000 A 
ATOM      2  C   UNL     1       2.952   4.852  19.434  0.00  0.00    +0.000 A 
ATOM      3  S   UNL     1       1.986   5.618  20.606  0.00  0.00    +0.000 S 
ATOM      4  C   UNL     1       2.120   7.129  19.754  0.00  0.00    +0.000 A 
ATOM      5  N   UNL     1       1.475   8.254  20.171  0.00  0.00    +0.000 N 
ATOM      6  C   UNL     1       1.162   8.506  21.574  0.00  0.00    +0.000 C 
ATOM      7  C   UNL     1      -0.298   8.950  21.664  0.00  0.00    +0.000 C 
ATOM      8  C   UNL     1      -0.562  10.182  20.784  0.00  0.00    +0.000 C 
ATOM      9  C   UNL     1      -0.071   9.932  19.346  0.00  0.00    +0.000 C 
ATOM     10  C   UNL     1       1.372   9.413  19.294  0.00  0.00    +0.000 C 
ATOM     11  N   UNL     1       2.843   7.044  18.653  0.00  0.00    +0.000 NA
ENDROOT
BRANCH   1  16
ATOM     12  C   UNL     1       6.579   4.306  13.909  0.00  0.00    +0.000 C 
ATOM     13  C   UNL     1       5.760   4.691  15.103  0.00  0.00    +0.000 A 
ATOM     14  C   UNL     1       5.511   6.035  15.396  0.00  0.00    +0.000 A 
ATOM     15  C   UNL     1       4.736   6.385  16.504  0.00  0.00    +0.000 A 
ATOM     16  C   UNL     1       4.187   5.398  17.338  0.00  0.00    +0.000 A 
ATOM     17  C   UNL     1       4.455   4.056  17.057  0.00  0.00    +0.000 A 
ATOM     18  C   UNL     1       5.231   3.704  15.945  0.00  0.00    +0.000 A 
ENDBRANCH   1  16
BRANCH   8  19
ATOM     19  C   UNL     1       0.043  11.431  21.417  0.00  0.00    +0.000 C 
ATOM     20  N   UNL     1       0.578  12.342  20.560  0.00  0.00    +0.000 N 
ATOM     21  O   UNL     1       0.022  11.673  22.623  0.00  0.00    +0.000 OA
ATOM     22  H   UNL     1       0.516  12.269  19.555  0.00  0.00    +0.000 HD
ATOM     23  H   UNL     1       0.916  13.207  20.964  0.00  0.00    +0.000 HD
ENDBRANCH   8  19
TORSDOF 2
ENDMDL
MODEL 6
REMARK VINA RESULT:      -7.5      3.403      8.242
REMARK  Name = 
REMARK  3 active torsions:
REMARK  status: ('A' for Active; 'I' for Inactive)
REMARK    1  A    between atoms: C_1  and  C_2
REMARK    2  A    between atoms: C_5  and  C_6
REMARK    3  A    between atoms: C_13  and  C_14
REMARK                            x       y       z     vdW  Elec       q    Type
REMARK                         _______ _______ _______ _____ _____    ______ ____
ROOT
ATOM      1  C   UNL     1       3.309   5.813  18.435  0.00  0.00    +0.000 A 
ATOM      2  C   UNL     1       2.960   4.907  19.413  0.00  0.00    +0.000 A 
ATOM      3  S   UNL     1       2.022   5.667  20.610  0.00  0.00    +0.000 S 
ATOM      4  C   UNL     1       2.136   7.182  19.762  0.00  0.00    +0.000 A 
ATOM      5  N   UNL     1       1.501   8.306  20.199  0.00  0.00    +0.000 N 
ATOM      6  C   UNL     1       1.221   8.552  21.609  0.00  0.00    +0.000 C 
ATOM      7  C   UNL     1      -0.236   8.995  21.736  0.00  0.00    +0.000 C 
ATOM      8  C   UNL     1      -0.520  10.231  20.867  0.00  0.00    +0.000 C 
ATOM      9  C   UNL     1      -0.064   9.987  19.417  0.00  0.00    +0.000 C 
ATOM     10  C   UNL     1       1.378   9.469  19.329  0.00  0.00    +0.000 C 
ATOM     11  N   UNL     1       2.833   7.101  18.643  0.00  0.00    +0.000 NA
ENDROOT
BRANCH   1  16
ATOM     12  C   UNL     1       6.775   4.461  14.010  0.00  0.00    +0.000 C 
ATOM     13  C   UNL     1       5.853   4.801  15.142  0.00  0.00    +0.000 A 
ATOM     14  C   UNL     1       5.301   3.796  15.941  0.00  0.00    +0.000 A 
ATOM     15  C   UNL     1       4.452   4.123  17.002  0.00  0.00    +0.000 A 
ATOM     16  C   UNL     1       4.145   5.461  17.290  0.00  0.00    +0.000 A 
ATOM     17  C   UNL     1       4.680   6.464  16.476  0.00  0.00    +0.000 A 
ATOM     18  C   UNL     1       5.532   6.137  15.414  0.00  0.00    +0.000 A 
ENDBRANCH   1  16
BRANCH   8  19
ATOM     19  C   UNL     1       0.099  11.478  21.491  0.00  0.00    +0.000 C 
ATOM     20  N   UNL     1      -0.637  12.099  22.451  0.00  0.00    +0.000 N 
ATOM     21  O   UNL     1       1.220  11.903  21.215  0.00  0.00    +0.000 OA
ATOM     22  H   UNL     1      -1.504  11.735  22.816  0.00  0.00    +0.000 HD
ATOM     23  H   UNL     1      -0.204  12.883  22.923  0.00  0.00    +0.000 HD
ENDBRANCH   8  19
TORSDOF 2
ENDMDL
MODEL 7
REMARK VINA RESULT:      -7.3      3.420      4.361
REMARK  Name = 
REMARK  3 active torsions:
REMARK  status: ('A' for Active; 'I' for Inactive)
REMARK    1  A    between atoms: C_1  and  C_2
REMARK    2  A    between atoms: C_5  and  C_6
REMARK    3  A    between atoms: C_13  and  C_14
REMARK                            x       y       z     vdW  Elec       q    Type
REMARK                         _______ _______ _______ _____ _____    ______ ____
ROOT
ATOM      1  C   UNL     1       2.245   7.008  19.608  0.00  0.00    +0.000 A 
ATOM      2  C   UNL     1       2.002   5.758  20.134  0.00  0.00    +0.000 A 
ATOM      3  S   UNL     1       2.915   4.586  19.306  0.00  0.00    +0.000 S 
ATOM      4  C   UNL     1       3.587   5.814  18.274  0.00  0.00    +0.000 A 
ATOM      5  N   UNL     1       4.522   5.529  17.324  0.00  0.00    +0.000 N 
ATOM      6  C   UNL     1       4.598   4.232  16.660  0.00  0.00    +0.000 C 
ATOM      7  C   UNL     1       6.055   3.771  16.677  0.00  0.00    +0.000 C 
ATOM      8  C   UNL     1       6.976   4.812  16.018  0.00  0.00    +0.000 C 
ATOM      9  C   UNL     1       6.751   6.201  16.641  0.00  0.00    +0.000 C 
ATOM     10  C   UNL     1       5.270   6.601  16.680  0.00  0.00    +0.000 C 
ATOM     11  N   UNL     1       3.149   7.027  18.554  0.00  0.00    +0.000 NA
ENDROOT
BRANCH   1  16
ATOM     12  C   UNL     1      -0.559  11.720  21.442  0.00  0.00    +0.000 C 
ATOM     13  C   UNL     1       0.192  10.507  20.983  0.00  0.00    +0.000 A 
ATOM     14  C   UNL     1       0.437   9.444  21.857  0.00  0.00    +0.000 A 
ATOM     15  C   UNL     1       1.127   8.311  21.417  0.00  0.00    +0.000 A 
ATOM     16  C   UNL     1       1.579   8.215  20.091  0.00  0.00    +0.000 A 
ATOM     17  C   UNL     1       1.353   9.288  19.225  0.00  0.00    +0.000 A 
ATOM     18  C   UNL     1       0.660  10.423  19.665  0.00  0.00    +0.000 A 
ENDBRANCH   1  16
BRANCH   8  19
ATOM     19  C   UNL     1       6.802   4.796  14.502  0.00  0.00    +0.000 C 
ATOM     20  N   UNL     1       7.709   5.513  13.785  0.00  0.00    +0.000 N 
ATOM     21  O   UNL     1       5.941   4.145  13.913  0.00  0.00    +0.000 OA
ATOM     22  H   UNL     1       8.514   5.964  14.193  0.00  0.00    +0.000 HD
ATOM     23  H   UNL     1       7.647   5.449  12.777  0.00  0.00    +0.000 HD
ENDBRANCH   8  19
TORSDOF 2
ENDMDL
MODEL 8
REMARK VINA RESULT:      -7.3      1.024      1.032
REMARK  Name = 
REMARK  3 active torsions:
REMARK  status: ('A' for Active; 'I' for Inactive)
REMARK    1  A    between atoms: C_1  and  C_2
REMARK    2  A    between atoms: C_5  and  C_6
REMARK    3  A    between atoms: C_13  and  C_14
REMARK                            x       y       z     vdW  Elec       q    Type
REMARK                         _______ _______ _______ _____ _____    ______ ____
ROOT
ATOM      1  C   UNL     1       1.308   8.729  19.801  0.00  0.00    +0.000 A 
ATOM      2  C   UNL     1       1.918   9.242  18.677  0.00  0.00    +0.000 A 
ATOM      3  S   UNL     1       2.748   8.012  17.847  0.00  0.00    +0.000 S 
ATOM      4  C   UNL     1       2.254   6.848  19.042  0.00  0.00    +0.000 A 
ATOM      5  N   UNL     1       2.570   5.527  18.939  0.00  0.00    +0.000 N 
ATOM      6  C   UNL     1       3.775   5.057  18.263  0.00  0.00    +0.000 C 
ATOM      7  C   UNL     1       3.381   3.917  17.324  0.00  0.00    +0.000 C 
ATOM      8  C   UNL     1       2.669   2.787  18.086  0.00  0.00    +0.000 C 
ATOM      9  C   UNL     1       1.499   3.350  18.913  0.00  0.00    +0.000 C 
ATOM     10  C   UNL     1       1.909   4.542  19.787  0.00  0.00    +0.000 C 
ATOM     11  N   UNL     1       1.504   7.368  19.996  0.00  0.00    +0.000 NA
ENDROOT
BRANCH   1  16
ATOM     12  C   UNL     1      -1.868  11.930  23.419  0.00  0.00    +0.000 C 
ATOM     13  C   UNL     1      -1.020  11.107  22.497  0.00  0.00    +0.000 A 
ATOM     14  C   UNL     1      -0.504   9.875  22.910  0.00  0.00    +0.000 A 
ATOM     15  C   UNL     1       0.275   9.109  22.040  0.00  0.00    +0.000 A 
ATOM     16  C   UNL     1       0.547   9.553  20.736  0.00  0.00    +0.000 A 
ATOM     17  C   UNL     1       0.048  10.795  20.333  0.00  0.00    +0.000 A 
ATOM     18  C   UNL     1      -0.734  11.564  21.204  0.00  0.00    +0.000 A 
ENDBRANCH   1  16
BRANCH   8  19
ATOM     19  C   UNL     1       3.668   1.993  18.921  0.00  0.00    +0.000 C 
ATOM     20  N   UNL     1       4.061   0.795  18.409  0.00  0.00    +0.000 N 
ATOM     21  O   UNL     1       4.162   2.394  19.973  0.00  0.00    +0.000 OA
ATOM     22  H   UNL     1       3.797   0.463  17.494  0.00  0.00    +0.000 HD
ATOM     23  H   UNL     1       4.779   0.294  18.919  0.00  0.00    +0.000 HD
ENDBRANCH   8  19
TORSDOF 2
ENDMDL
MODEL 9
REMARK VINA RESULT:      -7.3      3.780      8.575
REMARK  Name = 
REMARK  3 active torsions:
REMARK  status: ('A' for Active; 'I' for Inactive)
REMARK    1  A    between atoms: C_1  and  C_2
REMARK    2  A    between atoms: C_5  and  C_6
REMARK    3  A    between atoms: C_13  and  C_14
REMARK                            x       y       z     vdW  Elec       q    Type
REMARK                         _______ _______ _______ _____ _____    ______ ____
ROOT
ATOM      1  C   UNL     1       3.117   6.613  18.381  0.00  0.00    +0.000 A 
ATOM      2  C   UNL     1       2.994   6.197  19.689  0.00  0.00    +0.000 A 
ATOM      3  S   UNL     1       1.989   7.263  20.552  0.00  0.00    +0.000 S 
ATOM      4  C   UNL     1       1.773   8.239  19.128  0.00  0.00    +0.000 A 
ATOM      5  N   UNL     1       0.960   9.332  19.116  0.00  0.00    +0.000 N 
ATOM      6  C   UNL     1       0.708  10.137  20.307  0.00  0.00    +0.000 C 
ATOM      7  C   UNL     1      -0.799  10.370  20.416  0.00  0.00    +0.000 C 
ATOM      8  C   UNL     1      -1.354  11.032  19.144  0.00  0.00    +0.000 C 
ATOM      9  C   UNL     1      -0.932  10.237  17.895  0.00  0.00    +0.000 C 
ATOM     10  C   UNL     1       0.576   9.953  17.855  0.00  0.00    +0.000 C 
ATOM     11  N   UNL     1       2.417   7.772  18.074  0.00  0.00    +0.000 NA
ENDROOT
BRANCH   1  16
ATOM     12  C   UNL     1       6.243   3.829  14.394  0.00  0.00    +0.000 C 
ATOM     13  C   UNL     1       5.458   4.558  15.442  0.00  0.00    +0.000 A 
ATOM     14  C   UNL     1       5.485   5.953  15.515  0.00  0.00    +0.000 A 
ATOM     15  C   UNL     1       4.740   6.624  16.488  0.00  0.00    +0.000 A 
ATOM     16  C   UNL     1       3.946   5.915  17.402  0.00  0.00    +0.000 A 
ATOM     17  C   UNL     1       3.938   4.518  17.342  0.00  0.00    +0.000 A 
ATOM     18  C   UNL     1       4.683   3.845  16.366  0.00  0.00    +0.000 A 
ENDBRANCH   1  16
BRANCH   8  19
ATOM     19  C   UNL     1      -0.951  12.502  19.087  0.00  0.00    +0.000 C 
ATOM     20  N   UNL     1      -0.912  13.067  17.850  0.00  0.00    +0.000 N 
ATOM     21  O   UNL     1      -0.720  13.193  20.077  0.00  0.00    +0.000 OA
ATOM     22  H   UNL     1      -1.212  12.597  17.010  0.00  0.00    +0.000 HD
ATOM     23  H   UNL     1      -0.717  14.060  17.807  0.00  0.00    +0.000 HD
ENDBRANCH   8  19
TORSDOF 2
ENDMDL
