MODEL 1
REMARK VINA RESULT:      -8.4      0.000      0.000
REMARK  Name = 
REMARK  7 active torsions:
REMARK  status: ('A' for Active; 'I' for Inactive)
REMARK    1  A    between atoms: C_1  and  O_2
REMARK    2  A    between atoms: O_2  and  C_3
REMARK    3  A    between atoms: C_6  and  N_7
REMARK    4  A    between atoms: C_9  and  C_10
REMARK    5  A    between atoms: C_18  and  C_19
REMARK    6  A    between atoms: C_23  and  C_24
REMARK    7  A    between atoms: C_24  and  O_26
REMARK                            x       y       z     vdW  Elec       q    Type
REMARK                         _______ _______ _______ _____ _____    ______ ____
ROOT
ATOM      1  N   UNL     1      -1.389  12.201  21.245  0.00  0.00    +0.000 N 
ATOM      2  C   UNL     1      -2.219  12.224  20.132  0.00  0.00    +0.000 A 
ATOM      3  C   UNL     1      -1.864  11.211  19.265  0.00  0.00    +0.000 A 
ATOM      4  C   UNL     1      -0.803  10.501  19.896  0.00  0.00    +0.000 A 
ATOM      5  C   UNL     1      -0.082   9.331  19.593  0.00  0.00    +0.000 A 
ATOM      6  C   UNL     1       0.929   8.878  20.446  0.00  0.00    +0.000 A 
ATOM      7  C   UNL     1       1.148   9.650  21.587  0.00  0.00    +0.000 A 
ATOM      8  N   UNL     1       0.474  10.768  21.958  0.00  0.00    +0.000 NA
ATOM      9  C   UNL     1      -0.486  11.154  21.084  0.00  0.00    +0.000 A 
ENDROOT
BRANCH   1  13
ATOM     10  C   UNL     1      -1.713  14.876  24.511  0.00  0.00    +0.000 A 
ATOM     11  C   UNL     1      -2.650  13.857  24.337  0.00  0.00    +0.000 A 
ATOM     12  C   UNL     1      -2.545  12.971  23.261  0.00  0.00    +0.000 A 
ATOM     13  C   UNL     1      -1.489  13.099  22.347  0.00  0.00    +0.000 A 
ATOM     14  C   UNL     1      -0.550  14.120  22.523  0.00  0.00    +0.000 A 
ATOM     15  C   UNL     1      -0.673  15.014  23.593  0.00  0.00    +0.000 A 
BRANCH  10  17
ATOM     16  C   UNL     1      -0.804  15.937  26.413  0.00  0.00    +0.000 C 
ATOM     17  O   UNL     1      -1.934  15.694  25.584  0.00  0.00    +0.000 OA
ENDBRANCH  10  17
ENDBRANCH   1  13
BRANCH   3  18
ATOM     18  C   UNL     1      -2.523  10.954  17.987  0.00  0.00    +0.000 A 
ATOM     19  C   UNL     1      -3.766  11.530  17.702  0.00  0.00    +0.000 A 
ATOM     20  C   UNL     1      -4.316  11.348  16.445  0.00  0.00    +0.000 A 
ATOM     21  N   UNL     1      -3.742  10.604  15.480  0.00  0.00    +0.000 NA
ATOM     22  C   UNL     1      -2.567  10.017  15.789  0.00  0.00    +0.000 A 
ATOM     23  C   UNL     1      -1.923  10.163  17.008  0.00  0.00    +0.000 A 
ENDBRANCH   3  18
BRANCH   6  24
ATOM     24  C   UNL     1       1.646   7.625  20.145  0.00  0.00    +0.000 A 
ATOM     25  C   UNL     1       2.604   7.570  19.115  0.00  0.00    +0.000 A 
ATOM     26  C   UNL     1       3.214   6.368  18.743  0.00  0.00    +0.000 A 
ATOM     27  C   UNL     1       2.888   5.193  19.408  0.00  0.00    +0.000 A 
ATOM     28  C   UNL     1       1.954   5.216  20.450  0.00  0.00    +0.000 A 
ATOM     29  C   UNL     1       1.353   6.429  20.823  0.00  0.00    +0.000 A 
BRANCH  28  30
ATOM     30  C   UNL     1       1.666   3.941  21.155  0.00  0.00    +0.000 C 
ATOM     31  O   UNL     1       2.322   3.558  22.106  0.00  0.00    +0.000 OA
BRANCH  30  32
ATOM     32  O   UNL     1       0.637   3.236  20.643  0.00  0.00    +0.000 OA
ATOM     33  H   UNL     1       0.588   3.200  19.671  0.00  0.00    +0.000 HD
ENDBRANCH  30  32
ENDBRANCH  28  30
ENDBRANCH   6  24
TORSDOF 6
ENDMDL
MODEL 2
REMARK VINA RESULT:      -8.3      4.603     10.659
REMARK  Name = 
REMARK  7 active torsions:
REMARK  status: ('A' for Active; 'I' for Inactive)
REMARK    1  A    between atoms: C_1  and  O_2
REMARK    2  A    between atoms: O_2  and  C_3
REMARK    3  A    between atoms: C_6  and  N_7
REMARK    4  A    between atoms: C_9  and  C_10
REMARK    5  A    between atoms: C_18  and  C_19
REMARK    6  A    between atoms: C_23  and  C_24
REMARK    7  A    between atoms: C_24  and  O_26
REMARK                            x       y       z     vdW  Elec       q    Type
REMARK                         _______ _______ _______ _____ _____    ______ ____
ROOT
ATOM      1  N   UNL     1       4.447   4.975  17.028  0.00  0.00    +0.000 N 
ATOM      2  C   UNL     1       4.127   3.927  17.879  0.00  0.00    +0.000 A 
ATOM      3  C   UNL     1       3.315   4.384  18.898  0.00  0.00    +0.000 A 
ATOM      4  C   UNL     1       3.084   5.764  18.632  0.00  0.00    +0.000 A 
ATOM      5  C   UNL     1       2.280   6.760  19.217  0.00  0.00    +0.000 A 
ATOM      6  C   UNL     1       2.269   8.059  18.700  0.00  0.00    +0.000 A 
ATOM      7  C   UNL     1       3.085   8.275  17.590  0.00  0.00    +0.000 A 
ATOM      8  N   UNL     1       3.861   7.360  16.957  0.00  0.00    +0.000 NA
ATOM      9  C   UNL     1       3.829   6.125  17.512  0.00  0.00    +0.000 A 
ENDROOT
BRANCH   1  13
ATOM     10  C   UNL     1       6.845   4.578  13.561  0.00  0.00    +0.000 A 
ATOM     11  C   UNL     1       5.540   4.086  13.577  0.00  0.00    +0.000 A 
ATOM     12  C   UNL     1       4.745   4.217  14.719  0.00  0.00    +0.000 A 
ATOM     13  C   UNL     1       5.256   4.852  15.861  0.00  0.00    +0.000 A 
ATOM     14  C   UNL     1       6.564   5.344  15.843  0.00  0.00    +0.000 A 
ATOM     15  C   UNL     1       7.360   5.193  14.701  0.00  0.00    +0.000 A 
BRANCH  10  17
ATOM     16  C   UNL     1       7.141   3.221  11.654  0.00  0.00    +0.000 C 
ATOM     17  O   UNL     1       7.533   4.369  12.398  0.00  0.00    +0.000 OA
ENDBRANCH  10  17
ENDBRANCH   1  13
BRANCH   3  18
ATOM     18  C   UNL     1       2.800   3.547  19.977  0.00  0.00    +0.000 A 
ATOM     19  C   UNL     1       3.631   2.618  20.612  0.00  0.00    +0.000 A 
ATOM     20  C   UNL     1       3.140   1.912  21.697  0.00  0.00    +0.000 A 
ATOM     21  N   UNL     1       1.881   2.033  22.159  0.00  0.00    +0.000 NA
ATOM     22  C   UNL     1       1.079   2.899  21.504  0.00  0.00    +0.000 A 
ATOM     23  C   UNL     1       1.486   3.672  20.428  0.00  0.00    +0.000 A 
ENDBRANCH   3  18
BRANCH   6  24
ATOM     24  C   UNL     1       1.386   9.083  19.290  0.00  0.00    +0.000 A 
ATOM     25  C   UNL     1       1.074  10.261  18.587  0.00  0.00    +0.000 A 
ATOM     26  C   UNL     1       0.329  11.290  19.171  0.00  0.00    +0.000 A 
ATOM     27  C   UNL     1      -0.133  11.154  20.474  0.00  0.00    +0.000 A 
ATOM     28  C   UNL     1       0.142   9.988  21.195  0.00  0.00    +0.000 A 
ATOM     29  C   UNL     1       0.883   8.955  20.597  0.00  0.00    +0.000 A 
BRANCH  28  30
ATOM     30  C   UNL     1      -0.405   9.873  22.571  0.00  0.00    +0.000 C 
ATOM     31  O   UNL     1      -0.382  10.798  23.362  0.00  0.00    +0.000 OA
BRANCH  30  32
ATOM     32  O   UNL     1      -0.906   8.659  22.877  0.00  0.00    +0.000 OA
ATOM     33  H   UNL     1      -1.849   8.636  23.119  0.00  0.00    +0.000 HD
ENDBRANCH  30  32
ENDBRANCH  28  30
ENDBRANCH   6  24
TORSDOF 6
ENDMDL
MODEL 3
REMARK VINA RESULT:      -8.1      4.518     10.546
REMARK  Name = 
REMARK  7 active torsions:
REMARK  status: ('A' for Active; 'I' for Inactive)
REMARK    1  A    between atoms: C_1  and  O_2
REMARK    2  A    between atoms: O_2  and  C_3
REMARK    3  A    between atoms: C_6  and  N_7
REMARK    4  A    between atoms: C_9  and  C_10
REMARK    5  A    between atoms: C_18  and  C_19
REMARK    6  A    between atoms: C_23  and  C_24
REMARK    7  A    between atoms: C_24  and  O_26
REMARK                            x       y       z     vdW  Elec       q    Type
REMARK                         _______ _______ _______ _____ _____    ______ ____
ROOT
ATOM      1  N   UNL     1       4.476   5.133  17.231  0.00  0.00    +0.000 N 
ATOM      2  C   UNL     1       4.182   4.087  18.095  0.00  0.00    +0.000 A 
ATOM      3  C   UNL     1       3.333   4.529  19.089  0.00  0.00    +0.000 A 
ATOM      4  C   UNL     1       3.050   5.893  18.793  0.00  0.00    +0.000 A 
ATOM      5  C   UNL     1       2.194   6.864  19.344  0.00  0.00    +0.000 A 
ATOM      6  C   UNL     1       2.140   8.153  18.803  0.00  0.00    +0.000 A 
ATOM      7  C   UNL     1       2.968   8.383  17.706  0.00  0.00    +0.000 A 
ATOM      8  N   UNL     1       3.794   7.489  17.105  0.00  0.00    +0.000 NA
ATOM      9  C   UNL     1       3.802   6.264  17.682  0.00  0.00    +0.000 A 
ENDROOT
BRANCH   1  13
ATOM     10  C   UNL     1       6.957   4.775  13.819  0.00  0.00    +0.000 A 
ATOM     11  C   UNL     1       5.676   4.223  13.821  0.00  0.00    +0.000 A 
ATOM     12  C   UNL     1       4.854   4.340  14.945  0.00  0.00    +0.000 A 
ATOM     13  C   UNL     1       5.312   5.022  16.082  0.00  0.00    +0.000 A 
ATOM     14  C   UNL     1       6.596   5.576  16.078  0.00  0.00    +0.000 A 
ATOM     15  C   UNL     1       7.421   5.438  14.954  0.00  0.00    +0.000 A 
BRANCH  10  17
ATOM     16  C   UNL     1       7.050   3.754  11.693  0.00  0.00    +0.000 C 
ATOM     17  O   UNL     1       7.677   4.573  12.674  0.00  0.00    +0.000 OA
ENDBRANCH  10  17
ENDBRANCH   1  13
BRANCH   3  18
ATOM     18  C   UNL     1       2.831   3.690  20.174  0.00  0.00    +0.000 A 
ATOM     19  C   UNL     1       1.531   3.863  20.661  0.00  0.00    +0.000 A 
ATOM     20  C   UNL     1       1.053   2.986  21.620  0.00  0.00    +0.000 A 
ATOM     21  N   UNL     1       1.787   1.990  22.153  0.00  0.00    +0.000 NA
ATOM     22  C   UNL     1       3.054   1.869  21.705  0.00  0.00    +0.000 A 
ATOM     23  C   UNL     1       3.614   2.677  20.729  0.00  0.00    +0.000 A 
ENDBRANCH   3  18
BRANCH   6  24
ATOM     24  C   UNL     1       1.204   9.150  19.358  0.00  0.00    +0.000 A 
ATOM     25  C   UNL     1       0.641  10.146  18.539  0.00  0.00    +0.000 A 
ATOM     26  C   UNL     1      -0.161  11.163  19.066  0.00  0.00    +0.000 A 
ATOM     27  C   UNL     1      -0.429  11.195  20.429  0.00  0.00    +0.000 A 
ATOM     28  C   UNL     1       0.100  10.209  21.269  0.00  0.00    +0.000 A 
ATOM     29  C   UNL     1       0.896   9.186  20.729  0.00  0.00    +0.000 A 
BRANCH  28  30
ATOM     30  C   UNL     1      -0.245  10.264  22.712  0.00  0.00    +0.000 C 
ATOM     31  O   UNL     1       0.403   9.681  23.561  0.00  0.00    +0.000 OA
BRANCH  30  32
ATOM     32  O   UNL     1      -1.344  10.992  23.000  0.00  0.00    +0.000 OA
ATOM     33  H   UNL     1      -1.183  11.863  23.405  0.00  0.00    +0.000 HD
ENDBRANCH  30  32
ENDBRANCH  28  30
ENDBRANCH   6  24
TORSDOF 6
ENDMDL
MODEL 4
REMARK VINA RESULT:      -8.1      0.459      1.272
REMARK  Name = 
REMARK  7 active torsions:
REMARK  status: ('A' for Active; 'I' for Inactive)
REMARK    1  A    between atoms: C_1  and  O_2
REMARK    2  A    between atoms: O_2  and  C_3
REMARK    3  A    between atoms: C_6  and  N_7
REMARK    4  A    between atoms: C_9  and  C_10
REMARK    5  A    between atoms: C_18  and  C_19
REMARK    6  A    between atoms: C_23  and  C_24
REMARK    7  A    between atoms: C_24  and  O_26
REMARK                            x       y       z     vdW  Elec       q    Type
REMARK                         _______ _______ _______ _____ _____    ______ ____
ROOT
ATOM      1  N   UNL     1      -1.168  12.309  21.092  0.00  0.00    +0.000 N 
ATOM      2  C   UNL     1      -2.023  12.341  19.999  0.00  0.00    +0.000 A 
ATOM      3  C   UNL     1      -1.722  11.303  19.141  0.00  0.00    +0.000 A 
ATOM      4  C   UNL     1      -0.669  10.569  19.759  0.00  0.00    +0.000 A 
ATOM      5  C   UNL     1       0.006   9.372  19.460  0.00  0.00    +0.000 A 
ATOM      6  C   UNL     1       1.022   8.900  20.298  0.00  0.00    +0.000 A 
ATOM      7  C   UNL     1       1.292   9.683  21.420  0.00  0.00    +0.000 A 
ATOM      8  N   UNL     1       0.664  10.829  21.786  0.00  0.00    +0.000 NA
ATOM      9  C   UNL     1      -0.304  11.231  20.928  0.00  0.00    +0.000 A 
ENDROOT
BRANCH   1  13
ATOM     10  C   UNL     1      -1.273  15.035  24.331  0.00  0.00    +0.000 A 
ATOM     11  C   UNL     1      -0.369  15.217  23.283  0.00  0.00    +0.000 A 
ATOM     12  C   UNL     1      -0.333  14.320  22.212  0.00  0.00    +0.000 A 
ATOM     13  C   UNL     1      -1.213  13.229  22.180  0.00  0.00    +0.000 A 
ATOM     14  C   UNL     1      -2.118  13.047  23.231  0.00  0.00    +0.000 A 
ATOM     15  C   UNL     1      -2.136  13.940  24.309  0.00  0.00    +0.000 A 
BRANCH  10  17
ATOM     16  C   UNL     1      -2.304  16.848  25.433  0.00  0.00    +0.000 C 
ATOM     17  O   UNL     1      -1.196  15.961  25.334  0.00  0.00    +0.000 OA
ENDBRANCH  10  17
ENDBRANCH   1  13
BRANCH   3  18
ATOM     18  C   UNL     1      -2.419  11.046  17.884  0.00  0.00    +0.000 A 
ATOM     19  C   UNL     1      -1.880  10.165  16.941  0.00  0.00    +0.000 A 
ATOM     20  C   UNL     1      -2.614   9.867  15.806  0.00  0.00    +0.000 A 
ATOM     21  N   UNL     1      -3.813  10.414  15.527  0.00  0.00    +0.000 NA
ATOM     22  C   UNL     1      -4.296  11.299  16.425  0.00  0.00    +0.000 A 
ATOM     23  C   UNL     1      -3.650  11.639  17.604  0.00  0.00    +0.000 A 
ENDBRANCH   3  18
BRANCH   6  24
ATOM     24  C   UNL     1       1.691   7.619  20.002  0.00  0.00    +0.000 A 
ATOM     25  C   UNL     1       2.611   7.513  18.943  0.00  0.00    +0.000 A 
ATOM     26  C   UNL     1       3.173   6.285  18.579  0.00  0.00    +0.000 A 
ATOM     27  C   UNL     1       2.834   5.135  19.281  0.00  0.00    +0.000 A 
ATOM     28  C   UNL     1       1.938   5.209  20.352  0.00  0.00    +0.000 A 
ATOM     29  C   UNL     1       1.385   6.448  20.717  0.00  0.00    +0.000 A 
BRANCH  28  30
ATOM     30  C   UNL     1       1.635   3.959  21.096  0.00  0.00    +0.000 C 
ATOM     31  O   UNL     1       2.271   3.613  22.075  0.00  0.00    +0.000 OA
BRANCH  30  32
ATOM     32  O   UNL     1       0.620   3.233  20.586  0.00  0.00    +0.000 OA
ATOM     33  H   UNL     1      -0.087   2.992  21.212  0.00  0.00    +0.000 HD
ENDBRANCH  30  32
ENDBRANCH  28  30
ENDBRANCH   6  24
TORSDOF 6
ENDMDL
MODEL 5
REMARK VINA RESULT:      -8.0      0.861      1.553
REMARK  Name = 
REMARK  7 active torsions:
REMARK  status: ('A' for Active; 'I' for Inactive)
REMARK    1  A    between atoms: C_1  and  O_2
REMARK    2  A    between atoms: O_2  and  C_3
REMARK    3  A    between atoms: C_6  and  N_7
REMARK    4  A    between atoms: C_9  and  C_10
REMARK    5  A    between atoms: C_18  and  C_19
REMARK    6  A    between atoms: C_23  and  C_24
REMARK    7  A    between atoms: C_24  and  O_26
REMARK                            x       y       z     vdW  Elec       q    Type
REMARK                         _______ _______ _______ _____ _____    ______ ____
ROOT
ATOM      1  N   UNL     1      -1.787  12.343  21.166  0.00  0.00    +0.000 N 
ATOM      2  C   UNL     1      -2.647  12.396  20.078  0.00  0.00    +0.000 A 
ATOM      3  C   UNL     1      -2.191  11.557  19.082  0.00  0.00    +0.000 A 
ATOM      4  C   UNL     1      -1.028  10.919  19.601  0.00  0.00    +0.000 A 
ATOM      5  C   UNL     1      -0.173   9.901  19.140  0.00  0.00    +0.000 A 
ATOM      6  C   UNL     1       0.913   9.481  19.914  0.00  0.00    +0.000 A 
ATOM      7  C   UNL     1       1.066  10.124  21.142  0.00  0.00    +0.000 A 
ATOM      8  N   UNL     1       0.266  11.089  21.663  0.00  0.00    +0.000 NA
ATOM      9  C   UNL     1      -0.762  11.453  20.859  0.00  0.00    +0.000 A 
ENDROOT
BRANCH   1  13
ATOM     10  C   UNL     1      -2.299  14.503  24.771  0.00  0.00    +0.000 A 
ATOM     11  C   UNL     1      -1.151  14.681  23.998  0.00  0.00    +0.000 A 
ATOM     12  C   UNL     1      -0.979  13.971  22.807  0.00  0.00    +0.000 A 
ATOM     13  C   UNL     1      -1.968  13.074  22.376  0.00  0.00    +0.000 A 
ATOM     14  C   UNL     1      -3.117  12.896  23.152  0.00  0.00    +0.000 A 
ATOM     15  C   UNL     1      -3.274  13.599  24.353  0.00  0.00    +0.000 A 
BRANCH  10  17
ATOM     16  C   UNL     1      -1.150  15.941  26.248  0.00  0.00    +0.000 C 
ATOM     17  O   UNL     1      -2.342  15.232  25.927  0.00  0.00    +0.000 OA
ENDBRANCH  10  17
ENDBRANCH   1  13
BRANCH   3  18
ATOM     18  C   UNL     1      -2.851  11.378  17.791  0.00  0.00    +0.000 A 
ATOM     19  C   UNL     1      -2.140  10.879  16.695  0.00  0.00    +0.000 A 
ATOM     20  C   UNL     1      -2.819  10.628  15.515  0.00  0.00    +0.000 A 
ATOM     21  N   UNL     1      -4.130  10.879  15.340  0.00  0.00    +0.000 NA
ATOM     22  C   UNL     1      -4.789  11.406  16.393  0.00  0.00    +0.000 A 
ATOM     23  C   UNL     1      -4.205  11.666  17.623  0.00  0.00    +0.000 A 
ENDBRANCH   3  18
BRANCH   6  24
ATOM     24  C   UNL     1       1.776   8.381  19.443  0.00  0.00    +0.000 A 
ATOM     25  C   UNL     1       2.470   8.478  18.223  0.00  0.00    +0.000 A 
ATOM     26  C   UNL     1       3.205   7.405  17.709  0.00  0.00    +0.000 A 
ATOM     27  C   UNL     1       3.273   6.212  18.417  0.00  0.00    +0.000 A 
ATOM     28  C   UNL     1       2.612   6.088  19.643  0.00  0.00    +0.000 A 
ATOM     29  C   UNL     1       1.883   7.174  20.157  0.00  0.00    +0.000 A 
BRANCH  28  30
ATOM     30  C   UNL     1       2.745   4.806  20.381  0.00  0.00    +0.000 C 
ATOM     31  O   UNL     1       2.053   4.533  21.345  0.00  0.00    +0.000 OA
BRANCH  30  32
ATOM     32  O   UNL     1       3.705   3.985  19.912  0.00  0.00    +0.000 OA
ATOM     33  H   UNL     1       4.472   4.420  19.498  0.00  0.00    +0.000 HD
ENDBRANCH  30  32
ENDBRANCH  28  30
ENDBRANCH   6  24
TORSDOF 6
ENDMDL
MODEL 6
REMARK VINA RESULT:      -8.0      4.809     10.781
REMARK  Name = 
REMARK  7 active torsions:
REMARK  status: ('A' for Active; 'I' for Inactive)
REMARK    1  A    between atoms: C_1  and  O_2
REMARK    2  A    between atoms: O_2  and  C_3
REMARK    3  A    between atoms: C_6  and  N_7
REMARK    4  A    between atoms: C_9  and  C_10
REMARK    5  A    between atoms: C_18  and  C_19
REMARK    6  A    between atoms: C_23  and  C_24
REMARK    7  A    between atoms: C_24  and  O_26
REMARK                            x       y       z     vdW  Elec       q    Type
REMARK                         _______ _______ _______ _____ _____    ______ ____
ROOT
ATOM      1  N   UNL     1       4.434   5.144  17.107  0.00  0.00    +0.000 N 
ATOM      2  C   UNL     1       4.105   4.096  17.955  0.00  0.00    +0.000 A 
ATOM      3  C   UNL     1       3.239   4.541  18.933  0.00  0.00    +0.000 A 
ATOM      4  C   UNL     1       2.982   5.911  18.642  0.00  0.00    +0.000 A 
ATOM      5  C   UNL     1       2.126   6.890  19.180  0.00  0.00    +0.000 A 
ATOM      6  C   UNL     1       2.102   8.183  18.649  0.00  0.00    +0.000 A 
ATOM      7  C   UNL     1       2.960   8.411  17.573  0.00  0.00    +0.000 A 
ATOM      8  N   UNL     1       3.787   7.511  16.984  0.00  0.00    +0.000 NA
ATOM      9  C   UNL     1       3.765   6.281  17.551  0.00  0.00    +0.000 A 
ENDROOT
BRANCH   1  13
ATOM     10  C   UNL     1       6.988   4.779  13.750  0.00  0.00    +0.000 A 
ATOM     11  C   UNL     1       5.678   4.304  13.695  0.00  0.00    +0.000 A 
ATOM     12  C   UNL     1       4.831   4.425  14.800  0.00  0.00    +0.000 A 
ATOM     13  C   UNL     1       5.295   5.031  15.977  0.00  0.00    +0.000 A 
ATOM     14  C   UNL     1       6.609   5.507  16.031  0.00  0.00    +0.000 A 
ATOM     15  C   UNL     1       7.456   5.366  14.925  0.00  0.00    +0.000 A 
BRANCH  10  17
ATOM     16  C   UNL     1       7.154   3.701  11.657  0.00  0.00    +0.000 C 
ATOM     17  O   UNL     1       7.728   4.581  12.617  0.00  0.00    +0.000 OA
ENDBRANCH  10  17
ENDBRANCH   1  13
BRANCH   3  18
ATOM     18  C   UNL     1       2.700   3.700  19.999  0.00  0.00    +0.000 A 
ATOM     19  C   UNL     1       3.513   2.758  20.638  0.00  0.00    +0.000 A 
ATOM     20  C   UNL     1       3.000   2.049  21.710  0.00  0.00    +0.000 A 
ATOM     21  N   UNL     1       1.736   2.180  22.156  0.00  0.00    +0.000 NA
ATOM     22  C   UNL     1       0.952   3.058  21.496  0.00  0.00    +0.000 A 
ATOM     23  C   UNL     1       1.381   3.835  20.432  0.00  0.00    +0.000 A 
ENDBRANCH   3  18
BRANCH   6  24
ATOM     24  C   UNL     1       1.168   9.189  19.190  0.00  0.00    +0.000 A 
ATOM     25  C   UNL     1       1.031   9.376  20.578  0.00  0.00    +0.000 A 
ATOM     26  C   UNL     1       0.074  10.245  21.111  0.00  0.00    +0.000 A 
ATOM     27  C   UNL     1      -0.760  10.961  20.259  0.00  0.00    +0.000 A 
ATOM     28  C   UNL     1      -0.636  10.813  18.874  0.00  0.00    +0.000 A 
ATOM     29  C   UNL     1       0.333   9.944  18.347  0.00  0.00    +0.000 A 
BRANCH  28  30
ATOM     30  C   UNL     1      -1.524  11.626  18.005  0.00  0.00    +0.000 C 
ATOM     31  O   UNL     1      -2.652  11.274  17.713  0.00  0.00    +0.000 OA
BRANCH  30  32
ATOM     32  O   UNL     1      -0.972  12.769  17.550  0.00  0.00    +0.000 OA
ATOM     33  H   UNL     1      -1.174  13.001  16.626  0.00  0.00    +0.000 HD
ENDBRANCH  30  32
ENDBRANCH  28  30
ENDBRANCH   6  24
TORSDOF 6
ENDMDL
MODEL 7
REMARK VINA RESULT:      -8.0      4.526     10.536
REMARK  Name = 
REMARK  7 active torsions:
REMARK  status: ('A' for Active; 'I' for Inactive)
REMARK    1  A    between atoms: C_1  and  O_2
REMARK    2  A    between atoms: O_2  and  C_3
REMARK    3  A    between atoms: C_6  and  N_7
REMARK    4  A    between atoms: C_9  and  C_10
REMARK    5  A    between atoms: C_18  and  C_19
REMARK    6  A    between atoms: C_23  and  C_24
REMARK    7  A    between atoms: C_24  and  O_26
REMARK                            x       y       z     vdW  Elec       q    Type
REMARK                         _______ _______ _______ _____ _____    ______ ____
ROOT
ATOM      1  N   UNL     1       4.441   5.071  17.164  0.00  0.00    +0.000 N 
ATOM      2  C   UNL     1       4.122   4.014  18.006  0.00  0.00    +0.000 A 
ATOM      3  C   UNL     1       3.273   4.453  19.002  0.00  0.00    +0.000 A 
ATOM      4  C   UNL     1       3.018   5.827  18.731  0.00  0.00    +0.000 A 
ATOM      5  C   UNL     1       2.177   6.804  19.294  0.00  0.00    +0.000 A 
ATOM      6  C   UNL     1       2.151   8.103  18.778  0.00  0.00    +0.000 A 
ATOM      7  C   UNL     1       2.992   8.339  17.691  0.00  0.00    +0.000 A 
ATOM      8  N   UNL     1       3.805   7.441  17.078  0.00  0.00    +0.000 NA
ATOM      9  C   UNL     1       3.786   6.205  17.632  0.00  0.00    +0.000 A 
ENDROOT
BRANCH   1  13
ATOM     10  C   UNL     1       6.945   4.788  13.761  0.00  0.00    +0.000 A 
ATOM     11  C   UNL     1       7.377   5.465  14.901  0.00  0.00    +0.000 A 
ATOM     12  C   UNL     1       6.555   5.559  16.027  0.00  0.00    +0.000 A 
ATOM     13  C   UNL     1       5.284   4.966  16.018  0.00  0.00    +0.000 A 
ATOM     14  C   UNL     1       4.851   4.288  14.875  0.00  0.00    +0.000 A 
ATOM     15  C   UNL     1       5.675   4.213  13.745  0.00  0.00    +0.000 A 
BRANCH  10  17
ATOM     16  C   UNL     1       8.640   5.948  12.598  0.00  0.00    +0.000 C 
ATOM     17  O   UNL     1       7.826   4.786  12.716  0.00  0.00    +0.000 OA
ENDBRANCH  10  17
ENDBRANCH   1  13
BRANCH   3  18
ATOM     18  C   UNL     1       2.748   3.603  20.067  0.00  0.00    +0.000 A 
ATOM     19  C   UNL     1       3.566   2.649  20.681  0.00  0.00    +0.000 A 
ATOM     20  C   UNL     1       3.067   1.930  21.754  0.00  0.00    +0.000 A 
ATOM     21  N   UNL     1       1.812   2.063  22.222  0.00  0.00    +0.000 NA
ATOM     22  C   UNL     1       1.022   2.953  21.587  0.00  0.00    +0.000 A 
ATOM     23  C   UNL     1       1.437   3.740  20.524  0.00  0.00    +0.000 A 
ENDBRANCH   3  18
BRANCH   6  24
ATOM     24  C   UNL     1       1.230   9.107  19.345  0.00  0.00    +0.000 A 
ATOM     25  C   UNL     1       0.694  10.131  18.542  0.00  0.00    +0.000 A 
ATOM     26  C   UNL     1      -0.092  11.153  19.083  0.00  0.00    +0.000 A 
ATOM     27  C   UNL     1      -0.372  11.162  20.444  0.00  0.00    +0.000 A 
ATOM     28  C   UNL     1       0.129  10.149  21.267  0.00  0.00    +0.000 A 
ATOM     29  C   UNL     1       0.910   9.121  20.714  0.00  0.00    +0.000 A 
BRANCH  28  30
ATOM     30  C   UNL     1      -0.228  10.181  22.709  0.00  0.00    +0.000 C 
ATOM     31  O   UNL     1      -1.252  10.697  23.116  0.00  0.00    +0.000 OA
BRANCH  30  32
ATOM     32  O   UNL     1       0.683   9.614  23.526  0.00  0.00    +0.000 OA
ATOM     33  H   UNL     1       1.068   8.774  23.217  0.00  0.00    +0.000 HD
ENDBRANCH  30  32
ENDBRANCH  28  30
ENDBRANCH   6  24
TORSDOF 6
ENDMDL
MODEL 8
REMARK VINA RESULT:      -7.9      4.769     10.777
REMARK  Name = 
REMARK  7 active torsions:
REMARK  status: ('A' for Active; 'I' for Inactive)
REMARK    1  A    between atoms: C_1  and  O_2
REMARK    2  A    between atoms: O_2  and  C_3
REMARK    3  A    between atoms: C_6  and  N_7
REMARK    4  A    between atoms: C_9  and  C_10
REMARK    5  A    between atoms: C_18  and  C_19
REMARK    6  A    between atoms: C_23  and  C_24
REMARK    7  A    between atoms: C_24  and  O_26
REMARK                            x       y       z     vdW  Elec       q    Type
REMARK                         _______ _______ _______ _____ _____    ______ ____
ROOT
ATOM      1  N   UNL     1       4.479   5.162  17.205  0.00  0.00    +0.000 N 
ATOM      2  C   UNL     1       4.162   4.124  18.070  0.00  0.00    +0.000 A 
ATOM      3  C   UNL     1       3.317   4.584  19.060  0.00  0.00    +0.000 A 
ATOM      4  C   UNL     1       3.062   5.953  18.761  0.00  0.00    +0.000 A 
ATOM      5  C   UNL     1       2.223   6.942  19.306  0.00  0.00    +0.000 A 
ATOM      6  C   UNL     1       2.196   8.230  18.762  0.00  0.00    +0.000 A 
ATOM      7  C   UNL     1       3.033   8.442  17.667  0.00  0.00    +0.000 A 
ATOM      8  N   UNL     1       3.844   7.530  17.071  0.00  0.00    +0.000 NA
ATOM      9  C   UNL     1       3.826   6.307  17.651  0.00  0.00    +0.000 A 
ENDROOT
BRANCH   1  13
ATOM     10  C   UNL     1       6.965   4.747  13.803  0.00  0.00    +0.000 A 
ATOM     11  C   UNL     1       5.679   4.208  13.807  0.00  0.00    +0.000 A 
ATOM     12  C   UNL     1       4.854   4.344  14.928  0.00  0.00    +0.000 A 
ATOM     13  C   UNL     1       5.317   5.032  16.059  0.00  0.00    +0.000 A 
ATOM     14  C   UNL     1       6.607   5.572  16.053  0.00  0.00    +0.000 A 
ATOM     15  C   UNL     1       7.432   5.416  14.933  0.00  0.00    +0.000 A 
BRANCH  10  17
ATOM     16  C   UNL     1       7.049   3.714  11.683  0.00  0.00    +0.000 C 
ATOM     17  O   UNL     1       7.685   4.527  12.662  0.00  0.00    +0.000 OA
ENDBRANCH  10  17
ENDBRANCH   1  13
BRANCH   3  18
ATOM     18  C   UNL     1       2.796   3.758  20.145  0.00  0.00    +0.000 A 
ATOM     19  C   UNL     1       1.467   3.890  20.561  0.00  0.00    +0.000 A 
ATOM     20  C   UNL     1       0.976   3.023  21.523  0.00  0.00    +0.000 A 
ATOM     21  N   UNL     1       1.722   2.075  22.123  0.00  0.00    +0.000 NA
ATOM     22  C   UNL     1       3.014   1.994  21.744  0.00  0.00    +0.000 A 
ATOM     23  C   UNL     1       3.589   2.796  20.770  0.00  0.00    +0.000 A 
ENDBRANCH   3  18
BRANCH   6  24
ATOM     24  C   UNL     1       1.278   9.246  19.311  0.00  0.00    +0.000 A 
ATOM     25  C   UNL     1       0.647   9.054  20.554  0.00  0.00    +0.000 A 
ATOM     26  C   UNL     1      -0.307   9.953  21.039  0.00  0.00    +0.000 A 
ATOM     27  C   UNL     1      -0.640  11.078  20.293  0.00  0.00    +0.000 A 
ATOM     28  C   UNL     1      -0.016  11.309  19.063  0.00  0.00    +0.000 A 
ATOM     29  C   UNL     1       0.948  10.405  18.587  0.00  0.00    +0.000 A 
BRANCH  28  30
ATOM     30  C   UNL     1      -0.377  12.544  18.320  0.00  0.00    +0.000 C 
ATOM     31  O   UNL     1       0.185  13.607  18.509  0.00  0.00    +0.000 OA
BRANCH  30  32
ATOM     32  O   UNL     1      -1.388  12.395  17.440  0.00  0.00    +0.000 OA
ATOM     33  H   UNL     1      -1.410  11.548  16.957  0.00  0.00    +0.000 HD
ENDBRANCH  30  32
ENDBRANCH  28  30
ENDBRANCH   6  24
TORSDOF 6
ENDMDL
MODEL 9
REMARK VINA RESULT:      -7.7      4.786     10.737
REMARK  Name = 
REMARK  7 active torsions:
REMARK  status: ('A' for Active; 'I' for Inactive)
REMARK    1  A    between atoms: C_1  and  O_2
REMARK    2  A    between atoms: O_2  and  C_3
REMARK    3  A    between atoms: C_6  and  N_7
REMARK    4  A    between atoms: C_9  and  C_10
REMARK    5  A    between atoms: C_18  and  C_19
REMARK    6  A    between atoms: C_23  and  C_24
REMARK    7  A    between atoms: C_24  and  O_26
REMARK                            x       y       z     vdW  Elec       q    Type
REMARK                         _______ _______ _______ _____ _____    ______ ____
ROOT
ATOM      1  N   UNL     1       4.473   5.176  17.230  0.00  0.00    +0.000 N 
ATOM      2  C   UNL     1       4.164   4.144  18.106  0.00  0.00    +0.000 A 
ATOM      3  C   UNL     1       3.295   4.600  19.076  0.00  0.00    +0.000 A 
ATOM      4  C   UNL     1       3.015   5.958  18.751  0.00  0.00    +0.000 A 
ATOM      5  C   UNL     1       2.146   6.937  19.269  0.00  0.00    +0.000 A 
ATOM      6  C   UNL     1       2.100   8.216  18.705  0.00  0.00    +0.000 A 
ATOM      7  C   UNL     1       2.950   8.430  17.620  0.00  0.00    +0.000 A 
ATOM      8  N   UNL     1       3.789   7.528  17.051  0.00  0.00    +0.000 NA
ATOM      9  C   UNL     1       3.788   6.313  17.649  0.00  0.00    +0.000 A 
ENDROOT
BRANCH   1  13
ATOM     10  C   UNL     1       7.024   4.823  13.870  0.00  0.00    +0.000 A 
ATOM     11  C   UNL     1       7.429   5.549  14.990  0.00  0.00    +0.000 A 
ATOM     12  C   UNL     1       6.590   5.666  16.102  0.00  0.00    +0.000 A 
ATOM     13  C   UNL     1       5.331   5.047  16.100  0.00  0.00    +0.000 A 
ATOM     14  C   UNL     1       4.928   4.320  14.976  0.00  0.00    +0.000 A 
ATOM     15  C   UNL     1       5.767   4.222  13.859  0.00  0.00    +0.000 A 
BRANCH  10  17
ATOM     16  C   UNL     1       7.388   4.412  11.574  0.00  0.00    +0.000 C 
ATOM     17  O   UNL     1       7.919   4.802  12.836  0.00  0.00    +0.000 OA
ENDBRANCH  10  17
ENDBRANCH   1  13
BRANCH   3  18
ATOM     18  C   UNL     1       2.773   3.779  20.165  0.00  0.00    +0.000 A 
ATOM     19  C   UNL     1       1.453   3.933  20.600  0.00  0.00    +0.000 A 
ATOM     20  C   UNL     1       0.961   3.071  21.565  0.00  0.00    +0.000 A 
ATOM     21  N   UNL     1       1.698   2.107  22.151  0.00  0.00    +0.000 NA
ATOM     22  C   UNL     1       2.983   2.005  21.753  0.00  0.00    +0.000 A 
ATOM     23  C   UNL     1       3.559   2.800  20.775  0.00  0.00    +0.000 A 
ENDBRANCH   3  18
BRANCH   6  24
ATOM     24  C   UNL     1       1.152   9.220  19.224  0.00  0.00    +0.000 A 
ATOM     25  C   UNL     1       0.973   9.398  20.609  0.00  0.00    +0.000 A 
ATOM     26  C   UNL     1       0.003  10.266  21.118  0.00  0.00    +0.000 A 
ATOM     27  C   UNL     1      -0.803  10.990  20.247  0.00  0.00    +0.000 A 
ATOM     28  C   UNL     1      -0.638  10.851  18.865  0.00  0.00    +0.000 A 
ATOM     29  C   UNL     1       0.346   9.984  18.362  0.00  0.00    +0.000 A 
BRANCH  28  30
ATOM     30  C   UNL     1      -1.497  11.674  17.975  0.00  0.00    +0.000 C 
ATOM     31  O   UNL     1      -2.580  11.288  17.576  0.00  0.00    +0.000 OA
BRANCH  30  32
ATOM     32  O   UNL     1      -0.969  12.865  17.629  0.00  0.00    +0.000 OA
ATOM     33  H   UNL     1      -1.607  13.588  17.489  0.00  0.00    +0.000 HD
ENDBRANCH  30  32
ENDBRANCH  28  30
ENDBRANCH   6  24
TORSDOF 6
ENDMDL
