MODEL 1
REMARK VINA RESULT:      -8.6      0.000      0.000
REMARK  Name = 
REMARK  1 active torsions:
REMARK  status: ('A' for Active; 'I' for Inactive)
REMARK    1  A    between atoms: C_4  and  C_5
REMARK                            x       y       z     vdW  Elec       q    Type
REMARK                         _______ _______ _______ _____ _____    ______ ____
ROOT
ATOM      1  N   UNL     1       8.240   7.682  18.381  0.00  0.00    +0.000 N 
ATOM      2  C   UNL     1       7.455   6.717  17.793  0.00  0.00    +0.000 A 
ATOM      3  N   UNL     1       6.506   6.142  18.560  0.00  0.00    +0.000 NA
ATOM      4  C   UNL     1       5.677   5.212  18.006  0.00  0.00    +0.000 A 
ATOM      5  C   UNL     1       5.828   4.905  16.682  0.00  0.00    +0.000 A 
ATOM      6  C   UNL     1       6.863   5.517  15.994  0.00  0.00    +0.000 A 
ATOM      7  N   UNL     1       7.703   6.417  16.514  0.00  0.00    +0.000 NA
ATOM      8  C   UNL     1       6.902   5.049  14.627  0.00  0.00    +0.000 A 
ATOM      9  C   UNL     1       7.751   5.330  13.574  0.00  0.00    +0.000 A 
ATOM     10  C   UNL     1       7.520   4.690  12.346  0.00  0.00    +0.000 A 
ATOM     11  C   UNL     1       6.453   3.781  12.184  0.00  0.00    +0.000 A 
ATOM     12  C   UNL     1       5.594   3.499  13.244  0.00  0.00    +0.000 A 
ATOM     13  C   UNL     1       5.849   4.145  14.437  0.00  0.00    +0.000 A 
ATOM     14  C   UNL     1       5.117   4.049  15.711  0.00  0.00    +0.000 C 
ATOM     15  O   UNL     1       4.110   3.396  15.870  0.00  0.00    +0.000 OA
ATOM     16  H   UNL     1       8.249   7.581  19.385  0.00  0.00    +0.000 HD
ATOM     17  H   UNL     1       9.128   7.770  17.908  0.00  0.00    +0.000 HD
ENDROOT
BRANCH   4  18
ATOM     18  C   UNL     1       4.682   4.619  18.923  0.00  0.00    +0.000 A 
ATOM     19  C   UNL     1       3.657   5.406  19.484  0.00  0.00    +0.000 A 
ATOM     20  C   UNL     1       2.689   4.854  20.332  0.00  0.00    +0.000 A 
ATOM     21  C   UNL     1       2.722   3.498  20.634  0.00  0.00    +0.000 A 
ATOM     22 BR   UNL     1       1.404   2.740  21.755  0.00  0.00    +0.000 Br
ATOM     23  C   UNL     1       3.731   2.697  20.116  0.00  0.00    +0.000 A 
ATOM     24  C   UNL     1       4.712   3.262  19.294  0.00  0.00    +0.000 A 
ENDBRANCH   4  18
TORSDOF 1
ENDMDL
MODEL 2
REMARK VINA RESULT:      -8.6      0.131      1.032
REMARK  Name = 
REMARK  1 active torsions:
REMARK  status: ('A' for Active; 'I' for Inactive)
REMARK    1  A    between atoms: C_4  and  C_5
REMARK                            x       y       z     vdW  Elec       q    Type
REMARK                         _______ _______ _______ _____ _____    ______ ____
ROOT
ATOM      1  N   UNL     1       8.298   7.507  18.578  0.00  0.00    +0.000 N 
ATOM      2  C   UNL     1       7.487   6.590  17.949  0.00  0.00    +0.000 A 
ATOM      3  N   UNL     1       6.507   6.026  18.683  0.00  0.00    +0.000 NA
ATOM      4  C   UNL     1       5.653   5.144  18.088  0.00  0.00    +0.000 A 
ATOM      5  C   UNL     1       5.812   4.874  16.758  0.00  0.00    +0.000 A 
ATOM      6  C   UNL     1       6.880   5.469  16.105  0.00  0.00    +0.000 A 
ATOM      7  N   UNL     1       7.744   6.322  16.665  0.00  0.00    +0.000 NA
ATOM      8  C   UNL     1       6.922   5.043  14.724  0.00  0.00    +0.000 A 
ATOM      9  C   UNL     1       7.797   5.327  13.692  0.00  0.00    +0.000 A 
ATOM     10  C   UNL     1       7.561   4.735  12.441  0.00  0.00    +0.000 A 
ATOM     11  C   UNL     1       6.464   3.871  12.236  0.00  0.00    +0.000 A 
ATOM     12  C   UNL     1       5.580   3.587  13.274  0.00  0.00    +0.000 A 
ATOM     13  C   UNL     1       5.840   4.186  14.491  0.00  0.00    +0.000 A 
ATOM     14  C   UNL     1       5.086   4.076  15.750  0.00  0.00    +0.000 C 
ATOM     15  O   UNL     1       4.054   3.456  15.874  0.00  0.00    +0.000 OA
ATOM     16  H   UNL     1       8.287   7.373  19.579  0.00  0.00    +0.000 HD
ATOM     17  H   UNL     1       9.195   7.576  18.121  0.00  0.00    +0.000 HD
ENDROOT
BRANCH   4  18
ATOM     18  C   UNL     1       4.623   4.560  18.972  0.00  0.00    +0.000 A 
ATOM     19  C   UNL     1       4.636   3.187  19.288  0.00  0.00    +0.000 A 
ATOM     20  C   UNL     1       3.684   2.623  20.147  0.00  0.00    +0.000 A 
ATOM     21  C   UNL     1       2.699   3.423  20.713  0.00  0.00    +0.000 A 
ATOM     22 BR   UNL     1       1.429   2.675  21.894  0.00  0.00    +0.000 Br
ATOM     23  C   UNL     1       2.643   4.775  20.406  0.00  0.00    +0.000 A 
ATOM     24  C   UNL     1       3.580   5.326  19.524  0.00  0.00    +0.000 A 
ENDBRANCH   4  18
TORSDOF 1
ENDMDL
MODEL 3
REMARK VINA RESULT:      -7.9      4.187      7.386
REMARK  Name = 
REMARK  1 active torsions:
REMARK  status: ('A' for Active; 'I' for Inactive)
REMARK    1  A    between atoms: C_4  and  C_5
REMARK                            x       y       z     vdW  Elec       q    Type
REMARK                         _______ _______ _______ _____ _____    ______ ____
ROOT
ATOM      1  N   UNL     1       2.231   3.608  21.608  0.00  0.00    +0.000 N 
ATOM      2  C   UNL     1       2.366   4.707  20.790  0.00  0.00    +0.000 A 
ATOM      3  N   UNL     1       3.179   4.587  19.722  0.00  0.00    +0.000 NA
ATOM      4  C   UNL     1       3.308   5.637  18.862  0.00  0.00    +0.000 A 
ATOM      5  C   UNL     1       2.590   6.775  19.105  0.00  0.00    +0.000 A 
ATOM      6  C   UNL     1       1.820   6.815  20.256  0.00  0.00    +0.000 A 
ATOM      7  N   UNL     1       1.689   5.810  21.127  0.00  0.00    +0.000 NA
ATOM      8  C   UNL     1       1.167   8.099  20.377  0.00  0.00    +0.000 A 
ATOM      9  C   UNL     1       0.335   8.630  21.345  0.00  0.00    +0.000 A 
ATOM     10  C   UNL     1      -0.137   9.940  21.168  0.00  0.00    +0.000 A 
ATOM     11  C   UNL     1       0.226  10.702  20.037  0.00  0.00    +0.000 A 
ATOM     12  C   UNL     1       1.061  10.168  19.060  0.00  0.00    +0.000 A 
ATOM     13  C   UNL     1       1.507   8.877  19.263  0.00  0.00    +0.000 A 
ATOM     14  C   UNL     1       2.386   8.061  18.409  0.00  0.00    +0.000 C 
ATOM     15  O   UNL     1       2.810   8.417  17.332  0.00  0.00    +0.000 OA
ATOM     16  H   UNL     1       3.021   2.987  21.512  0.00  0.00    +0.000 HD
ATOM     17  H   UNL     1       1.954   3.877  22.540  0.00  0.00    +0.000 HD
ENDROOT
BRANCH   4  18
ATOM     18  C   UNL     1       4.235   5.425  17.731  0.00  0.00    +0.000 A 
ATOM     19  C   UNL     1       4.094   4.311  16.880  0.00  0.00    +0.000 A 
ATOM     20  C   UNL     1       4.947   4.111  15.787  0.00  0.00    +0.000 A 
ATOM     21  C   UNL     1       5.959   5.025  15.519  0.00  0.00    +0.000 A 
ATOM     22 BR   UNL     1       7.096   4.777  14.031  0.00  0.00    +0.000 Br
ATOM     23  C   UNL     1       6.141   6.121  16.351  0.00  0.00    +0.000 A 
ATOM     24  C   UNL     1       5.303   6.299  17.457  0.00  0.00    +0.000 A 
ENDBRANCH   4  18
TORSDOF 1
ENDMDL
MODEL 4
REMARK VINA RESULT:      -7.8      4.236      7.386
REMARK  Name = 
REMARK  1 active torsions:
REMARK  status: ('A' for Active; 'I' for Inactive)
REMARK    1  A    between atoms: C_4  and  C_5
REMARK                            x       y       z     vdW  Elec       q    Type
REMARK                         _______ _______ _______ _____ _____    ______ ____
ROOT
ATOM      1  N   UNL     1       2.218   3.695  21.593  0.00  0.00    +0.000 N 
ATOM      2  C   UNL     1       2.340   4.795  20.775  0.00  0.00    +0.000 A 
ATOM      3  N   UNL     1       3.127   4.671  19.687  0.00  0.00    +0.000 NA
ATOM      4  C   UNL     1       3.242   5.722  18.826  0.00  0.00    +0.000 A 
ATOM      5  C   UNL     1       2.539   6.865  19.088  0.00  0.00    +0.000 A 
ATOM      6  C   UNL     1       1.796   6.907  20.257  0.00  0.00    +0.000 A 
ATOM      7  N   UNL     1       1.680   5.902  21.130  0.00  0.00    +0.000 NA
ATOM      8  C   UNL     1       1.156   8.196  20.396  0.00  0.00    +0.000 A 
ATOM      9  C   UNL     1       0.351   8.730  21.385  0.00  0.00    +0.000 A 
ATOM     10  C   UNL     1      -0.116  10.044  21.222  0.00  0.00    +0.000 A 
ATOM     11  C   UNL     1       0.225  10.806  20.084  0.00  0.00    +0.000 A 
ATOM     12  C   UNL     1       1.032  10.267  19.085  0.00  0.00    +0.000 A 
ATOM     13  C   UNL     1       1.474   8.973  19.276  0.00  0.00    +0.000 A 
ATOM     14  C   UNL     1       2.326   8.153  18.399  0.00  0.00    +0.000 C 
ATOM     15  O   UNL     1       2.727   8.507  17.313  0.00  0.00    +0.000 OA
ATOM     16  H   UNL     1       3.001   3.069  21.477  0.00  0.00    +0.000 HD
ATOM     17  H   UNL     1       1.965   3.965  22.533  0.00  0.00    +0.000 HD
ENDROOT
BRANCH   4  18
ATOM     18  C   UNL     1       4.141   5.505  17.673  0.00  0.00    +0.000 A 
ATOM     19  C   UNL     1       5.121   6.457  17.331  0.00  0.00    +0.000 A 
ATOM     20  C   UNL     1       6.000   6.254  16.260  0.00  0.00    +0.000 A 
ATOM     21  C   UNL     1       5.918   5.088  15.507  0.00  0.00    +0.000 A 
ATOM     22 BR   UNL     1       7.117   4.794  14.078  0.00  0.00    +0.000 Br
ATOM     23  C   UNL     1       4.950   4.139  15.802  0.00  0.00    +0.000 A 
ATOM     24  C   UNL     1       4.057   4.363  16.855  0.00  0.00    +0.000 A 
ENDBRANCH   4  18
TORSDOF 1
ENDMDL
MODEL 5
REMARK VINA RESULT:      -7.7      4.082      5.593
REMARK  Name = 
REMARK  1 active torsions:
REMARK  status: ('A' for Active; 'I' for Inactive)
REMARK    1  A    between atoms: C_4  and  C_5
REMARK                            x       y       z     vdW  Elec       q    Type
REMARK                         _______ _______ _______ _____ _____    ______ ____
ROOT
ATOM      1  N   UNL     1       1.909   3.377  21.517  0.00  0.00    +0.000 N 
ATOM      2  C   UNL     1       2.257   4.346  20.604  0.00  0.00    +0.000 A 
ATOM      3  N   UNL     1       1.800   5.595  20.824  0.00  0.00    +0.000 NA
ATOM      4  C   UNL     1       2.157   6.595  19.967  0.00  0.00    +0.000 A 
ATOM      5  C   UNL     1       2.982   6.296  18.919  0.00  0.00    +0.000 A 
ATOM      6  C   UNL     1       3.357   4.972  18.754  0.00  0.00    +0.000 A 
ATOM      7  N   UNL     1       3.009   3.968  19.564  0.00  0.00    +0.000 NA
ATOM      8  C   UNL     1       4.190   4.831  17.580  0.00  0.00    +0.000 A 
ATOM      9  C   UNL     1       4.778   3.729  16.987  0.00  0.00    +0.000 A 
ATOM     10  C   UNL     1       5.538   3.930  15.823  0.00  0.00    +0.000 A 
ATOM     11  C   UNL     1       5.700   5.216  15.268  0.00  0.00    +0.000 A 
ATOM     12  C   UNL     1       5.111   6.327  15.867  0.00  0.00    +0.000 A 
ATOM     13  C   UNL     1       4.371   6.096  17.009  0.00  0.00    +0.000 A 
ATOM     14  C   UNL     1       3.647   7.065  17.849  0.00  0.00    +0.000 C 
ATOM     15  O   UNL     1       3.652   8.262  17.666  0.00  0.00    +0.000 OA
ATOM     16  H   UNL     1       1.076   3.640  22.024  0.00  0.00    +0.000 HD
ATOM     17  H   UNL     1       1.938   2.457  21.104  0.00  0.00    +0.000 HD
ENDROOT
BRANCH   4  18
ATOM     18  C   UNL     1       1.594   7.926  20.272  0.00  0.00    +0.000 A 
ATOM     19  C   UNL     1       1.426   8.352  21.604  0.00  0.00    +0.000 A 
ATOM     20  C   UNL     1       0.921   9.622  21.911  0.00  0.00    +0.000 A 
ATOM     21  C   UNL     1       0.577  10.498  20.888  0.00  0.00    +0.000 A 
ATOM     22 BR   UNL     1      -0.077  12.222  21.293  0.00  0.00    +0.000 Br
ATOM     23  C   UNL     1       0.710  10.103  19.564  0.00  0.00    +0.000 A 
ATOM     24  C   UNL     1       1.187   8.822  19.266  0.00  0.00    +0.000 A 
ENDBRANCH   4  18
TORSDOF 1
ENDMDL
MODEL 6
REMARK VINA RESULT:      -7.7      4.075      5.564
REMARK  Name = 
REMARK  1 active torsions:
REMARK  status: ('A' for Active; 'I' for Inactive)
REMARK    1  A    between atoms: C_4  and  C_5
REMARK                            x       y       z     vdW  Elec       q    Type
REMARK                         _______ _______ _______ _____ _____    ______ ____
ROOT
ATOM      1  N   UNL     1       1.907   3.369  21.468  0.00  0.00    +0.000 N 
ATOM      2  C   UNL     1       2.260   4.343  20.562  0.00  0.00    +0.000 A 
ATOM      3  N   UNL     1       1.810   5.593  20.793  0.00  0.00    +0.000 NA
ATOM      4  C   UNL     1       2.172   6.598  19.945  0.00  0.00    +0.000 A 
ATOM      5  C   UNL     1       2.995   6.303  18.894  0.00  0.00    +0.000 A 
ATOM      6  C   UNL     1       3.363   4.980  18.718  0.00  0.00    +0.000 A 
ATOM      7  N   UNL     1       3.010   3.971  19.520  0.00  0.00    +0.000 NA
ATOM      8  C   UNL     1       4.195   4.844  17.543  0.00  0.00    +0.000 A 
ATOM      9  C   UNL     1       4.777   3.744  16.940  0.00  0.00    +0.000 A 
ATOM     10  C   UNL     1       5.538   3.951  15.778  0.00  0.00    +0.000 A 
ATOM     11  C   UNL     1       5.707   5.241  15.234  0.00  0.00    +0.000 A 
ATOM     12  C   UNL     1       5.124   6.350  15.842  0.00  0.00    +0.000 A 
ATOM     13  C   UNL     1       4.383   6.113  16.982  0.00  0.00    +0.000 A 
ATOM     14  C   UNL     1       3.664   7.079  17.830  0.00  0.00    +0.000 C 
ATOM     15  O   UNL     1       3.676   8.277  17.658  0.00  0.00    +0.000 OA
ATOM     16  H   UNL     1       1.076   3.631  21.977  0.00  0.00    +0.000 HD
ATOM     17  H   UNL     1       1.932   2.452  21.047  0.00  0.00    +0.000 HD
ENDROOT
BRANCH   4  18
ATOM     18  C   UNL     1       1.616   7.930  20.262  0.00  0.00    +0.000 A 
ATOM     19  C   UNL     1       1.243   8.820  19.236  0.00  0.00    +0.000 A 
ATOM     20  C   UNL     1       0.688  10.075  19.519  0.00  0.00    +0.000 A 
ATOM     21  C   UNL     1       0.491  10.465  20.839  0.00  0.00    +0.000 A 
ATOM     22 BR   UNL     1      -0.282  12.143  21.228  0.00  0.00    +0.000 Br
ATOM     23  C   UNL     1       0.869   9.622  21.874  0.00  0.00    +0.000 A 
ATOM     24  C   UNL     1       1.449   8.382  21.584  0.00  0.00    +0.000 A 
ENDBRANCH   4  18
TORSDOF 1
ENDMDL
MODEL 7
REMARK VINA RESULT:      -7.6      3.673      6.932
REMARK  Name = 
REMARK  1 active torsions:
REMARK  status: ('A' for Active; 'I' for Inactive)
REMARK    1  A    between atoms: C_4  and  C_5
REMARK                            x       y       z     vdW  Elec       q    Type
REMARK                         _______ _______ _______ _____ _____    ______ ____
ROOT
ATOM      1  N   UNL     1       3.598   2.529  20.597  0.00  0.00    +0.000 N 
ATOM      2  C   UNL     1       3.578   3.713  19.895  0.00  0.00    +0.000 A 
ATOM      3  N   UNL     1       4.321   3.777  18.772  0.00  0.00    +0.000 NA
ATOM      4  C   UNL     1       4.297   4.916  18.023  0.00  0.00    +0.000 A 
ATOM      5  C   UNL     1       3.504   5.952  18.431  0.00  0.00    +0.000 A 
ATOM      6  C   UNL     1       2.817   5.804  19.625  0.00  0.00    +0.000 A 
ATOM      7  N   UNL     1       2.835   4.708  20.390  0.00  0.00    +0.000 NA
ATOM      8  C   UNL     1       2.066   7.003  19.924  0.00  0.00    +0.000 A 
ATOM      9  C   UNL     1       1.263   7.353  20.993  0.00  0.00    +0.000 A 
ATOM     10  C   UNL     1       0.669   8.625  20.987  0.00  0.00    +0.000 A 
ATOM     11  C   UNL     1       0.883   9.528  19.924  0.00  0.00    +0.000 A 
ATOM     12  C   UNL     1       1.689   9.175  18.844  0.00  0.00    +0.000 A 
ATOM     13  C   UNL     1       2.258   7.917  18.880  0.00  0.00    +0.000 A 
ATOM     14  C   UNL     1       3.140   7.277  17.890  0.00  0.00    +0.000 C 
ATOM     15  O   UNL     1       3.454   7.778  16.834  0.00  0.00    +0.000 OA
ATOM     16  H   UNL     1       4.429   1.996  20.386  0.00  0.00    +0.000 HD
ATOM     17  H   UNL     1       3.366   2.675  21.568  0.00  0.00    +0.000 HD
ENDROOT
BRANCH   4  18
ATOM     18  C   UNL     1       5.156   4.907  16.821  0.00  0.00    +0.000 A 
ATOM     19  C   UNL     1       4.748   4.245  15.646  0.00  0.00    +0.000 A 
ATOM     20  C   UNL     1       5.537   4.251  14.488  0.00  0.00    +0.000 A 
ATOM     21  C   UNL     1       6.753   4.924  14.481  0.00  0.00    +0.000 A 
ATOM     22 BR   UNL     1       7.810   4.960  12.916  0.00  0.00    +0.000 Br
ATOM     23  C   UNL     1       7.196   5.567  15.628  0.00  0.00    +0.000 A 
ATOM     24  C   UNL     1       6.416   5.532  16.789  0.00  0.00    +0.000 A 
ENDBRANCH   4  18
TORSDOF 1
ENDMDL
MODEL 8
REMARK VINA RESULT:      -7.6      3.267      6.018
REMARK  Name = 
REMARK  1 active torsions:
REMARK  status: ('A' for Active; 'I' for Inactive)
REMARK    1  A    between atoms: C_4  and  C_5
REMARK                            x       y       z     vdW  Elec       q    Type
REMARK                         _______ _______ _______ _____ _____    ______ ____
ROOT
ATOM      1  N   UNL     1       6.332   3.522  14.018  0.00  0.00    +0.000 N 
ATOM      2  C   UNL     1       5.915   3.960  15.254  0.00  0.00    +0.000 A 
ATOM      3  N   UNL     1       6.588   4.991  15.804  0.00  0.00    +0.000 NA
ATOM      4  C   UNL     1       6.181   5.485  17.008  0.00  0.00    +0.000 A 
ATOM      5  C   UNL     1       5.089   4.925  17.611  0.00  0.00    +0.000 A 
ATOM      6  C   UNL     1       4.497   3.839  16.986  0.00  0.00    +0.000 A 
ATOM      7  N   UNL     1       4.884   3.321  15.817  0.00  0.00    +0.000 NA
ATOM      8  C   UNL     1       3.390   3.349  17.777  0.00  0.00    +0.000 A 
ATOM      9  C   UNL     1       2.521   2.289  17.600  0.00  0.00    +0.000 A 
ATOM     10  C   UNL     1       1.536   2.069  18.577  0.00  0.00    +0.000 A 
ATOM     11  C   UNL     1       1.431   2.902  19.710  0.00  0.00    +0.000 A 
ATOM     12  C   UNL     1       2.304   3.973  19.887  0.00  0.00    +0.000 A 
ATOM     13  C   UNL     1       3.260   4.162  18.910  0.00  0.00    +0.000 A 
ATOM     14  C   UNL     1       4.301   5.200  18.828  0.00  0.00    +0.000 C 
ATOM     15  O   UNL     1       4.424   6.104  19.624  0.00  0.00    +0.000 OA
ATOM     16  H   UNL     1       7.293   3.782  13.847  0.00  0.00    +0.000 HD
ATOM     17  H   UNL     1       6.069   2.560  13.862  0.00  0.00    +0.000 HD
ENDROOT
BRANCH   4  18
ATOM     18  C   UNL     1       6.988   6.600  17.545  0.00  0.00    +0.000 A 
ATOM     19  C   UNL     1       6.932   7.880  16.959  0.00  0.00    +0.000 A 
ATOM     20  C   UNL     1       7.669   8.955  17.474  0.00  0.00    +0.000 A 
ATOM     21  C   UNL     1       8.476   8.772  18.590  0.00  0.00    +0.000 A 
ATOM     22 BR   UNL     1       9.451  10.223  19.307  0.00  0.00    +0.000 Br
ATOM     23  C   UNL     1       8.572   7.519  19.178  0.00  0.00    +0.000 A 
ATOM     24  C   UNL     1       7.856   6.444  18.641  0.00  0.00    +0.000 A 
ENDBRANCH   4  18
TORSDOF 1
ENDMDL
MODEL 9
REMARK VINA RESULT:      -7.5      3.298      6.114
REMARK  Name = 
REMARK  1 active torsions:
REMARK  status: ('A' for Active; 'I' for Inactive)
REMARK    1  A    between atoms: C_4  and  C_5
REMARK                            x       y       z     vdW  Elec       q    Type
REMARK                         _______ _______ _______ _____ _____    ______ ____
ROOT
ATOM      1  N   UNL     1       6.331   3.371  14.194  0.00  0.00    +0.000 N 
ATOM      2  C   UNL     1       5.861   3.885  15.381  0.00  0.00    +0.000 A 
ATOM      3  N   UNL     1       6.519   4.940  15.901  0.00  0.00    +0.000 NA
ATOM      4  C   UNL     1       6.061   5.508  17.054  0.00  0.00    +0.000 A 
ATOM      5  C   UNL     1       4.936   4.993  17.636  0.00  0.00    +0.000 A 
ATOM      6  C   UNL     1       4.362   3.877  17.048  0.00  0.00    +0.000 A 
ATOM      7  N   UNL     1       4.798   3.288  15.931  0.00  0.00    +0.000 NA
ATOM      8  C   UNL     1       3.214   3.443  17.813  0.00  0.00    +0.000 A 
ATOM      9  C   UNL     1       2.343   2.382  17.657  0.00  0.00    +0.000 A 
ATOM     10  C   UNL     1       1.311   2.228  18.597  0.00  0.00    +0.000 A 
ATOM     11  C   UNL     1       1.162   3.127  19.674  0.00  0.00    +0.000 A 
ATOM     12  C   UNL     1       2.037   4.199  19.829  0.00  0.00    +0.000 A 
ATOM     13  C   UNL     1       3.040   4.322  18.889  0.00  0.00    +0.000 A 
ATOM     14  C   UNL     1       4.094   5.346  18.796  0.00  0.00    +0.000 C 
ATOM     15  O   UNL     1       4.191   6.294  19.543  0.00  0.00    +0.000 OA
ATOM     16  H   UNL     1       7.302   3.613  14.054  0.00  0.00    +0.000 HD
ATOM     17  H   UNL     1       6.065   2.404  14.083  0.00  0.00    +0.000 HD
ENDROOT
BRANCH   4  18
ATOM     18  C   UNL     1       6.854   6.646  17.563  0.00  0.00    +0.000 A 
ATOM     19  C   UNL     1       7.788   6.469  18.602  0.00  0.00    +0.000 A 
ATOM     20  C   UNL     1       8.569   7.531  19.076  0.00  0.00    +0.000 A 
ATOM     21  C   UNL     1       8.434   8.795  18.516  0.00  0.00    +0.000 A 
ATOM     22 BR   UNL     1       9.502  10.227  19.130  0.00  0.00    +0.000 Br
ATOM     23  C   UNL     1       7.508   9.010  17.505  0.00  0.00    +0.000 A 
ATOM     24  C   UNL     1       6.711   7.951  17.057  0.00  0.00    +0.000 A 
ENDBRANCH   4  18
TORSDOF 1
ENDMDL
