MODEL 1
REMARK VINA RESULT:      -7.5      0.000      0.000
REMARK  Name = 
REMARK  12 active torsions:
REMARK  status: ('A' for Active; 'I' for Inactive)
REMARK    1  A    between atoms: C_1  and  O_2
REMARK    2  A    between atoms: O_2  and  C_3
REMARK    3  A    between atoms: C_6  and  S_7
REMARK    4  A    between atoms: S_7  and  N_10
REMARK    5  A    between atoms: N_10  and  C_11
REMARK    6  A    between atoms: N_14  and  C_15
REMARK    7  A    between atoms: C_15  and  C_16
REMARK    8  A    between atoms: C_16  and  C_17
REMARK    9  A    between atoms: C_17  and  O_18
REMARK   10  A    between atoms: O_18  and  C_19
REMARK   11  A    between atoms: C_22  and  C_23
REMARK   12  A    between atoms: C_23  and  C_25
REMARK                            x       y       z     vdW  Elec       q    Type
REMARK                         _______ _______ _______ _____ _____    ______ ____
ROOT
ATOM      1  C   UNL     1       5.113   3.747  16.659  0.00  0.00    +0.000 C 
ATOM      2  C   UNL     1       5.684   4.173  15.310  0.00  0.00    +0.000 C 
ATOM      3  C   UNL     1       7.136   4.468  15.647  0.00  0.00    +0.000 C 
ATOM      4  N   UNL     1       7.080   5.179  16.934  0.00  0.00    +0.000 NA
ATOM      5  C   UNL     1       5.975   4.524  17.673  0.00  0.00    +0.000 C 
ENDROOT
BRANCH   1   6
ATOM      6  N   UNL     1       3.677   4.066  16.735  0.00  0.00    +0.000 NA
ATOM      7  H   UNL     1       3.369   4.979  16.398  0.00  0.00    +0.000 HD
BRANCH   6   8
ATOM      8  S   UNL     1       2.781   3.574  18.070  0.00  0.00    +0.000 S 
ATOM      9  O   UNL     1       3.695   2.798  18.883  0.00  0.00    +0.000 OA
ATOM     10  O   UNL     1       1.514   3.039  17.638  0.00  0.00    +0.000 OA
BRANCH   8  14
ATOM     11  C   UNL     1       1.821   7.499  20.191  0.00  0.00    +0.000 A 
ATOM     12  C   UNL     1       2.398   7.507  18.919  0.00  0.00    +0.000 A 
ATOM     13  C   UNL     1       2.708   6.311  18.272  0.00  0.00    +0.000 A 
ATOM     14  C   UNL     1       2.467   5.099  18.923  0.00  0.00    +0.000 A 
ATOM     15  C   UNL     1       1.892   5.078  20.197  0.00  0.00    +0.000 A 
ATOM     16  C   UNL     1       1.572   6.282  20.832  0.00  0.00    +0.000 A 
BRANCH  11  18
ATOM     17  C   UNL     1       0.618   8.782  21.774  0.00  0.00    +0.000 C 
ATOM     18  O   UNL     1       1.574   8.733  20.720  0.00  0.00    +0.000 OA
ENDBRANCH  11  18
ENDBRANCH   8  14
ENDBRANCH   6   8
ENDBRANCH   1   6
BRANCH   4  19
ATOM     19  C   UNL     1       6.846   6.624  16.752  0.00  0.00    +0.000 C 
BRANCH  19  20
ATOM     20  C   UNL     1       7.152   7.466  17.997  0.00  0.00    +0.000 C 
BRANCH  20  21
ATOM     21  C   UNL     1       8.049   8.655  17.681  0.00  0.00    +0.000 C 
BRANCH  21  22
ATOM     22  O   UNL     1       8.804   8.970  18.854  0.00  0.00    +0.000 OA
BRANCH  22  23
ATOM     23  C   UNL     1       9.160  10.284  18.983  0.00  0.00    +0.000 A 
ATOM     24  C   UNL     1       9.568  10.677  20.258  0.00  0.00    +0.000 A 
ATOM     25  C   UNL     1       9.957  11.996  20.504  0.00  0.00    +0.000 A 
ATOM     26  C   UNL     1       9.960  12.940  19.468  0.00  0.00    +0.000 A 
ATOM     27  C   UNL     1       9.567  12.537  18.187  0.00  0.00    +0.000 A 
ATOM     28  C   UNL     1       9.172  11.217  17.948  0.00  0.00    +0.000 A 
BRANCH  26  29
ATOM     29  C   UNL     1      10.400  14.336  19.768  0.00  0.00    +0.000 C 
ATOM     30  O   UNL     1      10.886  14.606  20.861  0.00  0.00    +0.000 OA
BRANCH  29  31
ATOM     31  C   UNL     1      10.299  15.394  18.713  0.00  0.00    +0.000 C 
ATOM     32  C   UNL     1      11.060  16.694  18.818  0.00  0.00    +0.000 C 
ATOM     33  C   UNL     1      11.504  15.649  17.836  0.00  0.00    +0.000 C 
ENDBRANCH  29  31
ENDBRANCH  26  29
ENDBRANCH  22  23
ENDBRANCH  21  22
ENDBRANCH  20  21
ENDBRANCH  19  20
ENDBRANCH   4  19
TORSDOF 11
ENDMDL
MODEL 2
REMARK VINA RESULT:      -7.4      1.097      1.234
REMARK  Name = 
REMARK  12 active torsions:
REMARK  status: ('A' for Active; 'I' for Inactive)
REMARK    1  A    between atoms: C_1  and  O_2
REMARK    2  A    between atoms: O_2  and  C_3
REMARK    3  A    between atoms: C_6  and  S_7
REMARK    4  A    between atoms: S_7  and  N_10
REMARK    5  A    between atoms: N_10  and  C_11
REMARK    6  A    between atoms: N_14  and  C_15
REMARK    7  A    between atoms: C_15  and  C_16
REMARK    8  A    between atoms: C_16  and  C_17
REMARK    9  A    between atoms: C_17  and  O_18
REMARK   10  A    between atoms: O_18  and  C_19
REMARK   11  A    between atoms: C_22  and  C_23
REMARK   12  A    between atoms: C_23  and  C_25
REMARK                            x       y       z     vdW  Elec       q    Type
REMARK                         _______ _______ _______ _____ _____    ______ ____
ROOT
ATOM      1  C   UNL     1       5.903   4.081  17.177  0.00  0.00    +0.000 C 
ATOM      2  C   UNL     1       5.093   5.057  16.329  0.00  0.00    +0.000 C 
ATOM      3  C   UNL     1       6.174   5.794  15.556  0.00  0.00    +0.000 C 
ATOM      4  N   UNL     1       7.239   6.033  16.544  0.00  0.00    +0.000 NA
ATOM      5  C   UNL     1       7.241   4.817  17.390  0.00  0.00    +0.000 C 
ENDROOT
BRANCH   1   6
ATOM      6  N   UNL     1       5.192   3.773  18.429  0.00  0.00    +0.000 NA
ATOM      7  H   UNL     1       5.641   3.140  19.093  0.00  0.00    +0.000 HD
BRANCH   6   8
ATOM      8  S   UNL     1       3.524   3.561  18.414  0.00  0.00    +0.000 S 
ATOM      9  O   UNL     1       3.257   2.536  19.402  0.00  0.00    +0.000 OA
ATOM     10  O   UNL     1       3.059   3.439  17.055  0.00  0.00    +0.000 OA
BRANCH   8  14
ATOM     11  C   UNL     1       1.827   7.488  20.002  0.00  0.00    +0.000 A 
ATOM     12  C   UNL     1       2.461   7.445  18.758  0.00  0.00    +0.000 A 
ATOM     13  C   UNL     1       2.995   6.250  18.274  0.00  0.00    +0.000 A 
ATOM     14  C   UNL     1       2.921   5.100  19.061  0.00  0.00    +0.000 A 
ATOM     15  C   UNL     1       2.291   5.131  20.309  0.00  0.00    +0.000 A 
ATOM     16  C   UNL     1       1.746   6.330  20.779  0.00  0.00    +0.000 A 
BRANCH  11  18
ATOM     17  C   UNL     1       0.524   8.749  21.522  0.00  0.00    +0.000 C 
ATOM     18  O   UNL     1       1.355   8.716  20.366  0.00  0.00    +0.000 OA
ENDBRANCH  11  18
ENDBRANCH   8  14
ENDBRANCH   6   8
ENDBRANCH   1   6
BRANCH   4  19
ATOM     19  C   UNL     1       6.990   7.257  17.330  0.00  0.00    +0.000 C 
BRANCH  19  20
ATOM     20  C   UNL     1       8.215   7.754  18.110  0.00  0.00    +0.000 C 
BRANCH  20  21
ATOM     21  C   UNL     1       8.340   9.270  18.079  0.00  0.00    +0.000 C 
BRANCH  21  22
ATOM     22  O   UNL     1       9.181   9.673  19.164  0.00  0.00    +0.000 OA
BRANCH  22  23
ATOM     23  C   UNL     1       9.835  10.860  18.985  0.00  0.00    +0.000 A 
ATOM     24  C   UNL     1       9.954  11.660  20.122  0.00  0.00    +0.000 A 
ATOM     25  C   UNL     1      10.607  12.893  20.056  0.00  0.00    +0.000 A 
ATOM     26  C   UNL     1      11.167  13.337  18.850  0.00  0.00    +0.000 A 
ATOM     27  C   UNL     1      11.059  12.523  17.717  0.00  0.00    +0.000 A 
ATOM     28  C   UNL     1      10.399  11.292  17.787  0.00  0.00    +0.000 A 
BRANCH  26  29
ATOM     29  C   UNL     1      11.872  14.653  18.826  0.00  0.00    +0.000 C 
ATOM     30  O   UNL     1      12.329  15.126  19.861  0.00  0.00    +0.000 OA
BRANCH  29  31
ATOM     31  C   UNL     1      12.070  15.371  17.526  0.00  0.00    +0.000 C 
ATOM     32  C   UNL     1      10.922  16.034  16.803  0.00  0.00    +0.000 C 
ATOM     33  C   UNL     1      11.940  16.878  17.512  0.00  0.00    +0.000 C 
ENDBRANCH  29  31
ENDBRANCH  26  29
ENDBRANCH  22  23
ENDBRANCH  21  22
ENDBRANCH  20  21
ENDBRANCH  19  20
ENDBRANCH   4  19
TORSDOF 11
ENDMDL
MODEL 3
REMARK VINA RESULT:      -7.2      1.505      1.778
REMARK  Name = 
REMARK  12 active torsions:
REMARK  status: ('A' for Active; 'I' for Inactive)
REMARK    1  A    between atoms: C_1  and  O_2
REMARK    2  A    between atoms: O_2  and  C_3
REMARK    3  A    between atoms: C_6  and  S_7
REMARK    4  A    between atoms: S_7  and  N_10
REMARK    5  A    between atoms: N_10  and  C_11
REMARK    6  A    between atoms: N_14  and  C_15
REMARK    7  A    between atoms: C_15  and  C_16
REMARK    8  A    between atoms: C_16  and  C_17
REMARK    9  A    between atoms: C_17  and  O_18
REMARK   10  A    between atoms: O_18  and  C_19
REMARK   11  A    between atoms: C_22  and  C_23
REMARK   12  A    between atoms: C_23  and  C_25
REMARK                            x       y       z     vdW  Elec       q    Type
REMARK                         _______ _______ _______ _____ _____    ______ ____
ROOT
ATOM      1  C   UNL     1       5.360   4.369  17.838  0.00  0.00    +0.000 C 
ATOM      2  C   UNL     1       6.381   4.365  16.705  0.00  0.00    +0.000 C 
ATOM      3  C   UNL     1       7.680   4.663  17.434  0.00  0.00    +0.000 C 
ATOM      4  N   UNL     1       7.328   5.710  18.407  0.00  0.00    +0.000 NA
ATOM      5  C   UNL     1       5.964   5.351  18.861  0.00  0.00    +0.000 C 
ENDROOT
BRANCH   1   6
ATOM      6  N   UNL     1       4.036   4.775  17.338  0.00  0.00    +0.000 NA
ATOM      7  H   UNL     1       3.956   5.677  16.866  0.00  0.00    +0.000 HD
BRANCH   6   8
ATOM      8  S   UNL     1       2.659   4.436  18.243  0.00  0.00    +0.000 S 
ATOM      9  O   UNL     1       3.100   3.543  19.295  0.00  0.00    +0.000 OA
ATOM     10  O   UNL     1       1.570   4.089  17.365  0.00  0.00    +0.000 OA
BRANCH   8  14
ATOM     11  C   UNL     1       1.525   8.443  20.111  0.00  0.00    +0.000 A 
ATOM     12  C   UNL     1       1.976   8.382  18.791  0.00  0.00    +0.000 A 
ATOM     13  C   UNL     1       2.338   7.162  18.219  0.00  0.00    +0.000 A 
ATOM     14  C   UNL     1       2.280   6.001  18.991  0.00  0.00    +0.000 A 
ATOM     15  C   UNL     1       1.833   6.048  20.315  0.00  0.00    +0.000 A 
ATOM     16  C   UNL     1       1.458   7.274  20.875  0.00  0.00    +0.000 A 
BRANCH  11  18
ATOM     17  C   UNL     1       0.732   9.779  21.895  0.00  0.00    +0.000 C 
ATOM     18  O   UNL     1       1.211   9.693  20.557  0.00  0.00    +0.000 OA
ENDBRANCH  11  18
ENDBRANCH   8  14
ENDBRANCH   6   8
ENDBRANCH   1   6
BRANCH   4  19
ATOM     19  C   UNL     1       7.377   7.056  17.803  0.00  0.00    +0.000 C 
BRANCH  19  20
ATOM     20  C   UNL     1       8.356   8.012  18.497  0.00  0.00    +0.000 C 
BRANCH  20  21
ATOM     21  C   UNL     1       8.295   9.418  17.915  0.00  0.00    +0.000 C 
BRANCH  21  22
ATOM     22  O   UNL     1       9.572  10.036  18.103  0.00  0.00    +0.000 OA
BRANCH  22  23
ATOM     23  C   UNL     1       9.583  11.398  17.985  0.00  0.00    +0.000 A 
ATOM     24  C   UNL     1       8.331  12.012  17.958  0.00  0.00    +0.000 A 
ATOM     25  C   UNL     1       8.224  13.400  17.843  0.00  0.00    +0.000 A 
ATOM     26  C   UNL     1       9.375  14.198  17.770  0.00  0.00    +0.000 A 
ATOM     27  C   UNL     1      10.628  13.578  17.815  0.00  0.00    +0.000 A 
ATOM     28  C   UNL     1      10.729  12.187  17.923  0.00  0.00    +0.000 A 
BRANCH  26  29
ATOM     29  C   UNL     1       9.217  15.679  17.666  0.00  0.00    +0.000 C 
ATOM     30  O   UNL     1       8.140  16.204  17.927  0.00  0.00    +0.000 OA
BRANCH  29  31
ATOM     31  C   UNL     1      10.392  16.531  17.295  0.00  0.00    +0.000 C 
ATOM     32  C   UNL     1      10.355  18.035  17.431  0.00  0.00    +0.000 C 
ATOM     33  C   UNL     1      11.156  17.220  18.404  0.00  0.00    +0.000 C 
ENDBRANCH  29  31
ENDBRANCH  26  29
ENDBRANCH  22  23
ENDBRANCH  21  22
ENDBRANCH  20  21
ENDBRANCH  19  20
ENDBRANCH   4  19
TORSDOF 11
ENDMDL
MODEL 4
REMARK VINA RESULT:      -7.2      1.411      1.814
REMARK  Name = 
REMARK  12 active torsions:
REMARK  status: ('A' for Active; 'I' for Inactive)
REMARK    1  A    between atoms: C_1  and  O_2
REMARK    2  A    between atoms: O_2  and  C_3
REMARK    3  A    between atoms: C_6  and  S_7
REMARK    4  A    between atoms: S_7  and  N_10
REMARK    5  A    between atoms: N_10  and  C_11
REMARK    6  A    between atoms: N_14  and  C_15
REMARK    7  A    between atoms: C_15  and  C_16
REMARK    8  A    between atoms: C_16  and  C_17
REMARK    9  A    between atoms: C_17  and  O_18
REMARK   10  A    between atoms: O_18  and  C_19
REMARK   11  A    between atoms: C_22  and  C_23
REMARK   12  A    between atoms: C_23  and  C_25
REMARK                            x       y       z     vdW  Elec       q    Type
REMARK                         _______ _______ _______ _____ _____    ______ ____
ROOT
ATOM      1  C   UNL     1       5.004   4.598  16.931  0.00  0.00    +0.000 C 
ATOM      2  C   UNL     1       5.426   4.848  15.487  0.00  0.00    +0.000 C 
ATOM      3  C   UNL     1       6.915   4.551  15.524  0.00  0.00    +0.000 C 
ATOM      4  N   UNL     1       7.383   5.159  16.780  0.00  0.00    +0.000 NA
ATOM      5  C   UNL     1       6.275   4.933  17.737  0.00  0.00    +0.000 C 
ENDROOT
BRANCH   1   6
ATOM      6  N   UNL     1       3.844   5.434  17.283  0.00  0.00    +0.000 NA
ATOM      7  H   UNL     1       3.852   6.413  16.994  0.00  0.00    +0.000 HD
BRANCH   6   8
ATOM      8  S   UNL     1       3.097   5.243  18.777  0.00  0.00    +0.000 S 
ATOM      9  O   UNL     1       4.177   5.111  19.733  0.00  0.00    +0.000 OA
ATOM     10  O   UNL     1       2.051   4.256  18.679  0.00  0.00    +0.000 OA
BRANCH   8  14
ATOM     11  C   UNL     1       1.284   9.367  19.506  0.00  0.00    +0.000 A 
ATOM     12  C   UNL     1       1.385   8.446  20.551  0.00  0.00    +0.000 A 
ATOM     13  C   UNL     1       1.925   7.178  20.332  0.00  0.00    +0.000 A 
ATOM     14  C   UNL     1       2.333   6.823  19.044  0.00  0.00    +0.000 A 
ATOM     15  C   UNL     1       2.235   7.735  17.990  0.00  0.00    +0.000 A 
ATOM     16  C   UNL     1       1.705   9.008  18.223  0.00  0.00    +0.000 A 
BRANCH  11  18
ATOM     17  C   UNL     1       1.284  11.714  19.209  0.00  0.00    +0.000 C 
ATOM     18  O   UNL     1       0.731  10.567  19.847  0.00  0.00    +0.000 OA
ENDBRANCH  11  18
ENDBRANCH   8  14
ENDBRANCH   6   8
ENDBRANCH   1   6
BRANCH   4  19
ATOM     19  C   UNL     1       7.690   6.592  16.614  0.00  0.00    +0.000 C 
BRANCH  19  20
ATOM     20  C   UNL     1       7.410   7.437  17.864  0.00  0.00    +0.000 C 
BRANCH  20  21
ATOM     21  C   UNL     1       8.056   8.813  17.785  0.00  0.00    +0.000 C 
BRANCH  21  22
ATOM     22  O   UNL     1       8.709   9.074  19.030  0.00  0.00    +0.000 OA
BRANCH  22  23
ATOM     23  C   UNL     1       9.312  10.297  19.128  0.00  0.00    +0.000 A 
ATOM     24  C   UNL     1       9.637  10.708  20.420  0.00  0.00    +0.000 A 
ATOM     25  C   UNL     1      10.260  11.940  20.637  0.00  0.00    +0.000 A 
ATOM     26  C   UNL     1      10.584  12.773  19.556  0.00  0.00    +0.000 A 
ATOM     27  C   UNL     1      10.272  12.347  18.261  0.00  0.00    +0.000 A 
ATOM     28  C   UNL     1       9.642  11.116  18.050  0.00  0.00    +0.000 A 
BRANCH  26  29
ATOM     29  C   UNL     1      11.265  14.073  19.829  0.00  0.00    +0.000 C 
ATOM     30  O   UNL     1      12.325  14.341  19.273  0.00  0.00    +0.000 OA
BRANCH  29  31
ATOM     31  C   UNL     1      10.626  15.075  20.741  0.00  0.00    +0.000 C 
ATOM     32  C   UNL     1      11.160  16.481  20.873  0.00  0.00    +0.000 C 
ATOM     33  C   UNL     1       9.885  16.238  20.120  0.00  0.00    +0.000 C 
ENDBRANCH  29  31
ENDBRANCH  26  29
ENDBRANCH  22  23
ENDBRANCH  21  22
ENDBRANCH  20  21
ENDBRANCH  19  20
ENDBRANCH   4  19
TORSDOF 11
ENDMDL
MODEL 5
REMARK VINA RESULT:      -7.2      1.210      1.942
REMARK  Name = 
REMARK  12 active torsions:
REMARK  status: ('A' for Active; 'I' for Inactive)
REMARK    1  A    between atoms: C_1  and  O_2
REMARK    2  A    between atoms: O_2  and  C_3
REMARK    3  A    between atoms: C_6  and  S_7
REMARK    4  A    between atoms: S_7  and  N_10
REMARK    5  A    between atoms: N_10  and  C_11
REMARK    6  A    between atoms: N_14  and  C_15
REMARK    7  A    between atoms: C_15  and  C_16
REMARK    8  A    between atoms: C_16  and  C_17
REMARK    9  A    between atoms: C_17  and  O_18
REMARK   10  A    between atoms: O_18  and  C_19
REMARK   11  A    between atoms: C_22  and  C_23
REMARK   12  A    between atoms: C_23  and  C_25
REMARK                            x       y       z     vdW  Elec       q    Type
REMARK                         _______ _______ _______ _____ _____    ______ ____
ROOT
ATOM      1  C   UNL     1       5.278   3.985  17.544  0.00  0.00    +0.000 C 
ATOM      2  C   UNL     1       6.232   4.249  16.383  0.00  0.00    +0.000 C 
ATOM      3  C   UNL     1       7.469   4.779  17.089  0.00  0.00    +0.000 C 
ATOM      4  N   UNL     1       6.944   5.683  18.126  0.00  0.00    +0.000 NA
ATOM      5  C   UNL     1       5.704   5.025  18.600  0.00  0.00    +0.000 C 
ENDROOT
BRANCH   1   6
ATOM      6  N   UNL     1       3.880   4.127  17.105  0.00  0.00    +0.000 NA
ATOM      7  H   UNL     1       3.633   4.941  16.540  0.00  0.00    +0.000 HD
BRANCH   6   8
ATOM      8  S   UNL     1       2.629   3.705  18.147  0.00  0.00    +0.000 S 
ATOM      9  O   UNL     1       3.231   2.843  19.143  0.00  0.00    +0.000 OA
ATOM     10  O   UNL     1       1.477   3.290  17.386  0.00  0.00    +0.000 OA
BRANCH   8  14
ATOM     11  C   UNL     1       1.772   7.667  20.244  0.00  0.00    +0.000 A 
ATOM     12  C   UNL     1       1.559   6.457  20.907  0.00  0.00    +0.000 A 
ATOM     13  C   UNL     1       1.805   5.242  20.267  0.00  0.00    +0.000 A 
ATOM     14  C   UNL     1       2.235   5.245  18.938  0.00  0.00    +0.000 A 
ATOM     15  C   UNL     1       2.449   6.449  18.262  0.00  0.00    +0.000 A 
ATOM     16  C   UNL     1       2.214   7.662  18.917  0.00  0.00    +0.000 A 
BRANCH  11  18
ATOM     17  C   UNL     1       0.576   9.704  20.381  0.00  0.00    +0.000 C 
ATOM     18  O   UNL     1       1.487   8.784  20.974  0.00  0.00    +0.000 OA
ENDBRANCH  11  18
ENDBRANCH   8  14
ENDBRANCH   6   8
ENDBRANCH   1   6
BRANCH   4  19
ATOM     19  C   UNL     1       6.688   7.035  17.595  0.00  0.00    +0.000 C 
BRANCH  19  20
ATOM     20  C   UNL     1       7.961   7.833  17.285  0.00  0.00    +0.000 C 
BRANCH  20  21
ATOM     21  C   UNL     1       8.211   8.936  18.303  0.00  0.00    +0.000 C 
BRANCH  21  22
ATOM     22  O   UNL     1       8.992   9.957  17.676  0.00  0.00    +0.000 OA
BRANCH  22  23
ATOM     23  C   UNL     1       9.408  10.964  18.502  0.00  0.00    +0.000 A 
ATOM     24  C   UNL     1       9.614  12.200  17.889  0.00  0.00    +0.000 A 
ATOM     25  C   UNL     1      10.037  13.301  18.639  0.00  0.00    +0.000 A 
ATOM     26  C   UNL     1      10.242  13.183  20.021  0.00  0.00    +0.000 A 
ATOM     27  C   UNL     1      10.016  11.946  20.633  0.00  0.00    +0.000 A 
ATOM     28  C   UNL     1       9.600  10.845  19.877  0.00  0.00    +0.000 A 
BRANCH  26  29
ATOM     29  C   UNL     1      10.676  14.389  20.788  0.00  0.00    +0.000 C 
ATOM     30  O   UNL     1      11.525  15.142  20.323  0.00  0.00    +0.000 OA
BRANCH  29  31
ATOM     31  C   UNL     1      10.033  14.708  22.103  0.00  0.00    +0.000 C 
ATOM     32  C   UNL     1      10.104  16.092  22.705  0.00  0.00    +0.000 C 
ATOM     33  C   UNL     1       8.816  15.606  22.107  0.00  0.00    +0.000 C 
ENDBRANCH  29  31
ENDBRANCH  26  29
ENDBRANCH  22  23
ENDBRANCH  21  22
ENDBRANCH  20  21
ENDBRANCH  19  20
ENDBRANCH   4  19
TORSDOF 11
ENDMDL
MODEL 6
REMARK VINA RESULT:      -7.1      1.280      1.682
REMARK  Name = 
REMARK  12 active torsions:
REMARK  status: ('A' for Active; 'I' for Inactive)
REMARK    1  A    between atoms: C_1  and  O_2
REMARK    2  A    between atoms: O_2  and  C_3
REMARK    3  A    between atoms: C_6  and  S_7
REMARK    4  A    between atoms: S_7  and  N_10
REMARK    5  A    between atoms: N_10  and  C_11
REMARK    6  A    between atoms: N_14  and  C_15
REMARK    7  A    between atoms: C_15  and  C_16
REMARK    8  A    between atoms: C_16  and  C_17
REMARK    9  A    between atoms: C_17  and  O_18
REMARK   10  A    between atoms: O_18  and  C_19
REMARK   11  A    between atoms: C_22  and  C_23
REMARK   12  A    between atoms: C_23  and  C_25
REMARK                            x       y       z     vdW  Elec       q    Type
REMARK                         _______ _______ _______ _____ _____    ______ ____
ROOT
ATOM      1  C   UNL     1       6.325   4.125  17.546  0.00  0.00    +0.000 C 
ATOM      2  C   UNL     1       5.505   4.739  16.416  0.00  0.00    +0.000 C 
ATOM      3  C   UNL     1       6.578   5.287  15.492  0.00  0.00    +0.000 C 
ATOM      4  N   UNL     1       7.572   5.890  16.394  0.00  0.00    +0.000 NA
ATOM      5  C   UNL     1       7.603   4.988  17.569  0.00  0.00    +0.000 C 
ENDROOT
BRANCH   1   6
ATOM      6  N   UNL     1       5.569   4.156  18.809  0.00  0.00    +0.000 NA
ATOM      7  H   UNL     1       6.002   3.746  19.639  0.00  0.00    +0.000 HD
BRANCH   6   8
ATOM      8  S   UNL     1       3.907   3.897  18.796  0.00  0.00    +0.000 S 
ATOM      9  O   UNL     1       3.616   3.198  20.030  0.00  0.00    +0.000 OA
ATOM     10  O   UNL     1       3.505   3.369  17.516  0.00  0.00    +0.000 OA
BRANCH   8  14
ATOM     11  C   UNL     1       2.072   8.065  19.089  0.00  0.00    +0.000 A 
ATOM     12  C   UNL     1       2.817   7.700  17.966  0.00  0.00    +0.000 A 
ATOM     13  C   UNL     1       3.393   6.432  17.877  0.00  0.00    +0.000 A 
ATOM     14  C   UNL     1       3.248   5.539  18.940  0.00  0.00    +0.000 A 
ATOM     15  C   UNL     1       2.507   5.894  20.071  0.00  0.00    +0.000 A 
ATOM     16  C   UNL     1       1.921   7.162  20.145  0.00  0.00    +0.000 A 
BRANCH  11  18
ATOM     17  C   UNL     1       0.491   9.558  18.157  0.00  0.00    +0.000 C 
ATOM     18  O   UNL     1       1.569   9.333  19.060  0.00  0.00    +0.000 OA
ENDBRANCH  11  18
ENDBRANCH   8  14
ENDBRANCH   6   8
ENDBRANCH   1   6
BRANCH   4  19
ATOM     19  C   UNL     1       7.209   7.271  16.764  0.00  0.00    +0.000 C 
BRANCH  19  20
ATOM     20  C   UNL     1       7.816   7.739  18.093  0.00  0.00    +0.000 C 
BRANCH  20  21
ATOM     21  C   UNL     1       8.307   9.179  18.025  0.00  0.00    +0.000 C 
BRANCH  21  22
ATOM     22  O   UNL     1       9.117   9.430  19.177  0.00  0.00    +0.000 OA
BRANCH  22  23
ATOM     23  C   UNL     1       9.707  10.663  19.218  0.00  0.00    +0.000 A 
ATOM     24  C   UNL     1      10.148  11.161  17.992  0.00  0.00    +0.000 A 
ATOM     25  C   UNL     1      10.763  12.413  17.916  0.00  0.00    +0.000 A 
ATOM     26  C   UNL     1      10.928  13.196  19.067  0.00  0.00    +0.000 A 
ATOM     27  C   UNL     1      10.467  12.699  20.291  0.00  0.00    +0.000 A 
ATOM     28  C   UNL     1       9.859  11.441  20.363  0.00  0.00    +0.000 A 
BRANCH  26  29
ATOM     29  C   UNL     1      11.574  14.536  18.940  0.00  0.00    +0.000 C 
ATOM     30  O   UNL     1      11.835  15.192  19.943  0.00  0.00    +0.000 OA
BRANCH  29  31
ATOM     31  C   UNL     1      11.954  15.057  17.588  0.00  0.00    +0.000 C 
ATOM     32  C   UNL     1      11.027  15.943  16.790  0.00  0.00    +0.000 C 
ATOM     33  C   UNL     1      12.241  16.534  17.444  0.00  0.00    +0.000 C 
ENDBRANCH  29  31
ENDBRANCH  26  29
ENDBRANCH  22  23
ENDBRANCH  21  22
ENDBRANCH  20  21
ENDBRANCH  19  20
ENDBRANCH   4  19
TORSDOF 11
ENDMDL
MODEL 7
REMARK VINA RESULT:      -7.1      1.832      2.269
REMARK  Name = 
REMARK  12 active torsions:
REMARK  status: ('A' for Active; 'I' for Inactive)
REMARK    1  A    between atoms: C_1  and  O_2
REMARK    2  A    between atoms: O_2  and  C_3
REMARK    3  A    between atoms: C_6  and  S_7
REMARK    4  A    between atoms: S_7  and  N_10
REMARK    5  A    between atoms: N_10  and  C_11
REMARK    6  A    between atoms: N_14  and  C_15
REMARK    7  A    between atoms: C_15  and  C_16
REMARK    8  A    between atoms: C_16  and  C_17
REMARK    9  A    between atoms: C_17  and  O_18
REMARK   10  A    between atoms: O_18  and  C_19
REMARK   11  A    between atoms: C_22  and  C_23
REMARK   12  A    between atoms: C_23  and  C_25
REMARK                            x       y       z     vdW  Elec       q    Type
REMARK                         _______ _______ _______ _____ _____    ______ ____
ROOT
ATOM      1  C   UNL     1       5.188   5.365  18.520  0.00  0.00    +0.000 C 
ATOM      2  C   UNL     1       5.241   6.445  17.444  0.00  0.00    +0.000 C 
ATOM      3  C   UNL     1       6.609   6.222  16.823  0.00  0.00    +0.000 C 
ATOM      4  N   UNL     1       7.497   5.962  17.967  0.00  0.00    +0.000 NA
ATOM      5  C   UNL     1       6.667   5.178  18.911  0.00  0.00    +0.000 C 
ENDROOT
BRANCH   1   6
ATOM      6  N   UNL     1       4.329   5.792  19.638  0.00  0.00    +0.000 NA
ATOM      7  H   UNL     1       4.648   5.600  20.589  0.00  0.00    +0.000 HD
BRANCH   6   8
ATOM      8  S   UNL     1       2.659   5.649  19.512  0.00  0.00    +0.000 S 
ATOM      9  O   UNL     1       2.214   5.172  20.805  0.00  0.00    +0.000 OA
ATOM     10  O   UNL     1       2.317   4.958  18.294  0.00  0.00    +0.000 OA
BRANCH   8  14
ATOM     11  C   UNL     1       1.137   9.927  19.051  0.00  0.00    +0.000 A 
ATOM     12  C   UNL     1       1.689   9.253  17.960  0.00  0.00    +0.000 A 
ATOM     13  C   UNL     1       2.170   7.950  18.098  0.00  0.00    +0.000 A 
ATOM     14  C   UNL     1       2.126   7.335  19.350  0.00  0.00    +0.000 A 
ATOM     15  C   UNL     1       1.577   7.999  20.450  0.00  0.00    +0.000 A 
ATOM     16  C   UNL     1       1.085   9.300  20.299  0.00  0.00    +0.000 A 
BRANCH  11  18
ATOM     17  C   UNL     1       0.586  12.059  19.916  0.00  0.00    +0.000 C 
ATOM     18  O   UNL     1       0.711  11.196  18.789  0.00  0.00    +0.000 OA
ENDBRANCH  11  18
ENDBRANCH   8  14
ENDBRANCH   6   8
ENDBRANCH   1   6
BRANCH   4  19
ATOM     19  C   UNL     1       7.993   7.214  18.571  0.00  0.00    +0.000 C 
BRANCH  19  20
ATOM     20  C   UNL     1       8.124   8.374  17.576  0.00  0.00    +0.000 C 
BRANCH  20  21
ATOM     21  C   UNL     1       8.222   9.723  18.275  0.00  0.00    +0.000 C 
BRANCH  21  22
ATOM     22  O   UNL     1       9.563   9.887  18.745  0.00  0.00    +0.000 OA
BRANCH  22  23
ATOM     23  C   UNL     1      10.014  11.177  18.785  0.00  0.00    +0.000 A 
ATOM     24  C   UNL     1       9.242  12.063  19.536  0.00  0.00    +0.000 A 
ATOM     25  C   UNL     1       9.610  13.406  19.648  0.00  0.00    +0.000 A 
ATOM     26  C   UNL     1      10.772  13.878  19.021  0.00  0.00    +0.000 A 
ATOM     27  C   UNL     1      11.552  12.981  18.284  0.00  0.00    +0.000 A 
ATOM     28  C   UNL     1      11.175  11.639  18.169  0.00  0.00    +0.000 A 
BRANCH  26  29
ATOM     29  C   UNL     1      11.141  15.317  19.181  0.00  0.00    +0.000 C 
ATOM     30  O   UNL     1      10.964  15.882  20.255  0.00  0.00    +0.000 OA
BRANCH  29  31
ATOM     31  C   UNL     1      11.779  16.055  18.044  0.00  0.00    +0.000 C 
ATOM     32  C   UNL     1      11.110  16.165  16.695  0.00  0.00    +0.000 C 
ATOM     33  C   UNL     1      11.160  17.361  17.600  0.00  0.00    +0.000 C 
ENDBRANCH  29  31
ENDBRANCH  26  29
ENDBRANCH  22  23
ENDBRANCH  21  22
ENDBRANCH  20  21
ENDBRANCH  19  20
ENDBRANCH   4  19
TORSDOF 11
ENDMDL
MODEL 8
REMARK VINA RESULT:      -7.0      5.994      8.784
REMARK  Name = 
REMARK  12 active torsions:
REMARK  status: ('A' for Active; 'I' for Inactive)
REMARK    1  A    between atoms: C_1  and  O_2
REMARK    2  A    between atoms: O_2  and  C_3
REMARK    3  A    between atoms: C_6  and  S_7
REMARK    4  A    between atoms: S_7  and  N_10
REMARK    5  A    between atoms: N_10  and  C_11
REMARK    6  A    between atoms: N_14  and  C_15
REMARK    7  A    between atoms: C_15  and  C_16
REMARK    8  A    between atoms: C_16  and  C_17
REMARK    9  A    between atoms: C_17  and  O_18
REMARK   10  A    between atoms: O_18  and  C_19
REMARK   11  A    between atoms: C_22  and  C_23
REMARK   12  A    between atoms: C_23  and  C_25
REMARK                            x       y       z     vdW  Elec       q    Type
REMARK                         _______ _______ _______ _____ _____    ______ ____
ROOT
ATOM      1  C   UNL     1       4.087   3.213  18.215  0.00  0.00    +0.000 C 
ATOM      2  C   UNL     1       3.486   2.078  19.038  0.00  0.00    +0.000 C 
ATOM      3  C   UNL     1       1.996   2.361  18.946  0.00  0.00    +0.000 C 
ATOM      4  N   UNL     1       1.886   3.821  19.098  0.00  0.00    +0.000 NA
ATOM      5  C   UNL     1       3.070   4.359  18.389  0.00  0.00    +0.000 C 
ENDROOT
BRANCH   1   6
ATOM      6  N   UNL     1       5.438   3.543  18.700  0.00  0.00    +0.000 NA
ATOM      7  H   UNL     1       5.643   3.394  19.689  0.00  0.00    +0.000 HD
BRANCH   6   8
ATOM      8  S   UNL     1       6.230   4.904  18.110  0.00  0.00    +0.000 S 
ATOM      9  O   UNL     1       7.596   4.788  18.577  0.00  0.00    +0.000 OA
ATOM     10  O   UNL     1       5.440   6.081  18.371  0.00  0.00    +0.000 OA
BRANCH   8  14
ATOM     11  C   UNL     1       6.324   4.050  13.627  0.00  0.00    +0.000 A 
ATOM     12  C   UNL     1       7.403   4.682  14.248  0.00  0.00    +0.000 A 
ATOM     13  C   UNL     1       7.375   4.959  15.615  0.00  0.00    +0.000 A 
ATOM     14  C   UNL     1       6.238   4.630  16.356  0.00  0.00    +0.000 A 
ATOM     15  C   UNL     1       5.150   3.999  15.746  0.00  0.00    +0.000 A 
ATOM     16  C   UNL     1       5.194   3.713  14.378  0.00  0.00    +0.000 A 
BRANCH  11  18
ATOM     17  C   UNL     1       5.813   2.697  11.755  0.00  0.00    +0.000 C 
ATOM     18  O   UNL     1       6.470   3.843  12.287  0.00  0.00    +0.000 OA
ENDBRANCH  11  18
ENDBRANCH   8  14
ENDBRANCH   6   8
ENDBRANCH   1   6
BRANCH   4  19
ATOM     19  C   UNL     1       1.858   4.222  20.517  0.00  0.00    +0.000 C 
BRANCH  19  20
ATOM     20  C   UNL     1       1.316   5.638  20.752  0.00  0.00    +0.000 C 
BRANCH  20  21
ATOM     21  C   UNL     1       2.168   6.700  20.072  0.00  0.00    +0.000 C 
BRANCH  21  22
ATOM     22  O   UNL     1       2.006   7.930  20.786  0.00  0.00    +0.000 OA
BRANCH  22  23
ATOM     23  C   UNL     1       1.168   8.838  20.202  0.00  0.00    +0.000 A 
ATOM     24  C   UNL     1       1.353   9.035  18.833  0.00  0.00    +0.000 A 
ATOM     25  C   UNL     1       0.549   9.939  18.132  0.00  0.00    +0.000 A 
ATOM     26  C   UNL     1      -0.466  10.646  18.791  0.00  0.00    +0.000 A 
ATOM     27  C   UNL     1      -0.658  10.431  20.160  0.00  0.00    +0.000 A 
ATOM     28  C   UNL     1       0.153   9.531  20.858  0.00  0.00    +0.000 A 
BRANCH  26  29
ATOM     29  C   UNL     1      -1.314  11.589  18.002  0.00  0.00    +0.000 C 
ATOM     30  O   UNL     1      -1.100  12.796  18.049  0.00  0.00    +0.000 OA
BRANCH  29  31
ATOM     31  C   UNL     1      -2.392  11.055  17.109  0.00  0.00    +0.000 C 
ATOM     32  C   UNL     1      -3.110   9.763  17.417  0.00  0.00    +0.000 C 
ATOM     33  C   UNL     1      -3.816  11.072  17.616  0.00  0.00    +0.000 C 
ENDBRANCH  29  31
ENDBRANCH  26  29
ENDBRANCH  22  23
ENDBRANCH  21  22
ENDBRANCH  20  21
ENDBRANCH  19  20
ENDBRANCH   4  19
TORSDOF 11
ENDMDL
MODEL 9
REMARK VINA RESULT:      -6.9      6.698     10.558
REMARK  Name = 
REMARK  12 active torsions:
REMARK  status: ('A' for Active; 'I' for Inactive)
REMARK    1  A    between atoms: C_1  and  O_2
REMARK    2  A    between atoms: O_2  and  C_3
REMARK    3  A    between atoms: C_6  and  S_7
REMARK    4  A    between atoms: S_7  and  N_10
REMARK    5  A    between atoms: N_10  and  C_11
REMARK    6  A    between atoms: N_14  and  C_15
REMARK    7  A    between atoms: C_15  and  C_16
REMARK    8  A    between atoms: C_16  and  C_17
REMARK    9  A    between atoms: C_17  and  O_18
REMARK   10  A    between atoms: O_18  and  C_19
REMARK   11  A    between atoms: C_22  and  C_23
REMARK   12  A    between atoms: C_23  and  C_25
REMARK                            x       y       z     vdW  Elec       q    Type
REMARK                         _______ _______ _______ _____ _____    ______ ____
ROOT
ATOM      1  C   UNL     1      -4.416  10.994  16.808  0.00  0.00    +0.000 C 
ATOM      2  C   UNL     1      -3.469  11.133  15.620  0.00  0.00    +0.000 C 
ATOM      3  C   UNL     1      -2.730   9.807  15.633  0.00  0.00    +0.000 C 
ATOM      4  N   UNL     1      -2.454   9.550  17.056  0.00  0.00    +0.000 NA
ATOM      5  C   UNL     1      -3.653  10.055  17.763  0.00  0.00    +0.000 C 
ENDROOT
BRANCH   1   6
ATOM      6  N   UNL     1      -4.712  12.315  17.389  0.00  0.00    +0.000 NA
ATOM      7  H   UNL     1      -4.045  12.708  18.054  0.00  0.00    +0.000 HD
BRANCH   6   8
ATOM      8  S   UNL     1      -6.293  12.710  17.803  0.00  0.00    +0.000 S 
ATOM      9  O   UNL     1      -7.019  11.457  17.797  0.00  0.00    +0.000 OA
ATOM     10  O   UNL     1      -6.734  13.841  17.027  0.00  0.00    +0.000 OA
BRANCH   8  14
ATOM     11  C   UNL     1      -5.743  14.094  22.117  0.00  0.00    +0.000 A 
ATOM     12  C   UNL     1      -5.489  12.767  21.764  0.00  0.00    +0.000 A 
ATOM     13  C   UNL     1      -5.669  12.334  20.450  0.00  0.00    +0.000 A 
ATOM     14  C   UNL     1      -6.142  13.234  19.493  0.00  0.00    +0.000 A 
ATOM     15  C   UNL     1      -6.403  14.564  19.834  0.00  0.00    +0.000 A 
ATOM     16  C   UNL     1      -6.205  14.992  21.151  0.00  0.00    +0.000 A 
BRANCH  11  18
ATOM     17  C   UNL     1      -6.175  15.568  23.917  0.00  0.00    +0.000 C 
ATOM     18  O   UNL     1      -5.537  14.390  23.433  0.00  0.00    +0.000 OA
ENDBRANCH  11  18
ENDBRANCH   8  14
ENDBRANCH   6   8
ENDBRANCH   1   6
BRANCH   4  19
ATOM     19  C   UNL     1      -1.220  10.224  17.504  0.00  0.00    +0.000 C 
BRANCH  19  20
ATOM     20  C   UNL     1      -1.091  10.334  19.028  0.00  0.00    +0.000 C 
BRANCH  20  21
ATOM     21  C   UNL     1       0.356  10.499  19.472  0.00  0.00    +0.000 C 
BRANCH  21  22
ATOM     22  O   UNL     1       0.777   9.279  20.090  0.00  0.00    +0.000 OA
BRANCH  22  23
ATOM     23  C   UNL     1       1.660   8.531  19.362  0.00  0.00    +0.000 A 
ATOM     24  C   UNL     1       2.030   7.312  19.930  0.00  0.00    +0.000 A 
ATOM     25  C   UNL     1       2.925   6.465  19.271  0.00  0.00    +0.000 A 
ATOM     26  C   UNL     1       3.450   6.820  18.021  0.00  0.00    +0.000 A 
ATOM     27  C   UNL     1       3.061   8.036  17.448  0.00  0.00    +0.000 A 
ATOM     28  C   UNL     1       2.171   8.883  18.115  0.00  0.00    +0.000 A 
BRANCH  26  29
ATOM     29  C   UNL     1       4.389   5.879  17.342  0.00  0.00    +0.000 C 
ATOM     30  O   UNL     1       4.161   4.674  17.343  0.00  0.00    +0.000 OA
BRANCH  29  31
ATOM     31  C   UNL     1       5.582   6.412  16.610  0.00  0.00    +0.000 C 
ATOM     32  C   UNL     1       6.824   6.866  17.341  0.00  0.00    +0.000 C 
ATOM     33  C   UNL     1       6.839   5.572  16.580  0.00  0.00    +0.000 C 
ENDBRANCH  29  31
ENDBRANCH  26  29
ENDBRANCH  22  23
ENDBRANCH  21  22
ENDBRANCH  20  21
ENDBRANCH  19  20
ENDBRANCH   4  19
TORSDOF 11
ENDMDL
