MODEL 1
REMARK VINA RESULT:      -7.7      0.000      0.000
REMARK  Name = 
REMARK  7 active torsions:
REMARK  status: ('A' for Active; 'I' for Inactive)
REMARK    1  A    between atoms: C_1  and  N_2
REMARK    2  A    between atoms: N_2  and  C_3
REMARK    3  A    between atoms: N_2  and  C_4
REMARK    4  A    between atoms: C_4  and  C_5
REMARK    5  A    between atoms: C_5  and  N_6
REMARK    6  A    between atoms: C_7  and  C_9
REMARK    7  A    between atoms: C_16  and  C_17
REMARK                            x       y       z     vdW  Elec       q    Type
REMARK                         _______ _______ _______ _____ _____    ______ ____
ROOT
ATOM      1  C   UNL     1       2.088   5.118  19.577  0.00  0.00    +0.000 A 
ATOM      2  C   UNL     1       1.181   4.704  20.577  0.00  0.00    +0.000 A 
ATOM      3  C   UNL     1       0.943   3.350  20.815  0.00  0.00    +0.000 A 
ATOM      4  C   UNL     1       1.611   2.378  20.076  0.00  0.00    +0.000 A 
ATOM      5  C   UNL     1       2.519   2.756  19.081  0.00  0.00    +0.000 A 
ATOM      6  C   UNL     1       3.215   1.793  18.349  0.00  0.00    +0.000 A 
ATOM      7  C   UNL     1       4.130   2.182  17.370  0.00  0.00    +0.000 A 
ATOM      8  C   UNL     1       4.350   3.551  17.117  0.00  0.00    +0.000 A 
ATOM      9  N   UNL     1       3.655   4.464  17.852  0.00  0.00    +0.000 NA
ATOM     10  C   UNL     1       2.752   4.124  18.816  0.00  0.00    +0.000 A 
ENDROOT
BRANCH   8  11
ATOM     11  C   UNL     1       5.319   4.039  16.084  0.00  0.00    +0.000 A 
ATOM     12  C   UNL     1       5.245   3.642  14.730  0.00  0.00    +0.000 A 
ATOM     13  C   UNL     1       6.169   4.116  13.795  0.00  0.00    +0.000 A 
ATOM     14  C   UNL     1       7.184   4.990  14.185  0.00  0.00    +0.000 A 
ATOM     15  F   UNL     1       8.078   5.443  13.273  0.00  0.00    +0.000 F 
ATOM     16  C   UNL     1       7.275   5.395  15.517  0.00  0.00    +0.000 A 
ATOM     17  C   UNL     1       6.354   4.926  16.459  0.00  0.00    +0.000 A 
ENDBRANCH   8  11
BRANCH   1  19
ATOM     18  N   UNL     1       2.428   7.090  18.096  0.00  0.00    +0.000 N 
ATOM     19  C   UNL     1       2.363   6.575  19.355  0.00  0.00    +0.000 C 
ATOM     20  O   UNL     1       2.458   7.328  20.315  0.00  0.00    +0.000 OA
ATOM     21  H   UNL     1       2.274   6.477  17.283  0.00  0.00    +0.000 HD
BRANCH  18  22
ATOM     22  C   UNL     1       2.605   8.510  17.854  0.00  0.00    +0.000 C 
BRANCH  22  23
ATOM     23  C   UNL     1       1.246   9.233  17.829  0.00  0.00    +0.000 C 
BRANCH  23  25
ATOM     24  C   UNL     1       1.483  11.520  18.700  0.00  0.00    +0.000 C 
ATOM     25  N   UNL     1       1.062  10.137  18.990  0.00  0.00    +0.000 NA
ATOM     26  C   UNL     1      -0.349  10.134  19.406  0.00  0.00    +0.000 C 
ENDBRANCH  23  25
ENDBRANCH  22  23
ENDBRANCH  18  22
ENDBRANCH   1  19
TORSDOF 5
ENDMDL
MODEL 2
REMARK VINA RESULT:      -6.9      3.160      6.802
REMARK  Name = 
REMARK  7 active torsions:
REMARK  status: ('A' for Active; 'I' for Inactive)
REMARK    1  A    between atoms: C_1  and  N_2
REMARK    2  A    between atoms: N_2  and  C_3
REMARK    3  A    between atoms: N_2  and  C_4
REMARK    4  A    between atoms: C_4  and  C_5
REMARK    5  A    between atoms: C_5  and  N_6
REMARK    6  A    between atoms: C_7  and  C_9
REMARK    7  A    between atoms: C_16  and  C_17
REMARK                            x       y       z     vdW  Elec       q    Type
REMARK                         _______ _______ _______ _____ _____    ______ ____
ROOT
ATOM      1  C   UNL     1       4.388   3.722  17.162  0.00  0.00    +0.000 A 
ATOM      2  C   UNL     1       5.294   3.026  16.333  0.00  0.00    +0.000 A 
ATOM      3  C   UNL     1       6.082   3.704  15.402  0.00  0.00    +0.000 A 
ATOM      4  C   UNL     1       5.997   5.089  15.283  0.00  0.00    +0.000 A 
ATOM      5  C   UNL     1       5.110   5.807  16.092  0.00  0.00    +0.000 A 
ATOM      6  C   UNL     1       5.032   7.197  16.003  0.00  0.00    +0.000 A 
ATOM      7  C   UNL     1       4.156   7.905  16.826  0.00  0.00    +0.000 A 
ATOM      8  C   UNL     1       3.345   7.215  17.749  0.00  0.00    +0.000 A 
ATOM      9  N   UNL     1       3.450   5.857  17.812  0.00  0.00    +0.000 NA
ATOM     10  C   UNL     1       4.292   5.130  17.024  0.00  0.00    +0.000 A 
ENDROOT
BRANCH   8  11
ATOM     11  C   UNL     1       2.385   7.910  18.666  0.00  0.00    +0.000 A 
ATOM     12  C   UNL     1       2.140   7.463  19.984  0.00  0.00    +0.000 A 
ATOM     13  C   UNL     1       1.235   8.135  20.809  0.00  0.00    +0.000 A 
ATOM     14  C   UNL     1       0.555   9.260  20.343  0.00  0.00    +0.000 A 
ATOM     15  F   UNL     1      -0.323   9.905  21.149  0.00  0.00    +0.000 F 
ATOM     16  C   UNL     1       0.782   9.718  19.045  0.00  0.00    +0.000 A 
ATOM     17  C   UNL     1       1.688   9.052  18.213  0.00  0.00    +0.000 A 
ENDBRANCH   8  11
BRANCH   1  19
ATOM     18  N   UNL     1       2.214   2.951  18.099  0.00  0.00    +0.000 N 
ATOM     19  C   UNL     1       3.573   2.988  18.184  0.00  0.00    +0.000 C 
ATOM     20  O   UNL     1       4.135   2.352  19.065  0.00  0.00    +0.000 OA
ATOM     21  H   UNL     1       1.736   3.421  17.318  0.00  0.00    +0.000 HD
BRANCH  18  22
ATOM     22  C   UNL     1       1.407   2.176  19.024  0.00  0.00    +0.000 C 
BRANCH  22  23
ATOM     23  C   UNL     1       0.619   3.101  19.969  0.00  0.00    +0.000 C 
BRANCH  23  25
ATOM     24  C   UNL     1       2.031   2.055  21.688  0.00  0.00    +0.000 C 
ATOM     25  N   UNL     1       1.276   3.257  21.289  0.00  0.00    +0.000 NA
ATOM     26  C   UNL     1       2.183   4.415  21.261  0.00  0.00    +0.000 C 
ENDBRANCH  23  25
ENDBRANCH  22  23
ENDBRANCH  18  22
ENDBRANCH   1  19
TORSDOF 5
ENDMDL
MODEL 3
REMARK VINA RESULT:      -6.9      2.919      6.503
REMARK  Name = 
REMARK  7 active torsions:
REMARK  status: ('A' for Active; 'I' for Inactive)
REMARK    1  A    between atoms: C_1  and  N_2
REMARK    2  A    between atoms: N_2  and  C_3
REMARK    3  A    between atoms: N_2  and  C_4
REMARK    4  A    between atoms: C_4  and  C_5
REMARK    5  A    between atoms: C_5  and  N_6
REMARK    6  A    between atoms: C_7  and  C_9
REMARK    7  A    between atoms: C_16  and  C_17
REMARK                            x       y       z     vdW  Elec       q    Type
REMARK                         _______ _______ _______ _____ _____    ______ ____
ROOT
ATOM      1  C   UNL     1       4.752   4.018  19.343  0.00  0.00    +0.000 A 
ATOM      2  C   UNL     1       5.006   2.668  19.671  0.00  0.00    +0.000 A 
ATOM      3  C   UNL     1       4.092   1.927  20.421  0.00  0.00    +0.000 A 
ATOM      4  C   UNL     1       2.900   2.506  20.849  0.00  0.00    +0.000 A 
ATOM      5  C   UNL     1       2.618   3.840  20.536  0.00  0.00    +0.000 A 
ATOM      6  C   UNL     1       1.416   4.426  20.936  0.00  0.00    +0.000 A 
ATOM      7  C   UNL     1       1.138   5.752  20.605  0.00  0.00    +0.000 A 
ATOM      8  C   UNL     1       2.074   6.504  19.867  0.00  0.00    +0.000 A 
ATOM      9  N   UNL     1       3.236   5.899  19.490  0.00  0.00    +0.000 NA
ATOM     10  C   UNL     1       3.545   4.607  19.795  0.00  0.00    +0.000 A 
ENDROOT
BRANCH   8  11
ATOM     11  C   UNL     1       1.840   7.931  19.473  0.00  0.00    +0.000 A 
ATOM     12  C   UNL     1       1.190   8.852  20.325  0.00  0.00    +0.000 A 
ATOM     13  C   UNL     1       0.986  10.175  19.922  0.00  0.00    +0.000 A 
ATOM     14  C   UNL     1       1.421  10.607  18.669  0.00  0.00    +0.000 A 
ATOM     15  F   UNL     1       1.217  11.891  18.285  0.00  0.00    +0.000 F 
ATOM     16  C   UNL     1       2.064   9.713  17.813  0.00  0.00    +0.000 A 
ATOM     17  C   UNL     1       2.273   8.388  18.209  0.00  0.00    +0.000 A 
ENDBRANCH   8  11
BRANCH   1  19
ATOM     18  N   UNL     1       5.419   5.145  17.225  0.00  0.00    +0.000 N 
ATOM     19  C   UNL     1       5.724   4.793  18.505  0.00  0.00    +0.000 C 
ATOM     20  O   UNL     1       6.775   5.182  18.997  0.00  0.00    +0.000 OA
ATOM     21  H   UNL     1       4.505   4.887  16.827  0.00  0.00    +0.000 HD
BRANCH  18  22
ATOM     22  C   UNL     1       6.303   5.969  16.422  0.00  0.00    +0.000 C 
BRANCH  22  23
ATOM     23  C   UNL     1       7.201   5.096  15.526  0.00  0.00    +0.000 C 
BRANCH  23  25
ATOM     24  C   UNL     1       7.918   5.285  13.182  0.00  0.00    +0.000 C 
ATOM     25  N   UNL     1       6.779   5.120  14.105  0.00  0.00    +0.000 NA
ATOM     26  C   UNL     1       6.062   3.878  13.776  0.00  0.00    +0.000 C 
ENDBRANCH  23  25
ENDBRANCH  22  23
ENDBRANCH  18  22
ENDBRANCH   1  19
TORSDOF 5
ENDMDL
MODEL 4
REMARK VINA RESULT:      -6.8      3.058      6.136
REMARK  Name = 
REMARK  7 active torsions:
REMARK  status: ('A' for Active; 'I' for Inactive)
REMARK    1  A    between atoms: C_1  and  N_2
REMARK    2  A    between atoms: N_2  and  C_3
REMARK    3  A    between atoms: N_2  and  C_4
REMARK    4  A    between atoms: C_4  and  C_5
REMARK    5  A    between atoms: C_5  and  N_6
REMARK    6  A    between atoms: C_7  and  C_9
REMARK    7  A    between atoms: C_16  and  C_17
REMARK                            x       y       z     vdW  Elec       q    Type
REMARK                         _______ _______ _______ _____ _____    ______ ____
ROOT
ATOM      1  C   UNL     1       3.803   3.735  17.973  0.00  0.00    +0.000 A 
ATOM      2  C   UNL     1       3.969   2.340  18.111  0.00  0.00    +0.000 A 
ATOM      3  C   UNL     1       3.301   1.632  19.110  0.00  0.00    +0.000 A 
ATOM      4  C   UNL     1       2.442   2.292  19.985  0.00  0.00    +0.000 A 
ATOM      5  C   UNL     1       2.254   3.673  19.872  0.00  0.00    +0.000 A 
ATOM      6  C   UNL     1       1.377   4.345  20.726  0.00  0.00    +0.000 A 
ATOM      7  C   UNL     1       1.185   5.720  20.594  0.00  0.00    +0.000 A 
ATOM      8  C   UNL     1       1.879   6.435  19.597  0.00  0.00    +0.000 A 
ATOM      9  N   UNL     1       2.725   5.747  18.780  0.00  0.00    +0.000 NA
ATOM     10  C   UNL     1       2.941   4.405  18.878  0.00  0.00    +0.000 A 
ENDROOT
BRANCH   8  11
ATOM     11  C   UNL     1       1.719   7.911  19.396  0.00  0.00    +0.000 A 
ATOM     12  C   UNL     1       1.165   8.753  20.387  0.00  0.00    +0.000 A 
ATOM     13  C   UNL     1       1.027  10.125  20.163  0.00  0.00    +0.000 A 
ATOM     14  C   UNL     1       1.434  10.687  18.952  0.00  0.00    +0.000 A 
ATOM     15  F   UNL     1       1.294  12.019  18.741  0.00  0.00    +0.000 F 
ATOM     16  C   UNL     1       1.983   9.874  17.961  0.00  0.00    +0.000 A 
ATOM     17  C   UNL     1       2.125   8.499  18.178  0.00  0.00    +0.000 A 
ENDBRANCH   8  11
BRANCH   1  19
ATOM     18  N   UNL     1       5.047   5.705  17.097  0.00  0.00    +0.000 N 
ATOM     19  C   UNL     1       4.497   4.479  16.872  0.00  0.00    +0.000 C 
ATOM     20  O   UNL     1       4.640   3.951  15.778  0.00  0.00    +0.000 OA
ATOM     21  H   UNL     1       4.998   6.125  18.035  0.00  0.00    +0.000 HD
BRANCH  18  22
ATOM     22  C   UNL     1       5.800   6.409  16.074  0.00  0.00    +0.000 C 
BRANCH  22  23
ATOM     23  C   UNL     1       7.251   6.647  16.532  0.00  0.00    +0.000 C 
BRANCH  23  25
ATOM     24  C   UNL     1       7.982   6.324  18.857  0.00  0.00    +0.000 C 
ATOM     25  N   UNL     1       7.328   7.229  17.894  0.00  0.00    +0.000 NA
ATOM     26  C   UNL     1       8.059   8.505  17.850  0.00  0.00    +0.000 C 
ENDBRANCH  23  25
ENDBRANCH  22  23
ENDBRANCH  18  22
ENDBRANCH   1  19
TORSDOF 5
ENDMDL
MODEL 5
REMARK VINA RESULT:      -6.8      1.840      5.184
REMARK  Name = 
REMARK  7 active torsions:
REMARK  status: ('A' for Active; 'I' for Inactive)
REMARK    1  A    between atoms: C_1  and  N_2
REMARK    2  A    between atoms: N_2  and  C_3
REMARK    3  A    between atoms: N_2  and  C_4
REMARK    4  A    between atoms: C_4  and  C_5
REMARK    5  A    between atoms: C_5  and  N_6
REMARK    6  A    between atoms: C_7  and  C_9
REMARK    7  A    between atoms: C_16  and  C_17
REMARK                            x       y       z     vdW  Elec       q    Type
REMARK                         _______ _______ _______ _____ _____    ______ ____
ROOT
ATOM      1  C   UNL     1       1.472   6.630  20.680  0.00  0.00    +0.000 A 
ATOM      2  C   UNL     1       0.627   7.432  21.477  0.00  0.00    +0.000 A 
ATOM      3  C   UNL     1       0.399   8.771  21.159  0.00  0.00    +0.000 A 
ATOM      4  C   UNL     1       0.992   9.338  20.034  0.00  0.00    +0.000 A 
ATOM      5  C   UNL     1       1.831   8.568  19.222  0.00  0.00    +0.000 A 
ATOM      6  C   UNL     1       2.414   9.114  18.078  0.00  0.00    +0.000 A 
ATOM      7  C   UNL     1       3.236   8.332  17.267  0.00  0.00    +0.000 A 
ATOM      8  C   UNL     1       3.483   6.986  17.604  0.00  0.00    +0.000 A 
ATOM      9  N   UNL     1       2.895   6.485  18.728  0.00  0.00    +0.000 NA
ATOM     10  C   UNL     1       2.088   7.216  19.546  0.00  0.00    +0.000 A 
ENDROOT
BRANCH   8  11
ATOM     11  C   UNL     1       4.351   6.088  16.778  0.00  0.00    +0.000 A 
ATOM     12  C   UNL     1       5.169   6.578  15.735  0.00  0.00    +0.000 A 
ATOM     13  C   UNL     1       5.964   5.709  14.982  0.00  0.00    +0.000 A 
ATOM     14  C   UNL     1       5.961   4.340  15.250  0.00  0.00    +0.000 A 
ATOM     15  F   UNL     1       6.733   3.504  14.513  0.00  0.00    +0.000 F 
ATOM     16  C   UNL     1       5.161   3.836  16.275  0.00  0.00    +0.000 A 
ATOM     17  C   UNL     1       4.364   4.698  17.034  0.00  0.00    +0.000 A 
ENDBRANCH   8  11
BRANCH   1  19
ATOM     18  N   UNL     1       0.959   4.211  20.385  0.00  0.00    +0.000 N 
ATOM     19  C   UNL     1       1.681   5.182  21.011  0.00  0.00    +0.000 C 
ATOM     20  O   UNL     1       2.561   4.860  21.798  0.00  0.00    +0.000 OA
ATOM     21  H   UNL     1       0.269   4.468  19.666  0.00  0.00    +0.000 HD
BRANCH  18  22
ATOM     22  C   UNL     1       1.203   2.800  20.622  0.00  0.00    +0.000 C 
BRANCH  22  23
ATOM     23  C   UNL     1       1.727   2.115  19.346  0.00  0.00    +0.000 C 
BRANCH  23  25
ATOM     24  C   UNL     1       3.916   2.214  20.460  0.00  0.00    +0.000 C 
ATOM     25  N   UNL     1       3.191   2.274  19.177  0.00  0.00    +0.000 NA
ATOM     26  C   UNL     1       3.706   1.230  18.277  0.00  0.00    +0.000 C 
ENDBRANCH  23  25
ENDBRANCH  22  23
ENDBRANCH  18  22
ENDBRANCH   1  19
TORSDOF 5
ENDMDL
MODEL 6
REMARK VINA RESULT:      -6.7      2.959      6.631
REMARK  Name = 
REMARK  7 active torsions:
REMARK  status: ('A' for Active; 'I' for Inactive)
REMARK    1  A    between atoms: C_1  and  N_2
REMARK    2  A    between atoms: N_2  and  C_3
REMARK    3  A    between atoms: N_2  and  C_4
REMARK    4  A    between atoms: C_4  and  C_5
REMARK    5  A    between atoms: C_5  and  N_6
REMARK    6  A    between atoms: C_7  and  C_9
REMARK    7  A    between atoms: C_16  and  C_17
REMARK                            x       y       z     vdW  Elec       q    Type
REMARK                         _______ _______ _______ _____ _____    ______ ____
ROOT
ATOM      1  C   UNL     1       4.282   3.932  18.423  0.00  0.00    +0.000 A 
ATOM      2  C   UNL     1       4.585   2.587  18.728  0.00  0.00    +0.000 A 
ATOM      3  C   UNL     1       4.012   1.954  19.831  0.00  0.00    +0.000 A 
ATOM      4  C   UNL     1       3.114   2.637  20.647  0.00  0.00    +0.000 A 
ATOM      5  C   UNL     1       2.791   3.970  20.368  0.00  0.00    +0.000 A 
ATOM      6  C   UNL     1       1.873   4.661  21.161  0.00  0.00    +0.000 A 
ATOM      7  C   UNL     1       1.546   5.984  20.865  0.00  0.00    +0.000 A 
ATOM      8  C   UNL     1       2.145   6.627  19.763  0.00  0.00    +0.000 A 
ATOM      9  N   UNL     1       3.034   5.921  19.009  0.00  0.00    +0.000 NA
ATOM     10  C   UNL     1       3.381   4.628  19.266  0.00  0.00    +0.000 A 
ENDROOT
BRANCH   8  11
ATOM     11  C   UNL     1       1.838   8.043  19.385  0.00  0.00    +0.000 A 
ATOM     12  C   UNL     1       2.219   8.593  18.140  0.00  0.00    +0.000 A 
ATOM     13  C   UNL     1       1.918   9.920  17.823  0.00  0.00    +0.000 A 
ATOM     14  C   UNL     1       1.237  10.727  18.734  0.00  0.00    +0.000 A 
ATOM     15  F   UNL     1       0.951  12.014  18.420  0.00  0.00    +0.000 F 
ATOM     16  C   UNL     1       0.851  10.204  19.969  0.00  0.00    +0.000 A 
ATOM     17  C   UNL     1       1.147   8.877  20.294  0.00  0.00    +0.000 A 
ENDBRANCH   8  11
BRANCH   1  19
ATOM     18  N   UNL     1       6.012   5.335  17.311  0.00  0.00    +0.000 N 
ATOM     19  C   UNL     1       4.875   4.590  17.214  0.00  0.00    +0.000 C 
ATOM     20  O   UNL     1       4.378   4.399  16.112  0.00  0.00    +0.000 OA
ATOM     21  H   UNL     1       6.480   5.439  18.222  0.00  0.00    +0.000 HD
BRANCH  18  22
ATOM     22  C   UNL     1       6.656   5.910  16.144  0.00  0.00    +0.000 C 
BRANCH  22  23
ATOM     23  C   UNL     1       7.235   4.806  15.240  0.00  0.00    +0.000 C 
BRANCH  23  25
ATOM     24  C   UNL     1       8.105   5.407  13.020  0.00  0.00    +0.000 C 
ATOM     25  N   UNL     1       6.919   5.021  13.808  0.00  0.00    +0.000 NA
ATOM     26  C   UNL     1       6.332   3.798  13.238  0.00  0.00    +0.000 C 
ENDBRANCH  23  25
ENDBRANCH  22  23
ENDBRANCH  18  22
ENDBRANCH   1  19
TORSDOF 5
ENDMDL
MODEL 7
REMARK VINA RESULT:      -6.7      3.246      6.952
REMARK  Name = 
REMARK  7 active torsions:
REMARK  status: ('A' for Active; 'I' for Inactive)
REMARK    1  A    between atoms: C_1  and  N_2
REMARK    2  A    between atoms: N_2  and  C_3
REMARK    3  A    between atoms: N_2  and  C_4
REMARK    4  A    between atoms: C_4  and  C_5
REMARK    5  A    between atoms: C_5  and  N_6
REMARK    6  A    between atoms: C_7  and  C_9
REMARK    7  A    between atoms: C_16  and  C_17
REMARK                            x       y       z     vdW  Elec       q    Type
REMARK                         _______ _______ _______ _____ _____    ______ ____
ROOT
ATOM      1  C   UNL     1       4.842   3.674  16.860  0.00  0.00    +0.000 A 
ATOM      2  C   UNL     1       5.709   3.138  15.883  0.00  0.00    +0.000 A 
ATOM      3  C   UNL     1       6.261   3.948  14.891  0.00  0.00    +0.000 A 
ATOM      4  C   UNL     1       5.977   5.311  14.856  0.00  0.00    +0.000 A 
ATOM      5  C   UNL     1       5.125   5.873  15.812  0.00  0.00    +0.000 A 
ATOM      6  C   UNL     1       4.850   7.241  15.806  0.00  0.00    +0.000 A 
ATOM      7  C   UNL     1       4.012   7.793  16.774  0.00  0.00    +0.000 A 
ATOM      8  C   UNL     1       3.437   6.967  17.761  0.00  0.00    +0.000 A 
ATOM      9  N   UNL     1       3.729   5.636  17.739  0.00  0.00    +0.000 NA
ATOM     10  C   UNL     1       4.542   5.059  16.809  0.00  0.00    +0.000 A 
ENDROOT
BRANCH   8  11
ATOM     11  C   UNL     1       2.531   7.492  18.832  0.00  0.00    +0.000 A 
ATOM     12  C   UNL     1       1.889   8.747  18.731  0.00  0.00    +0.000 A 
ATOM     13  C   UNL     1       1.053   9.206  19.753  0.00  0.00    +0.000 A 
ATOM     14  C   UNL     1       0.841   8.431  20.893  0.00  0.00    +0.000 A 
ATOM     15  F   UNL     1       0.031   8.885  21.880  0.00  0.00    +0.000 F 
ATOM     16  C   UNL     1       1.465   7.190  21.013  0.00  0.00    +0.000 A 
ATOM     17  C   UNL     1       2.302   6.722  19.995  0.00  0.00    +0.000 A 
ENDBRANCH   8  11
BRANCH   1  19
ATOM     18  N   UNL     1       4.774   2.863  19.213  0.00  0.00    +0.000 N 
ATOM     19  C   UNL     1       4.283   2.801  17.944  0.00  0.00    +0.000 C 
ATOM     20  O   UNL     1       3.326   2.078  17.707  0.00  0.00    +0.000 OA
ATOM     21  H   UNL     1       5.530   3.524  19.439  0.00  0.00    +0.000 HD
BRANCH  18  22
ATOM     22  C   UNL     1       4.194   2.094  20.299  0.00  0.00    +0.000 C 
BRANCH  22  23
ATOM     23  C   UNL     1       3.171   2.939  21.081  0.00  0.00    +0.000 C 
BRANCH  23  25
ATOM     24  C   UNL     1       1.065   2.376  22.217  0.00  0.00    +0.000 C 
ATOM     25  N   UNL     1       1.785   2.435  20.931  0.00  0.00    +0.000 NA
ATOM     26  C   UNL     1       1.041   3.292  19.995  0.00  0.00    +0.000 C 
ENDBRANCH  23  25
ENDBRANCH  22  23
ENDBRANCH  18  22
ENDBRANCH   1  19
TORSDOF 5
ENDMDL
MODEL 8
REMARK VINA RESULT:      -6.7      2.496      3.173
REMARK  Name = 
REMARK  7 active torsions:
REMARK  status: ('A' for Active; 'I' for Inactive)
REMARK    1  A    between atoms: C_1  and  N_2
REMARK    2  A    between atoms: N_2  and  C_3
REMARK    3  A    between atoms: N_2  and  C_4
REMARK    4  A    between atoms: C_4  and  C_5
REMARK    5  A    between atoms: C_5  and  N_6
REMARK    6  A    between atoms: C_7  and  C_9
REMARK    7  A    between atoms: C_16  and  C_17
REMARK                            x       y       z     vdW  Elec       q    Type
REMARK                         _______ _______ _______ _____ _____    ______ ____
ROOT
ATOM      1  C   UNL     1       2.008   4.226  19.596  0.00  0.00    +0.000 A 
ATOM      2  C   UNL     1       1.009   3.229  19.557  0.00  0.00    +0.000 A 
ATOM      3  C   UNL     1       1.067   2.190  18.626  0.00  0.00    +0.000 A 
ATOM      4  C   UNL     1       2.124   2.112  17.724  0.00  0.00    +0.000 A 
ATOM      5  C   UNL     1       3.131   3.083  17.740  0.00  0.00    +0.000 A 
ATOM      6  C   UNL     1       4.210   3.005  16.859  0.00  0.00    +0.000 A 
ATOM      7  C   UNL     1       5.217   3.969  16.894  0.00  0.00    +0.000 A 
ATOM      8  C   UNL     1       5.143   5.029  17.820  0.00  0.00    +0.000 A 
ATOM      9  N   UNL     1       4.077   5.073  18.668  0.00  0.00    +0.000 NA
ATOM     10  C   UNL     1       3.073   4.151  18.663  0.00  0.00    +0.000 A 
ENDROOT
BRANCH   8  11
ATOM     11  C   UNL     1       6.189   6.097  17.916  0.00  0.00    +0.000 A 
ATOM     12  C   UNL     1       7.326   5.970  18.746  0.00  0.00    +0.000 A 
ATOM     13  C   UNL     1       8.280   6.989  18.813  0.00  0.00    +0.000 A 
ATOM     14  C   UNL     1       8.122   8.153  18.061  0.00  0.00    +0.000 A 
ATOM     15  F   UNL     1       9.050   9.138  18.134  0.00  0.00    +0.000 F 
ATOM     16  C   UNL     1       7.007   8.300  17.236  0.00  0.00    +0.000 A 
ATOM     17  C   UNL     1       6.049   7.284  17.162  0.00  0.00    +0.000 A 
ENDBRANCH   8  11
BRANCH   1  19
ATOM     18  N   UNL     1       1.565   6.576  20.286  0.00  0.00    +0.000 N 
ATOM     19  C   UNL     1       1.955   5.316  20.624  0.00  0.00    +0.000 C 
ATOM     20  O   UNL     1       2.194   5.057  21.796  0.00  0.00    +0.000 OA
ATOM     21  H   UNL     1       1.290   6.785  19.317  0.00  0.00    +0.000 HD
BRANCH  18  22
ATOM     22  C   UNL     1       1.421   7.627  21.277  0.00  0.00    +0.000 C 
BRANCH  22  23
ATOM     23  C   UNL     1       0.968   8.942  20.616  0.00  0.00    +0.000 C 
BRANCH  23  25
ATOM     24  C   UNL     1      -0.183  11.076  21.027  0.00  0.00    +0.000 C 
ATOM     25  N   UNL     1       0.627   9.989  21.609  0.00  0.00    +0.000 NA
ATOM     26  C   UNL     1      -0.103   9.388  22.736  0.00  0.00    +0.000 C 
ENDBRANCH  23  25
ENDBRANCH  22  23
ENDBRANCH  18  22
ENDBRANCH   1  19
TORSDOF 5
ENDMDL
MODEL 9
REMARK VINA RESULT:      -6.7      2.472      3.155
REMARK  Name = 
REMARK  7 active torsions:
REMARK  status: ('A' for Active; 'I' for Inactive)
REMARK    1  A    between atoms: C_1  and  N_2
REMARK    2  A    between atoms: N_2  and  C_3
REMARK    3  A    between atoms: N_2  and  C_4
REMARK    4  A    between atoms: C_4  and  C_5
REMARK    5  A    between atoms: C_5  and  N_6
REMARK    6  A    between atoms: C_7  and  C_9
REMARK    7  A    between atoms: C_16  and  C_17
REMARK                            x       y       z     vdW  Elec       q    Type
REMARK                         _______ _______ _______ _____ _____    ______ ____
ROOT
ATOM      1  C   UNL     1       2.058   4.220  19.536  0.00  0.00    +0.000 A 
ATOM      2  C   UNL     1       1.078   3.206  19.482  0.00  0.00    +0.000 A 
ATOM      3  C   UNL     1       1.163   2.173  18.547  0.00  0.00    +0.000 A 
ATOM      4  C   UNL     1       2.231   2.118  17.655  0.00  0.00    +0.000 A 
ATOM      5  C   UNL     1       3.221   3.107  17.686  0.00  0.00    +0.000 A 
ATOM      6  C   UNL     1       4.311   3.051  16.816  0.00  0.00    +0.000 A 
ATOM      7  C   UNL     1       5.299   4.034  16.867  0.00  0.00    +0.000 A 
ATOM      8  C   UNL     1       5.198   5.087  17.798  0.00  0.00    +0.000 A 
ATOM      9  N   UNL     1       4.122   5.108  18.634  0.00  0.00    +0.000 NA
ATOM     10  C   UNL     1       3.134   4.169  18.614  0.00  0.00    +0.000 A 
ENDROOT
BRANCH   8  11
ATOM     11  C   UNL     1       6.224   6.173  17.910  0.00  0.00    +0.000 A 
ATOM     12  C   UNL     1       6.125   7.384  17.188  0.00  0.00    +0.000 A 
ATOM     13  C   UNL     1       7.104   8.373  17.315  0.00  0.00    +0.000 A 
ATOM     14  C   UNL     1       8.198   8.180  18.159  0.00  0.00    +0.000 A 
ATOM     15  F   UNL     1       9.144   9.143  18.275  0.00  0.00    +0.000 F 
ATOM     16  C   UNL     1       8.314   6.992  18.881  0.00  0.00    +0.000 A 
ATOM     17  C   UNL     1       7.339   5.997  18.760  0.00  0.00    +0.000 A 
ENDBRANCH   8  11
BRANCH   1  19
ATOM     18  N   UNL     1       1.629   6.574  20.222  0.00  0.00    +0.000 N 
ATOM     19  C   UNL     1       1.976   5.304  20.569  0.00  0.00    +0.000 C 
ATOM     20  O   UNL     1       2.149   5.032  21.749  0.00  0.00    +0.000 OA
ATOM     21  H   UNL     1       1.407   6.795  19.242  0.00  0.00    +0.000 HD
BRANCH  18  22
ATOM     22  C   UNL     1       1.456   7.621  21.213  0.00  0.00    +0.000 C 
BRANCH  22  23
ATOM     23  C   UNL     1       1.087   8.955  20.538  0.00  0.00    +0.000 C 
BRANCH  23  25
ATOM     24  C   UNL     1      -0.306   9.766  22.395  0.00  0.00    +0.000 C 
ATOM     25  N   UNL     1      -0.246   9.453  20.955  0.00  0.00    +0.000 NA
ATOM     26  C   UNL     1      -0.596  10.653  20.180  0.00  0.00    +0.000 C 
ENDBRANCH  23  25
ENDBRANCH  22  23
ENDBRANCH  18  22
ENDBRANCH   1  19
TORSDOF 5
ENDMDL
