MODEL 1
REMARK VINA RESULT:      -7.2      0.000      0.000
REMARK  Name = 
REMARK  10 active torsions:
REMARK  status: ('A' for Active; 'I' for Inactive)
REMARK    1  A    between atoms: C_1  and  O_2
REMARK    2  A    between atoms: O_2  and  C_3
REMARK    3  A    between atoms: C_4  and  O_5
REMARK    4  A    between atoms: O_5  and  C_6
REMARK    5  A    between atoms: C_9  and  C_11
REMARK    6  A    between atoms: C_22  and  C_23
REMARK    7  A    between atoms: C_22  and  C_24
REMARK    8  A    between atoms: C_26  and  O_27
REMARK    9  A    between atoms: C_26  and  C_28
REMARK   10  A    between atoms: C_28  and  C_29
REMARK                            x       y       z     vdW  Elec       q    Type
REMARK                         _______ _______ _______ _____ _____    ______ ____
ROOT
ATOM      1  C   UNL     1      -0.391  10.765  20.708  0.00  0.00    +0.000 C 
ATOM      2  C   UNL     1       0.637  10.697  19.573  0.00  0.00    +0.000 C 
ATOM      3  C   UNL     1       1.423  12.009  19.467  0.00  0.00    +0.000 C 
ATOM      4  O   UNL     1       0.595  13.193  19.432  0.00  0.00    +0.000 OA
ATOM      5  C   UNL     1      -0.395  13.329  20.481  0.00  0.00    +0.000 C 
ATOM      6  C   UNL     1       0.283  13.751  21.804  0.00  0.00    +0.000 C 
ATOM      7  O   UNL     1      -0.206  15.047  22.185  0.00  0.00    +0.000 OA
ATOM      8  C   UNL     1      -1.311  15.310  21.338  0.00  0.00    +0.000 C 
ATOM      9  C   UNL     1      -2.625  15.086  22.093  0.00  0.00    +0.000 C 
ATOM     10  C   UNL     1      -1.280  16.770  20.890  0.00  0.00    +0.000 C 
ATOM     11  O   UNL     1      -1.226  14.479  20.194  0.00  0.00    +0.000 OA
ATOM     12  C   UNL     1      -1.304  12.025  20.512  0.00  0.00    +0.000 C 
ENDROOT
BRANCH  12  13
ATOM     13  C   UNL     1      -2.240  11.854  19.264  0.00  0.00    +0.000 C 
ATOM     14  C   UNL     1      -3.687  12.229  19.448  0.00  0.00    +0.000 C 
ATOM     15  C   UNL     1      -1.745  11.746  17.812  0.00  0.00    +0.000 C 
ATOM     16  O   UNL     1      -2.118  10.598  18.566  0.00  0.00    +0.000 OA
ENDBRANCH  12  13
BRANCH   1  18
ATOM     17  C   UNL     1       0.039   9.793  22.908  0.00  0.00    +0.000 C 
ATOM     18  O   UNL     1       0.199  10.893  22.025  0.00  0.00    +0.000 OA
ENDBRANCH   1  18
BRANCH  12  19
ATOM     19  O   UNL     1      -2.186  12.040  21.660  0.00  0.00    +0.000 OA
ATOM     20  H   UNL     1      -2.488  12.964  21.760  0.00  0.00    +0.000 HD
ENDBRANCH  12  19
BRANCH   2  21
ATOM     21  O   UNL     1       1.342   9.430  19.570  0.00  0.00    +0.000 OA
BRANCH  21  22
ATOM     22  C   UNL     1       1.853   8.792  18.502  0.00  0.00    +0.000 C 
ATOM     23  O   UNL     1       2.101   9.314  17.425  0.00  0.00    +0.000 OA
ATOM     24  N   UNL     1       2.190   7.472  18.757  0.00  0.00    +0.000 N 
ATOM     25  C   UNL     1       2.022   6.781  19.954  0.00  0.00    +0.000 C 
ATOM     26  O   UNL     1       1.423   7.219  20.930  0.00  0.00    +0.000 OA
ATOM     27  H   UNL     1       2.722   7.060  18.009  0.00  0.00    +0.000 HD
BRANCH  25  28
ATOM     28  C   UNL     1       2.605   5.400  20.056  0.00  0.00    +0.000 A 
ATOM     29  C   UNL     1       1.968   4.504  20.936  0.00  0.00    +0.000 A 
ATOM     30  C   UNL     1       2.423   3.189  21.080  0.00  0.00    +0.000 A 
ATOM     31  C   UNL     1       3.522   2.756  20.342  0.00  0.00    +0.000 A 
ATOM     32  C   UNL     1       4.156   3.629  19.461  0.00  0.00    +0.000 A 
ATOM     33  C   UNL     1       3.702   4.948  19.312  0.00  0.00    +0.000 A 
ENDBRANCH  25  28
ENDBRANCH  21  22
ENDBRANCH   2  21
TORSDOF 6
ENDMDL
MODEL 2
REMARK VINA RESULT:      -7.1      1.550      2.761
REMARK  Name = 
REMARK  10 active torsions:
REMARK  status: ('A' for Active; 'I' for Inactive)
REMARK    1  A    between atoms: C_1  and  O_2
REMARK    2  A    between atoms: O_2  and  C_3
REMARK    3  A    between atoms: C_4  and  O_5
REMARK    4  A    between atoms: O_5  and  C_6
REMARK    5  A    between atoms: C_9  and  C_11
REMARK    6  A    between atoms: C_22  and  C_23
REMARK    7  A    between atoms: C_22  and  C_24
REMARK    8  A    between atoms: C_26  and  O_27
REMARK    9  A    between atoms: C_26  and  C_28
REMARK   10  A    between atoms: C_28  and  C_29
REMARK                            x       y       z     vdW  Elec       q    Type
REMARK                         _______ _______ _______ _____ _____    ______ ____
ROOT
ATOM      1  C   UNL     1      -0.084  11.422  19.218  0.00  0.00    +0.000 C 
ATOM      2  C   UNL     1       0.897  10.650  20.108  0.00  0.00    +0.000 C 
ATOM      3  C   UNL     1       0.470  10.716  21.579  0.00  0.00    +0.000 C 
ATOM      4  O   UNL     1       0.181  12.051  22.051  0.00  0.00    +0.000 OA
ATOM      5  C   UNL     1      -0.747  12.837  21.263  0.00  0.00    +0.000 C 
ATOM      6  C   UNL     1      -2.196  12.356  21.506  0.00  0.00    +0.000 C 
ATOM      7  O   UNL     1      -2.946  13.424  22.109  0.00  0.00    +0.000 OA
ATOM      8  C   UNL     1      -2.134  14.579  21.999  0.00  0.00    +0.000 C 
ATOM      9  C   UNL     1      -2.631  15.472  20.857  0.00  0.00    +0.000 C 
ATOM     10  C   UNL     1      -2.216  15.392  23.289  0.00  0.00    +0.000 C 
ATOM     11  O   UNL     1      -0.788  14.183  21.794  0.00  0.00    +0.000 OA
ATOM     12  C   UNL     1      -0.240  12.886  19.757  0.00  0.00    +0.000 C 
ENDROOT
BRANCH  12  13
ATOM     13  C   UNL     1       1.079  13.709  19.541  0.00  0.00    +0.000 C 
ATOM     14  C   UNL     1       0.931  15.068  18.909  0.00  0.00    +0.000 C 
ATOM     15  C   UNL     1       2.403  13.443  20.275  0.00  0.00    +0.000 C 
ATOM     16  O   UNL     1       2.173  12.982  18.949  0.00  0.00    +0.000 OA
ENDBRANCH  12  13
BRANCH   1  18
ATOM     17  C   UNL     1      -1.819  10.222  17.985  0.00  0.00    +0.000 C 
ATOM     18  O   UNL     1      -1.418  10.856  19.189  0.00  0.00    +0.000 OA
ENDBRANCH   1  18
BRANCH  12  19
ATOM     19  O   UNL     1      -1.230  13.506  18.901  0.00  0.00    +0.000 OA
ATOM     20  H   UNL     1      -2.050  12.986  19.011  0.00  0.00    +0.000 HD
ENDBRANCH  12  19
BRANCH   2  21
ATOM     21  O   UNL     1       1.262   9.378  19.517  0.00  0.00    +0.000 OA
BRANCH  21  22
ATOM     22  C   UNL     1       1.823   9.178  18.311  0.00  0.00    +0.000 C 
ATOM     23  O   UNL     1       1.947  10.032  17.445  0.00  0.00    +0.000 OA
ATOM     24  N   UNL     1       2.365   7.912  18.158  0.00  0.00    +0.000 N 
ATOM     25  C   UNL     1       2.349   6.876  19.088  0.00  0.00    +0.000 C 
ATOM     26  O   UNL     1       1.728   6.901  20.145  0.00  0.00    +0.000 OA
ATOM     27  H   UNL     1       2.925   7.832  17.325  0.00  0.00    +0.000 HD
BRANCH  25  28
ATOM     28  C   UNL     1       3.138   5.637  18.773  0.00  0.00    +0.000 A 
ATOM     29  C   UNL     1       2.577   4.746  17.839  0.00  0.00    +0.000 A 
ATOM     30  C   UNL     1       3.249   3.578  17.463  0.00  0.00    +0.000 A 
ATOM     31  C   UNL     1       4.492   3.289  18.019  0.00  0.00    +0.000 A 
ATOM     32  C   UNL     1       5.063   4.167  18.938  0.00  0.00    +0.000 A 
ATOM     33  C   UNL     1       4.395   5.340  19.317  0.00  0.00    +0.000 A 
ENDBRANCH  25  28
ENDBRANCH  21  22
ENDBRANCH   2  21
TORSDOF 6
ENDMDL
MODEL 3
REMARK VINA RESULT:      -7.0      1.811      3.479
REMARK  Name = 
REMARK  10 active torsions:
REMARK  status: ('A' for Active; 'I' for Inactive)
REMARK    1  A    between atoms: C_1  and  O_2
REMARK    2  A    between atoms: O_2  and  C_3
REMARK    3  A    between atoms: C_4  and  O_5
REMARK    4  A    between atoms: O_5  and  C_6
REMARK    5  A    between atoms: C_9  and  C_11
REMARK    6  A    between atoms: C_22  and  C_23
REMARK    7  A    between atoms: C_22  and  C_24
REMARK    8  A    between atoms: C_26  and  O_27
REMARK    9  A    between atoms: C_26  and  C_28
REMARK   10  A    between atoms: C_28  and  C_29
REMARK                            x       y       z     vdW  Elec       q    Type
REMARK                         _______ _______ _______ _____ _____    ______ ____
ROOT
ATOM      1  C   UNL     1       0.206  11.137  19.145  0.00  0.00    +0.000 C 
ATOM      2  C   UNL     1       0.933  10.212  20.127  0.00  0.00    +0.000 C 
ATOM      3  C   UNL     1       0.326  10.315  21.530  0.00  0.00    +0.000 C 
ATOM      4  O   UNL     1       0.176  11.670  22.011  0.00  0.00    +0.000 OA
ATOM      5  C   UNL     1      -0.511  12.601  21.138  0.00  0.00    +0.000 C 
ATOM      6  C   UNL     1      -2.034  12.340  21.171  0.00  0.00    +0.000 C 
ATOM      7  O   UNL     1      -2.693  13.498  21.710  0.00  0.00    +0.000 OA
ATOM      8  C   UNL     1      -1.712  14.520  21.750  0.00  0.00    +0.000 C 
ATOM      9  C   UNL     1      -1.913  15.497  20.588  0.00  0.00    +0.000 C 
ATOM     10  C   UNL     1      -1.847  15.313  23.048  0.00  0.00    +0.000 C 
ATOM     11  O   UNL     1      -0.425  13.928  21.708  0.00  0.00    +0.000 OA
ATOM     12  C   UNL     1       0.196  12.599  19.714  0.00  0.00    +0.000 C 
ENDROOT
BRANCH  12  13
ATOM     13  C   UNL     1       1.639  13.217  19.703  0.00  0.00    +0.000 C 
ATOM     14  C   UNL     1       2.504  12.893  18.514  0.00  0.00    +0.000 C 
ATOM     15  C   UNL     1       2.078  14.420  20.555  0.00  0.00    +0.000 C 
ATOM     16  O   UNL     1       2.380  13.081  20.932  0.00  0.00    +0.000 OA
ENDBRANCH  12  13
BRANCH   1  18
ATOM     17  C   UNL     1      -1.497  10.200  17.666  0.00  0.00    +0.000 C 
ATOM     18  O   UNL     1      -1.180  10.781  18.922  0.00  0.00    +0.000 OA
ENDBRANCH   1  18
BRANCH  12  19
ATOM     19  O   UNL     1      -0.567  13.376  18.759  0.00  0.00    +0.000 OA
ATOM     20  H   UNL     1      -0.589  14.289  19.106  0.00  0.00    +0.000 HD
ENDBRANCH  12  19
BRANCH   2  21
ATOM     21  O   UNL     1       1.183   8.909  19.541  0.00  0.00    +0.000 OA
BRANCH  21  22
ATOM     22  C   UNL     1       1.711   7.835  20.156  0.00  0.00    +0.000 C 
ATOM     23  O   UNL     1       1.402   7.443  21.272  0.00  0.00    +0.000 OA
ATOM     24  N   UNL     1       2.585   7.117  19.357  0.00  0.00    +0.000 N 
ATOM     25  C   UNL     1       2.967   7.418  18.052  0.00  0.00    +0.000 C 
ATOM     26  O   UNL     1       2.672   8.452  17.463  0.00  0.00    +0.000 OA
ATOM     27  H   UNL     1       2.840   6.232  19.763  0.00  0.00    +0.000 HD
BRANCH  25  28
ATOM     28  C   UNL     1       3.806   6.413  17.315  0.00  0.00    +0.000 A 
ATOM     29  C   UNL     1       3.539   5.054  17.567  0.00  0.00    +0.000 A 
ATOM     30  C   UNL     1       4.252   4.045  16.910  0.00  0.00    +0.000 A 
ATOM     31  C   UNL     1       5.240   4.387  15.991  0.00  0.00    +0.000 A 
ATOM     32  C   UNL     1       5.508   5.727  15.724  0.00  0.00    +0.000 A 
ATOM     33  C   UNL     1       4.796   6.742  16.379  0.00  0.00    +0.000 A 
ENDBRANCH  25  28
ENDBRANCH  21  22
ENDBRANCH   2  21
TORSDOF 6
ENDMDL
MODEL 4
REMARK VINA RESULT:      -7.0      1.789      3.328
REMARK  Name = 
REMARK  10 active torsions:
REMARK  status: ('A' for Active; 'I' for Inactive)
REMARK    1  A    between atoms: C_1  and  O_2
REMARK    2  A    between atoms: O_2  and  C_3
REMARK    3  A    between atoms: C_4  and  O_5
REMARK    4  A    between atoms: O_5  and  C_6
REMARK    5  A    between atoms: C_9  and  C_11
REMARK    6  A    between atoms: C_22  and  C_23
REMARK    7  A    between atoms: C_22  and  C_24
REMARK    8  A    between atoms: C_26  and  O_27
REMARK    9  A    between atoms: C_26  and  C_28
REMARK   10  A    between atoms: C_28  and  C_29
REMARK                            x       y       z     vdW  Elec       q    Type
REMARK                         _______ _______ _______ _____ _____    ______ ____
ROOT
ATOM      1  C   UNL     1      -0.175  11.473  19.319  0.00  0.00    +0.000 C 
ATOM      2  C   UNL     1       0.680  10.665  20.300  0.00  0.00    +0.000 C 
ATOM      3  C   UNL     1       0.156  10.811  21.734  0.00  0.00    +0.000 C 
ATOM      4  O   UNL     1      -0.065  12.178  22.145  0.00  0.00    +0.000 OA
ATOM      5  C   UNL     1      -0.875  13.001  21.269  0.00  0.00    +0.000 C 
ATOM      6  C   UNL     1      -2.369  12.634  21.420  0.00  0.00    +0.000 C 
ATOM      7  O   UNL     1      -3.078  13.773  21.935  0.00  0.00    +0.000 OA
ATOM      8  C   UNL     1      -2.177  14.863  21.851  0.00  0.00    +0.000 C 
ATOM      9  C   UNL     1      -2.525  15.750  20.651  0.00  0.00    +0.000 C 
ATOM     10  C   UNL     1      -2.291  15.723  23.108  0.00  0.00    +0.000 C 
ATOM     11  O   UNL     1      -0.854  14.364  21.756  0.00  0.00    +0.000 OA
ATOM     12  C   UNL     1      -0.261  12.963  19.803  0.00  0.00    +0.000 C 
ENDROOT
BRANCH  12  13
ATOM     13  C   UNL     1       1.127  13.682  19.660  0.00  0.00    +0.000 C 
ATOM     14  C   UNL     1       1.131  15.006  18.943  0.00  0.00    +0.000 C 
ATOM     15  C   UNL     1       2.362  13.373  20.523  0.00  0.00    +0.000 C 
ATOM     16  O   UNL     1       2.213  12.848  19.209  0.00  0.00    +0.000 OA
ENDBRANCH  12  13
BRANCH   1  18
ATOM     17  C   UNL     1      -1.883  10.294  18.030  0.00  0.00    +0.000 C 
ATOM     18  O   UNL     1      -1.542  11.005  19.210  0.00  0.00    +0.000 OA
ENDBRANCH   1  18
BRANCH  12  19
ATOM     19  O   UNL     1      -1.139  13.622  18.859  0.00  0.00    +0.000 OA
ATOM     20  H   UNL     1      -2.045  13.516  19.210  0.00  0.00    +0.000 HD
ENDBRANCH  12  19
BRANCH   2  21
ATOM     21  O   UNL     1       0.991   9.350  19.775  0.00  0.00    +0.000 OA
BRANCH  21  22
ATOM     22  C   UNL     1       1.426   8.284  20.470  0.00  0.00    +0.000 C 
ATOM     23  O   UNL     1       1.100   8.014  21.617  0.00  0.00    +0.000 OA
ATOM     24  N   UNL     1       2.216   7.424  19.725  0.00  0.00    +0.000 N 
ATOM     25  C   UNL     1       2.603   7.582  18.396  0.00  0.00    +0.000 C 
ATOM     26  O   UNL     1       2.396   8.589  17.728  0.00  0.00    +0.000 OA
ATOM     27  H   UNL     1       2.393   6.554  20.200  0.00  0.00    +0.000 HD
BRANCH  25  28
ATOM     28  C   UNL     1       3.333   6.446  17.737  0.00  0.00    +0.000 A 
ATOM     29  C   UNL     1       4.491   6.772  17.006  0.00  0.00    +0.000 A 
ATOM     30  C   UNL     1       5.250   5.779  16.378  0.00  0.00    +0.000 A 
ATOM     31  C   UNL     1       4.858   4.447  16.476  0.00  0.00    +0.000 A 
ATOM     32  C   UNL     1       3.719   4.109  17.203  0.00  0.00    +0.000 A 
ATOM     33  C   UNL     1       2.956   5.100  17.837  0.00  0.00    +0.000 A 
ENDBRANCH  25  28
ENDBRANCH  21  22
ENDBRANCH   2  21
TORSDOF 6
ENDMDL
MODEL 5
REMARK VINA RESULT:      -6.9      1.179      2.711
REMARK  Name = 
REMARK  10 active torsions:
REMARK  status: ('A' for Active; 'I' for Inactive)
REMARK    1  A    between atoms: C_1  and  O_2
REMARK    2  A    between atoms: O_2  and  C_3
REMARK    3  A    between atoms: C_4  and  O_5
REMARK    4  A    between atoms: O_5  and  C_6
REMARK    5  A    between atoms: C_9  and  C_11
REMARK    6  A    between atoms: C_22  and  C_23
REMARK    7  A    between atoms: C_22  and  C_24
REMARK    8  A    between atoms: C_26  and  O_27
REMARK    9  A    between atoms: C_26  and  C_28
REMARK   10  A    between atoms: C_28  and  C_29
REMARK                            x       y       z     vdW  Elec       q    Type
REMARK                         _______ _______ _______ _____ _____    ______ ____
ROOT
ATOM      1  C   UNL     1       0.112  11.308  19.049  0.00  0.00    +0.000 C 
ATOM      2  C   UNL     1       0.902  10.411  20.008  0.00  0.00    +0.000 C 
ATOM      3  C   UNL     1       0.418  10.591  21.452  0.00  0.00    +0.000 C 
ATOM      4  O   UNL     1       0.335  11.969  21.879  0.00  0.00    +0.000 OA
ATOM      5  C   UNL     1      -0.407  12.875  21.025  0.00  0.00    +0.000 C 
ATOM      6  C   UNL     1      -1.926  12.650  21.198  0.00  0.00    +0.000 C 
ATOM      7  O   UNL     1      -2.516  13.845  21.736  0.00  0.00    +0.000 OA
ATOM      8  C   UNL     1      -1.516  14.845  21.646  0.00  0.00    +0.000 C 
ATOM      9  C   UNL     1      -1.798  15.774  20.461  0.00  0.00    +0.000 C 
ATOM     10  C   UNL     1      -1.527  15.698  22.913  0.00  0.00    +0.000 C 
ATOM     11  O   UNL     1      -0.248  14.224  21.524  0.00  0.00    +0.000 OA
ATOM     12  C   UNL     1       0.177  12.794  19.548  0.00  0.00    +0.000 C 
ENDROOT
BRANCH  12  13
ATOM     13  C   UNL     1       1.624  13.379  19.388  0.00  0.00    +0.000 C 
ATOM     14  C   UNL     1       2.419  12.900  18.202  0.00  0.00    +0.000 C 
ATOM     15  C   UNL     1       2.125  14.665  20.067  0.00  0.00    +0.000 C 
ATOM     16  O   UNL     1       2.430  13.374  20.583  0.00  0.00    +0.000 OA
ENDBRANCH  12  13
BRANCH   1  18
ATOM     17  C   UNL     1      -1.728  10.343  17.763  0.00  0.00    +0.000 C 
ATOM     18  O   UNL     1      -1.295  10.973  18.959  0.00  0.00    +0.000 OA
ENDBRANCH   1  18
BRANCH  12  19
ATOM     19  O   UNL     1      -0.650  13.544  18.626  0.00  0.00    +0.000 OA
ATOM     20  H   UNL     1      -0.035  14.046  18.056  0.00  0.00    +0.000 HD
ENDBRANCH  12  19
BRANCH   2  21
ATOM     21  O   UNL     1       1.078   9.078  19.465  0.00  0.00    +0.000 OA
BRANCH  21  22
ATOM     22  C   UNL     1       1.844   8.728  18.417  0.00  0.00    +0.000 C 
ATOM     23  O   UNL     1       2.117   9.455  17.473  0.00  0.00    +0.000 OA
ATOM     24  N   UNL     1       2.408   7.469  18.542  0.00  0.00    +0.000 N 
ATOM     25  C   UNL     1       2.231   6.573  19.594  0.00  0.00    +0.000 C 
ATOM     26  O   UNL     1       1.434   6.729  20.512  0.00  0.00    +0.000 OA
ATOM     27  H   UNL     1       3.106   7.288  17.840  0.00  0.00    +0.000 HD
BRANCH  25  28
ATOM     28  C   UNL     1       3.067   5.324  19.601  0.00  0.00    +0.000 A 
ATOM     29  C   UNL     1       2.484   4.172  20.161  0.00  0.00    +0.000 A 
ATOM     30  C   UNL     1       3.175   2.956  20.190  0.00  0.00    +0.000 A 
ATOM     31  C   UNL     1       4.459   2.880  19.658  0.00  0.00    +0.000 A 
ATOM     32  C   UNL     1       5.045   4.011  19.093  0.00  0.00    +0.000 A 
ATOM     33  C   UNL     1       4.356   5.232  19.059  0.00  0.00    +0.000 A 
ENDBRANCH  25  28
ENDBRANCH  21  22
ENDBRANCH   2  21
TORSDOF 6
ENDMDL
MODEL 6
REMARK VINA RESULT:      -6.9      1.754      3.147
REMARK  Name = 
REMARK  10 active torsions:
REMARK  status: ('A' for Active; 'I' for Inactive)
REMARK    1  A    between atoms: C_1  and  O_2
REMARK    2  A    between atoms: O_2  and  C_3
REMARK    3  A    between atoms: C_4  and  O_5
REMARK    4  A    between atoms: O_5  and  C_6
REMARK    5  A    between atoms: C_9  and  C_11
REMARK    6  A    between atoms: C_22  and  C_23
REMARK    7  A    between atoms: C_22  and  C_24
REMARK    8  A    between atoms: C_26  and  O_27
REMARK    9  A    between atoms: C_26  and  C_28
REMARK   10  A    between atoms: C_28  and  C_29
REMARK                            x       y       z     vdW  Elec       q    Type
REMARK                         _______ _______ _______ _____ _____    ______ ____
ROOT
ATOM      1  C   UNL     1      -0.049  11.371  19.331  0.00  0.00    +0.000 C 
ATOM      2  C   UNL     1       1.024  10.544  20.047  0.00  0.00    +0.000 C 
ATOM      3  C   UNL     1       0.673  10.354  21.527  0.00  0.00    +0.000 C 
ATOM      4  O   UNL     1       0.328  11.578  22.214  0.00  0.00    +0.000 OA
ATOM      5  C   UNL     1      -0.689  12.408  21.599  0.00  0.00    +0.000 C 
ATOM      6  C   UNL     1      -2.089  11.796  21.827  0.00  0.00    +0.000 C 
ATOM      7  O   UNL     1      -2.871  12.703  22.621  0.00  0.00    +0.000 OA
ATOM      8  C   UNL     1      -2.139  13.916  22.657  0.00  0.00    +0.000 C 
ATOM      9  C   UNL     1      -2.752  14.936  21.692  0.00  0.00    +0.000 C 
ATOM     10  C   UNL     1      -2.203  14.515  24.061  0.00  0.00    +0.000 C 
ATOM     11  O   UNL     1      -0.785  13.651  22.335  0.00  0.00    +0.000 OA
ATOM     12  C   UNL     1      -0.267  12.722  20.099  0.00  0.00    +0.000 C 
ENDROOT
BRANCH  12  13
ATOM     13  C   UNL     1       0.984  13.659  19.957  0.00  0.00    +0.000 C 
ATOM     14  C   UNL     1       0.722  15.070  19.501  0.00  0.00    +0.000 C 
ATOM     15  C   UNL     1       2.346  13.401  20.622  0.00  0.00    +0.000 C 
ATOM     16  O   UNL     1       2.106  13.090  19.254  0.00  0.00    +0.000 OA
ENDBRANCH  12  13
BRANCH   1  18
ATOM     17  C   UNL     1      -1.758  10.232  18.009  0.00  0.00    +0.000 C 
ATOM     18  O   UNL     1      -1.345  10.725  19.274  0.00  0.00    +0.000 OA
ENDBRANCH   1  18
BRANCH  12  19
ATOM     19  O   UNL     1      -1.338  13.394  19.393  0.00  0.00    +0.000 OA
ATOM     20  H   UNL     1      -1.951  13.724  20.079  0.00  0.00    +0.000 HD
ENDBRANCH  12  19
BRANCH   2  21
ATOM     21  O   UNL     1       1.435   9.405  19.250  0.00  0.00    +0.000 OA
BRANCH  21  22
ATOM     22  C   UNL     1       1.973   9.433  18.017  0.00  0.00    +0.000 C 
ATOM     23  O   UNL     1       2.060  10.429  17.312  0.00  0.00    +0.000 OA
ATOM     24  N   UNL     1       2.538   8.228  17.634  0.00  0.00    +0.000 N 
ATOM     25  C   UNL     1       2.565   7.045  18.368  0.00  0.00    +0.000 C 
ATOM     26  O   UNL     1       1.968   6.869  19.424  0.00  0.00    +0.000 OA
ATOM     27  H   UNL     1       3.080   8.308  16.789  0.00  0.00    +0.000 HD
BRANCH  25  28
ATOM     28  C   UNL     1       3.372   5.899  17.825  0.00  0.00    +0.000 A 
ATOM     29  C   UNL     1       4.478   6.227  17.018  0.00  0.00    +0.000 A 
ATOM     30  C   UNL     1       5.304   5.230  16.488  0.00  0.00    +0.000 A 
ATOM     31  C   UNL     1       5.032   3.892  16.763  0.00  0.00    +0.000 A 
ATOM     32  C   UNL     1       3.946   3.554  17.567  0.00  0.00    +0.000 A 
ATOM     33  C   UNL     1       3.116   4.550  18.102  0.00  0.00    +0.000 A 
ENDBRANCH  25  28
ENDBRANCH  21  22
ENDBRANCH   2  21
TORSDOF 6
ENDMDL
MODEL 7
REMARK VINA RESULT:      -6.8      1.837      3.968
REMARK  Name = 
REMARK  10 active torsions:
REMARK  status: ('A' for Active; 'I' for Inactive)
REMARK    1  A    between atoms: C_1  and  O_2
REMARK    2  A    between atoms: O_2  and  C_3
REMARK    3  A    between atoms: C_4  and  O_5
REMARK    4  A    between atoms: O_5  and  C_6
REMARK    5  A    between atoms: C_9  and  C_11
REMARK    6  A    between atoms: C_22  and  C_23
REMARK    7  A    between atoms: C_22  and  C_24
REMARK    8  A    between atoms: C_26  and  O_27
REMARK    9  A    between atoms: C_26  and  C_28
REMARK   10  A    between atoms: C_28  and  C_29
REMARK                            x       y       z     vdW  Elec       q    Type
REMARK                         _______ _______ _______ _____ _____    ______ ____
ROOT
ATOM      1  C   UNL     1      -0.936  12.441  20.907  0.00  0.00    +0.000 C 
ATOM      2  C   UNL     1      -0.518  11.577  22.102  0.00  0.00    +0.000 C 
ATOM      3  C   UNL     1      -1.700  11.340  23.048  0.00  0.00    +0.000 C 
ATOM      4  O   UNL     1      -2.410  12.542  23.420  0.00  0.00    +0.000 OA
ATOM      5  C   UNL     1      -2.846  13.404  22.340  0.00  0.00    +0.000 C 
ATOM      6  C   UNL     1      -4.084  12.800  21.639  0.00  0.00    +0.000 C 
ATOM      7  O   UNL     1      -5.199  13.688  21.817  0.00  0.00    +0.000 OA
ATOM      8  C   UNL     1      -4.660  14.891  22.336  0.00  0.00    +0.000 C 
ATOM      9  C   UNL     1      -4.564  15.950  21.234  0.00  0.00    +0.000 C 
ATOM     10  C   UNL     1      -5.579  15.440  23.424  0.00  0.00    +0.000 C 
ATOM     11  O   UNL     1      -3.389  14.622  22.903  0.00  0.00    +0.000 OA
ATOM     12  C   UNL     1      -1.597  13.766  21.425  0.00  0.00    +0.000 C 
ENDROOT
BRANCH  12  13
ATOM     13  C   UNL     1      -0.534  14.694  22.113  0.00  0.00    +0.000 C 
ATOM     14  C   UNL     1       0.839  14.721  21.495  0.00  0.00    +0.000 C 
ATOM     15  C   UNL     1      -0.874  15.852  23.065  0.00  0.00    +0.000 C 
ATOM     16  O   UNL     1      -0.450  14.582  23.548  0.00  0.00    +0.000 OA
ENDBRANCH  12  13
BRANCH   1  18
ATOM     17  C   UNL     1      -1.465  11.390  18.766  0.00  0.00    +0.000 C 
ATOM     18  O   UNL     1      -1.915  11.812  20.044  0.00  0.00    +0.000 OA
ENDBRANCH   1  18
BRANCH  12  19
ATOM     19  O   UNL     1      -2.018  14.474  20.235  0.00  0.00    +0.000 OA
ATOM     20  H   UNL     1      -2.897  14.117  20.002  0.00  0.00    +0.000 HD
ENDBRANCH  12  19
BRANCH   2  21
ATOM     21  O   UNL     1       0.311  10.462  21.686  0.00  0.00    +0.000 OA
BRANCH  21  22
ATOM     22  C   UNL     1       0.870   9.532  22.480  0.00  0.00    +0.000 C 
ATOM     23  O   UNL     1       0.819   9.528  23.701  0.00  0.00    +0.000 OA
ATOM     24  N   UNL     1       1.439   8.480  21.780  0.00  0.00    +0.000 N 
ATOM     25  C   UNL     1       1.504   8.332  20.397  0.00  0.00    +0.000 C 
ATOM     26  O   UNL     1       1.171   9.194  19.590  0.00  0.00    +0.000 OA
ATOM     27  H   UNL     1       1.701   7.715  22.380  0.00  0.00    +0.000 HD
BRANCH  25  28
ATOM     28  C   UNL     1       2.026   7.033  19.852  0.00  0.00    +0.000 A 
ATOM     29  C   UNL     1       2.652   7.077  18.591  0.00  0.00    +0.000 A 
ATOM     30  C   UNL     1       3.191   5.923  18.013  0.00  0.00    +0.000 A 
ATOM     31  C   UNL     1       3.112   4.711  18.694  0.00  0.00    +0.000 A 
ATOM     32  C   UNL     1       2.504   4.654  19.946  0.00  0.00    +0.000 A 
ATOM     33  C   UNL     1       1.963   5.809  20.530  0.00  0.00    +0.000 A 
ENDBRANCH  25  28
ENDBRANCH  21  22
ENDBRANCH   2  21
TORSDOF 6
ENDMDL
MODEL 8
REMARK VINA RESULT:      -6.7      1.821      3.015
REMARK  Name = 
REMARK  10 active torsions:
REMARK  status: ('A' for Active; 'I' for Inactive)
REMARK    1  A    between atoms: C_1  and  O_2
REMARK    2  A    between atoms: O_2  and  C_3
REMARK    3  A    between atoms: C_4  and  O_5
REMARK    4  A    between atoms: O_5  and  C_6
REMARK    5  A    between atoms: C_9  and  C_11
REMARK    6  A    between atoms: C_22  and  C_23
REMARK    7  A    between atoms: C_22  and  C_24
REMARK    8  A    between atoms: C_26  and  O_27
REMARK    9  A    between atoms: C_26  and  C_28
REMARK   10  A    between atoms: C_28  and  C_29
REMARK                            x       y       z     vdW  Elec       q    Type
REMARK                         _______ _______ _______ _____ _____    ______ ____
ROOT
ATOM      1  C   UNL     1       0.879  11.325  20.733  0.00  0.00    +0.000 C 
ATOM      2  C   UNL     1       0.410  10.163  19.851  0.00  0.00    +0.000 C 
ATOM      3  C   UNL     1      -0.749  10.595  18.945  0.00  0.00    +0.000 C 
ATOM      4  O   UNL     1      -1.822  11.268  19.640  0.00  0.00    +0.000 OA
ATOM      5  C   UNL     1      -1.454  12.385  20.486  0.00  0.00    +0.000 C 
ATOM      6  C   UNL     1      -1.133  13.626  19.624  0.00  0.00    +0.000 C 
ATOM      7  O   UNL     1      -2.083  14.661  19.924  0.00  0.00    +0.000 OA
ATOM      8  C   UNL     1      -2.776  14.228  21.082  0.00  0.00    +0.000 C 
ATOM      9  C   UNL     1      -2.255  14.965  22.320  0.00  0.00    +0.000 C 
ATOM     10  C   UNL     1      -4.262  14.553  20.945  0.00  0.00    +0.000 C 
ATOM     11  O   UNL     1      -2.624  12.825  21.215  0.00  0.00    +0.000 OA
ATOM     12  C   UNL     1      -0.344  11.911  21.521  0.00  0.00    +0.000 C 
ENDROOT
BRANCH  12  13
ATOM     13  C   UNL     1      -0.855  10.896  22.603  0.00  0.00    +0.000 C 
ATOM     14  C   UNL     1      -1.991  11.356  23.478  0.00  0.00    +0.000 C 
ATOM     15  C   UNL     1      -0.594   9.381  22.569  0.00  0.00    +0.000 C 
ATOM     16  O   UNL     1       0.173  10.257  23.387  0.00  0.00    +0.000 OA
ENDBRANCH  12  13
BRANCH   1  18
ATOM     17  C   UNL     1       2.575  13.077  20.564  0.00  0.00    +0.000 C 
ATOM     18  O   UNL     1       1.448  12.432  19.990  0.00  0.00    +0.000 OA
ENDBRANCH   1  18
BRANCH  12  19
ATOM     19  O   UNL     1       0.183  13.037  22.263  0.00  0.00    +0.000 OA
ATOM     20  H   UNL     1      -0.114  13.839  21.789  0.00  0.00    +0.000 HD
ENDBRANCH  12  19
BRANCH   2  21
ATOM     21  O   UNL     1       1.533   9.435  19.292  0.00  0.00    +0.000 OA
BRANCH  21  22
ATOM     22  C   UNL     1       2.047   9.567  18.057  0.00  0.00    +0.000 C 
ATOM     23  O   UNL     1       2.078  10.609  17.417  0.00  0.00    +0.000 OA
ATOM     24  N   UNL     1       2.657   8.415  17.587  0.00  0.00    +0.000 N 
ATOM     25  C   UNL     1       2.748   7.189  18.241  0.00  0.00    +0.000 C 
ATOM     26  O   UNL     1       2.178   6.919  19.293  0.00  0.00    +0.000 OA
ATOM     27  H   UNL     1       3.181   8.574  16.742  0.00  0.00    +0.000 HD
BRANCH  25  28
ATOM     28  C   UNL     1       3.596   6.119  17.614  0.00  0.00    +0.000 A 
ATOM     29  C   UNL     1       3.213   4.785  17.850  0.00  0.00    +0.000 A 
ATOM     30  C   UNL     1       3.926   3.720  17.288  0.00  0.00    +0.000 A 
ATOM     31  C   UNL     1       5.029   3.981  16.480  0.00  0.00    +0.000 A 
ATOM     32  C   UNL     1       5.413   5.296  16.230  0.00  0.00    +0.000 A 
ATOM     33  C   UNL     1       4.701   6.367  16.790  0.00  0.00    +0.000 A 
ENDBRANCH  25  28
ENDBRANCH  21  22
ENDBRANCH   2  21
TORSDOF 6
ENDMDL
MODEL 9
REMARK VINA RESULT:      -6.7      1.004      1.440
REMARK  Name = 
REMARK  10 active torsions:
REMARK  status: ('A' for Active; 'I' for Inactive)
REMARK    1  A    between atoms: C_1  and  O_2
REMARK    2  A    between atoms: O_2  and  C_3
REMARK    3  A    between atoms: C_4  and  O_5
REMARK    4  A    between atoms: O_5  and  C_6
REMARK    5  A    between atoms: C_9  and  C_11
REMARK    6  A    between atoms: C_22  and  C_23
REMARK    7  A    between atoms: C_22  and  C_24
REMARK    8  A    between atoms: C_26  and  O_27
REMARK    9  A    between atoms: C_26  and  C_28
REMARK   10  A    between atoms: C_28  and  C_29
REMARK                            x       y       z     vdW  Elec       q    Type
REMARK                         _______ _______ _______ _____ _____    ______ ____
ROOT
ATOM      1  C   UNL     1       0.058  10.357  20.252  0.00  0.00    +0.000 C 
ATOM      2  C   UNL     1       1.029  10.118  19.091  0.00  0.00    +0.000 C 
ATOM      3  C   UNL     1       1.777  11.406  18.728  0.00  0.00    +0.000 C 
ATOM      4  O   UNL     1       0.919  12.555  18.542  0.00  0.00    +0.000 OA
ATOM      5  C   UNL     1      -0.020  12.848  19.606  0.00  0.00    +0.000 C 
ATOM      6  C   UNL     1       0.713  13.493  20.804  0.00  0.00    +0.000 C 
ATOM      7  O   UNL     1       0.213  14.827  20.992  0.00  0.00    +0.000 OA
ATOM      8  C   UNL     1      -0.939  14.929  20.173  0.00  0.00    +0.000 C 
ATOM      9  C   UNL     1      -2.208  14.813  21.023  0.00  0.00    +0.000 C 
ATOM     10  C   UNL     1      -0.967  16.295  19.489  0.00  0.00    +0.000 C 
ATOM     11  O   UNL     1      -0.892  13.921  19.178  0.00  0.00    +0.000 OA
ATOM     12  C   UNL     1      -0.894  11.553  19.901  0.00  0.00    +0.000 C 
ENDROOT
BRANCH  12  13
ATOM     13  C   UNL     1      -1.887  11.163  18.749  0.00  0.00    +0.000 C 
ATOM     14  C   UNL     1      -1.665   9.827  18.090  0.00  0.00    +0.000 C 
ATOM     15  C   UNL     1      -3.266  11.806  18.532  0.00  0.00    +0.000 C 
ATOM     16  O   UNL     1      -2.129  12.188  17.766  0.00  0.00    +0.000 OA
ENDBRANCH  12  13
BRANCH   1  18
ATOM     17  C   UNL     1       0.695   9.735  22.527  0.00  0.00    +0.000 C 
ATOM     18  O   UNL     1       0.709  10.711  21.497  0.00  0.00    +0.000 OA
ENDBRANCH   1  18
BRANCH  12  19
ATOM     19  O   UNL     1      -1.718  11.744  21.076  0.00  0.00    +0.000 OA
ATOM     20  H   UNL     1      -1.164  11.494  21.841  0.00  0.00    +0.000 HD
ENDBRANCH  12  19
BRANCH   2  21
ATOM     21  O   UNL     1       1.763   8.879  19.259  0.00  0.00    +0.000 OA
BRANCH  21  22
ATOM     22  C   UNL     1       2.264   8.098  18.286  0.00  0.00    +0.000 C 
ATOM     23  O   UNL     1       2.605   8.489  17.178  0.00  0.00    +0.000 OA
ATOM     24  N   UNL     1       2.472   6.787  18.682  0.00  0.00    +0.000 N 
ATOM     25  C   UNL     1       2.190   6.235  19.929  0.00  0.00    +0.000 C 
ATOM     26  O   UNL     1       1.588   6.815  20.826  0.00  0.00    +0.000 OA
ATOM     27  H   UNL     1       2.999   6.259  18.006  0.00  0.00    +0.000 HD
BRANCH  25  28
ATOM     28  C   UNL     1       2.644   4.827  20.193  0.00  0.00    +0.000 A 
ATOM     29  C   UNL     1       3.708   4.344  19.408  0.00  0.00    +0.000 A 
ATOM     30  C   UNL     1       4.216   3.054  19.597  0.00  0.00    +0.000 A 
ATOM     31  C   UNL     1       3.665   2.234  20.579  0.00  0.00    +0.000 A 
ATOM     32  C   UNL     1       2.618   2.703  21.369  0.00  0.00    +0.000 A 
ATOM     33  C   UNL     1       2.107   3.995  21.184  0.00  0.00    +0.000 A 
ENDBRANCH  25  28
ENDBRANCH  21  22
ENDBRANCH   2  21
TORSDOF 6
ENDMDL
