MODEL 1
REMARK VINA RESULT:      -7.3      0.000      0.000
REMARK  Name = 
REMARK  11 active torsions:
REMARK  status: ('A' for Active; 'I' for Inactive)
REMARK    1  A    between atoms: C_1  and  C_2
REMARK    2  A    between atoms: C_2  and  O_3
REMARK    3  A    between atoms: O_3  and  C_4
REMARK    4  A    between atoms: C_4  and  C_6
REMARK    5  A    between atoms: C_11  and  N_12
REMARK    6  A    between atoms: C_20  and  C_22
REMARK    7  A    between atoms: C_22  and  N_23
REMARK    8  A    between atoms: C_22  and  C_24
REMARK    9  A    between atoms: C_24  and  C_25
REMARK   10  A    between atoms: C_24  and  C_26
REMARK   11  A    between atoms: C_26  and  C_27
REMARK                            x       y       z     vdW  Elec       q    Type
REMARK                         _______ _______ _______ _____ _____    ______ ____
ROOT
ATOM      1  N   UNL     1       4.263   6.428  17.540  0.00  0.00    +0.000 N 
ATOM      2  C   UNL     1       3.340   5.754  18.291  0.00  0.00    +0.000 C 
ATOM      3  O   UNL     1       3.377   4.532  18.305  0.00  0.00    +0.000 OA
ATOM      4  N   UNL     1       2.449   6.381  19.147  0.00  0.00    +0.000 N 
ATOM      5  C   UNL     1       1.767   5.621  20.166  0.00  0.00    +0.000 C 
ATOM      6  C   UNL     1       1.492   6.651  21.261  0.00  0.00    +0.000 C 
ATOM      7  C   UNL     1       1.523   7.999  20.551  0.00  0.00    +0.000 C 
ATOM      8  N   UNL     1       2.158   7.734  19.276  0.00  0.00    +0.000 N 
ATOM      9  C   UNL     1       2.175   8.686  18.278  0.00  0.00    +0.000 C 
ATOM     10  O   UNL     1       2.408   8.371  17.120  0.00  0.00    +0.000 OA
ATOM     11  H   UNL     1       4.358   7.428  17.674  0.00  0.00    +0.000 HD
ENDROOT
BRANCH   1  17
ATOM     12  C   UNL     1       6.608   5.615  17.077  0.00  0.00    +0.000 A 
ATOM     13  C   UNL     1       7.493   4.951  16.194  0.00  0.00    +0.000 A 
ATOM     14  C   UNL     1       7.066   4.470  14.960  0.00  0.00    +0.000 A 
ATOM     15  C   UNL     1       5.748   4.638  14.569  0.00  0.00    +0.000 A 
ATOM     16  C   UNL     1       4.842   5.279  15.417  0.00  0.00    +0.000 A 
ATOM     17  C   UNL     1       5.232   5.773  16.686  0.00  0.00    +0.000 A 
BRANCH  12  18
ATOM     18  C   UNL     1       7.188   6.071  18.381  0.00  0.00    +0.000 C 
ATOM     19  O   UNL     1       6.922   5.509  19.431  0.00  0.00    +0.000 OA
BRANCH  18  20
ATOM     20  O   UNL     1       8.049   7.121  18.387  0.00  0.00    +0.000 OA
BRANCH  20  22
ATOM     21  C   UNL     1       8.611   9.436  18.431  0.00  0.00    +0.000 C 
ATOM     22  C   UNL     1       7.851   8.320  17.730  0.00  0.00    +0.000 C 
ENDBRANCH  20  22
ENDBRANCH  18  20
ENDBRANCH  12  18
ENDBRANCH   1  17
BRANCH   9  23
ATOM     23  C   UNL     1       1.861  10.165  18.563  0.00  0.00    +0.000 C 
BRANCH  23  24
ATOM     24  N   UNL     1       2.346  10.969  17.439  0.00  0.00    +0.000 NA
ATOM     25  H   UNL     1       2.205  10.458  16.538  0.00  0.00    +0.000 HD
ATOM     26  H   UNL     1       3.366  11.169  17.565  0.00  0.00    +0.000 HD
ENDBRANCH  23  24
BRANCH  23  27
ATOM     27  C   UNL     1       0.355  10.482  18.831  0.00  0.00    +0.000 C 
ATOM     28  C   UNL     1       0.087  11.999  18.793  0.00  0.00    +0.000 C 
BRANCH  27  29
ATOM     29  C   UNL     1      -0.506   9.742  17.763  0.00  0.00    +0.000 C 
ATOM     30  C   UNL     1      -1.959  10.206  17.660  0.00  0.00    +0.000 C 
ENDBRANCH  27  29
ENDBRANCH  23  27
ENDBRANCH   9  23
TORSDOF 8
ENDMDL
MODEL 2
REMARK VINA RESULT:      -7.0      2.020      7.262
REMARK  Name = 
REMARK  11 active torsions:
REMARK  status: ('A' for Active; 'I' for Inactive)
REMARK    1  A    between atoms: C_1  and  C_2
REMARK    2  A    between atoms: C_2  and  O_3
REMARK    3  A    between atoms: O_3  and  C_4
REMARK    4  A    between atoms: C_4  and  C_6
REMARK    5  A    between atoms: C_11  and  N_12
REMARK    6  A    between atoms: C_20  and  C_22
REMARK    7  A    between atoms: C_22  and  N_23
REMARK    8  A    between atoms: C_22  and  C_24
REMARK    9  A    between atoms: C_24  and  C_25
REMARK   10  A    between atoms: C_24  and  C_26
REMARK   11  A    between atoms: C_26  and  C_27
REMARK                            x       y       z     vdW  Elec       q    Type
REMARK                         _______ _______ _______ _____ _____    ______ ____
ROOT
ATOM      1  N   UNL     1       2.188   7.123  19.366  0.00  0.00    +0.000 N 
ATOM      2  C   UNL     1       2.139   5.803  19.721  0.00  0.00    +0.000 C 
ATOM      3  O   UNL     1       1.525   5.492  20.732  0.00  0.00    +0.000 OA
ATOM      4  N   UNL     1       2.632   4.780  18.927  0.00  0.00    +0.000 N 
ATOM      5  C   UNL     1       2.232   3.416  19.172  0.00  0.00    +0.000 C 
ATOM      6  C   UNL     1       2.354   2.752  17.801  0.00  0.00    +0.000 C 
ATOM      7  C   UNL     1       3.337   3.622  17.028  0.00  0.00    +0.000 C 
ATOM      8  N   UNL     1       3.416   4.856  17.781  0.00  0.00    +0.000 N 
ATOM      9  C   UNL     1       4.370   5.809  17.489  0.00  0.00    +0.000 C 
ATOM     10  O   UNL     1       4.651   6.679  18.301  0.00  0.00    +0.000 OA
ATOM     11  H   UNL     1       2.526   7.361  18.440  0.00  0.00    +0.000 HD
ENDROOT
BRANCH   1  17
ATOM     12  C   UNL     1       1.003   9.342  19.573  0.00  0.00    +0.000 A 
ATOM     13  C   UNL     1       0.463  10.337  20.423  0.00  0.00    +0.000 A 
ATOM     14  C   UNL     1       0.539  10.231  21.808  0.00  0.00    +0.000 A 
ATOM     15  C   UNL     1       1.156   9.133  22.386  0.00  0.00    +0.000 A 
ATOM     16  C   UNL     1       1.692   8.126  21.580  0.00  0.00    +0.000 A 
ATOM     17  C   UNL     1       1.626   8.190  20.168  0.00  0.00    +0.000 A 
BRANCH  12  18
ATOM     18  C   UNL     1       0.843   9.568  18.101  0.00  0.00    +0.000 C 
ATOM     19  O   UNL     1       1.624   9.093  17.292  0.00  0.00    +0.000 OA
BRANCH  18  20
ATOM     20  O   UNL     1      -0.213  10.298  17.657  0.00  0.00    +0.000 OA
BRANCH  20  22
ATOM     21  C   UNL     1      -2.571  10.375  17.984  0.00  0.00    +0.000 C 
ATOM     22  C   UNL     1      -1.409   9.778  17.204  0.00  0.00    +0.000 C 
ENDBRANCH  20  22
ENDBRANCH  18  20
ENDBRANCH  12  18
ENDBRANCH   1  17
BRANCH   9  23
ATOM     23  C   UNL     1       5.149   5.796  16.163  0.00  0.00    +0.000 C 
BRANCH  23  24
ATOM     24  N   UNL     1       4.990   7.101  15.517  0.00  0.00    +0.000 NA
ATOM     25  H   UNL     1       5.742   7.756  15.831  0.00  0.00    +0.000 HD
ATOM     26  H   UNL     1       4.058   7.504  15.765  0.00  0.00    +0.000 HD
ENDBRANCH  23  24
BRANCH  23  27
ATOM     27  C   UNL     1       6.667   5.448  16.291  0.00  0.00    +0.000 C 
ATOM     28  C   UNL     1       6.930   4.535  17.505  0.00  0.00    +0.000 C 
BRANCH  27  29
ATOM     29  C   UNL     1       7.133   4.761  14.972  0.00  0.00    +0.000 C 
ATOM     30  C   UNL     1       6.085   3.882  14.289  0.00  0.00    +0.000 C 
ENDBRANCH  27  29
ENDBRANCH  23  27
ENDBRANCH   9  23
TORSDOF 8
ENDMDL
MODEL 3
REMARK VINA RESULT:      -7.0      2.033      7.286
REMARK  Name = 
REMARK  11 active torsions:
REMARK  status: ('A' for Active; 'I' for Inactive)
REMARK    1  A    between atoms: C_1  and  C_2
REMARK    2  A    between atoms: C_2  and  O_3
REMARK    3  A    between atoms: O_3  and  C_4
REMARK    4  A    between atoms: C_4  and  C_6
REMARK    5  A    between atoms: C_11  and  N_12
REMARK    6  A    between atoms: C_20  and  C_22
REMARK    7  A    between atoms: C_22  and  N_23
REMARK    8  A    between atoms: C_22  and  C_24
REMARK    9  A    between atoms: C_24  and  C_25
REMARK   10  A    between atoms: C_24  and  C_26
REMARK   11  A    between atoms: C_26  and  C_27
REMARK                            x       y       z     vdW  Elec       q    Type
REMARK                         _______ _______ _______ _____ _____    ______ ____
ROOT
ATOM      1  N   UNL     1       2.091   7.003  19.362  0.00  0.00    +0.000 N 
ATOM      2  C   UNL     1       2.033   5.706  19.790  0.00  0.00    +0.000 C 
ATOM      3  O   UNL     1       1.476   5.464  20.851  0.00  0.00    +0.000 OA
ATOM      4  N   UNL     1       2.450   4.630  19.022  0.00  0.00    +0.000 N 
ATOM      5  C   UNL     1       2.034   3.292  19.363  0.00  0.00    +0.000 C 
ATOM      6  C   UNL     1       2.054   2.555  18.024  0.00  0.00    +0.000 C 
ATOM      7  C   UNL     1       3.008   3.357  17.147  0.00  0.00    +0.000 C 
ATOM      8  N   UNL     1       3.162   4.626  17.828  0.00  0.00    +0.000 N 
ATOM      9  C   UNL     1       4.119   5.536  17.428  0.00  0.00    +0.000 C 
ATOM     10  O   UNL     1       4.471   6.438  18.174  0.00  0.00    +0.000 OA
ATOM     11  H   UNL     1       2.376   7.185  18.406  0.00  0.00    +0.000 HD
ENDROOT
BRANCH   1  17
ATOM     12  C   UNL     1       1.123   9.330  19.518  0.00  0.00    +0.000 A 
ATOM     13  C   UNL     1       0.651  10.377  20.344  0.00  0.00    +0.000 A 
ATOM     14  C   UNL     1       0.661  10.273  21.732  0.00  0.00    +0.000 A 
ATOM     15  C   UNL     1       1.145   9.123  22.335  0.00  0.00    +0.000 A 
ATOM     16  C   UNL     1       1.610   8.063  21.553  0.00  0.00    +0.000 A 
ATOM     17  C   UNL     1       1.605   8.125  20.139  0.00  0.00    +0.000 A 
BRANCH  12  18
ATOM     18  C   UNL     1       1.044   9.561  18.040  0.00  0.00    +0.000 C 
ATOM     19  O   UNL     1       1.907   9.152  17.281  0.00  0.00    +0.000 OA
BRANCH  18  20
ATOM     20  O   UNL     1      -0.029  10.223  17.533  0.00  0.00    +0.000 OA
BRANCH  20  22
ATOM     21  C   UNL     1      -2.285  10.962  17.720  0.00  0.00    +0.000 C 
ATOM     22  C   UNL     1      -1.337   9.781  17.586  0.00  0.00    +0.000 C 
ENDBRANCH  20  22
ENDBRANCH  18  20
ENDBRANCH  12  18
ENDBRANCH   1  17
BRANCH   9  23
ATOM     23  C   UNL     1       4.813   5.434  16.059  0.00  0.00    +0.000 C 
BRANCH  23  24
ATOM     24  N   UNL     1       5.305   6.762  15.685  0.00  0.00    +0.000 NA
ATOM     25  H   UNL     1       6.334   6.733  15.507  0.00  0.00    +0.000 HD
ATOM     26  H   UNL     1       5.109   7.439  16.459  0.00  0.00    +0.000 HD
ENDBRANCH  23  24
BRANCH  23  27
ATOM     27  C   UNL     1       5.979   4.396  15.985  0.00  0.00    +0.000 C 
ATOM     28  C   UNL     1       6.180   3.884  14.546  0.00  0.00    +0.000 C 
BRANCH  27  29
ATOM     29  C   UNL     1       7.280   5.071  16.518  0.00  0.00    +0.000 C 
ATOM     30  C   UNL     1       7.694   4.664  17.932  0.00  0.00    +0.000 C 
ENDBRANCH  27  29
ENDBRANCH  23  27
ENDBRANCH   9  23
TORSDOF 8
ENDMDL
MODEL 4
REMARK VINA RESULT:      -6.8      1.831      7.211
REMARK  Name = 
REMARK  11 active torsions:
REMARK  status: ('A' for Active; 'I' for Inactive)
REMARK    1  A    between atoms: C_1  and  C_2
REMARK    2  A    between atoms: C_2  and  O_3
REMARK    3  A    between atoms: O_3  and  C_4
REMARK    4  A    between atoms: C_4  and  C_6
REMARK    5  A    between atoms: C_11  and  N_12
REMARK    6  A    between atoms: C_20  and  C_22
REMARK    7  A    between atoms: C_22  and  N_23
REMARK    8  A    between atoms: C_22  and  C_24
REMARK    9  A    between atoms: C_24  and  C_25
REMARK   10  A    between atoms: C_24  and  C_26
REMARK   11  A    between atoms: C_26  and  C_27
REMARK                            x       y       z     vdW  Elec       q    Type
REMARK                         _______ _______ _______ _____ _____    ______ ____
ROOT
ATOM      1  N   UNL     1       2.263   7.132  19.417  0.00  0.00    +0.000 N 
ATOM      2  C   UNL     1       2.118   5.803  19.706  0.00  0.00    +0.000 C 
ATOM      3  O   UNL     1       1.365   5.481  20.614  0.00  0.00    +0.000 OA
ATOM      4  N   UNL     1       2.671   4.791  18.937  0.00  0.00    +0.000 N 
ATOM      5  C   UNL     1       2.191   3.438  19.069  0.00  0.00    +0.000 C 
ATOM      6  C   UNL     1       2.466   2.822  17.697  0.00  0.00    +0.000 C 
ATOM      7  C   UNL     1       3.575   3.677  17.097  0.00  0.00    +0.000 C 
ATOM      8  N   UNL     1       3.600   4.877  17.907  0.00  0.00    +0.000 N 
ATOM      9  C   UNL     1       4.620   5.798  17.783  0.00  0.00    +0.000 C 
ATOM     10  O   UNL     1       4.825   6.623  18.662  0.00  0.00    +0.000 OA
ATOM     11  H   UNL     1       2.728   7.391  18.555  0.00  0.00    +0.000 HD
ENDROOT
BRANCH   1  17
ATOM     12  C   UNL     1       1.025   9.328  19.555  0.00  0.00    +0.000 A 
ATOM     13  C   UNL     1       0.425  10.315  20.373  0.00  0.00    +0.000 A 
ATOM     14  C   UNL     1       0.436  10.217  21.761  0.00  0.00    +0.000 A 
ATOM     15  C   UNL     1       1.047   9.135  22.374  0.00  0.00    +0.000 A 
ATOM     16  C   UNL     1       1.641   8.135  21.600  0.00  0.00    +0.000 A 
ATOM     17  C   UNL     1       1.641   8.191  20.185  0.00  0.00    +0.000 A 
BRANCH  12  18
ATOM     18  C   UNL     1       0.931   9.544  18.076  0.00  0.00    +0.000 C 
ATOM     19  O   UNL     1       1.928   9.643  17.379  0.00  0.00    +0.000 OA
BRANCH  18  20
ATOM     20  O   UNL     1      -0.295   9.605  17.495  0.00  0.00    +0.000 OA
BRANCH  20  22
ATOM     21  C   UNL     1      -2.665   9.805  17.624  0.00  0.00    +0.000 C 
ATOM     22  C   UNL     1      -1.314  10.459  17.869  0.00  0.00    +0.000 C 
ENDBRANCH  20  22
ENDBRANCH  18  20
ENDBRANCH  12  18
ENDBRANCH   1  17
BRANCH   9  23
ATOM     23  C   UNL     1       5.566   5.802  16.569  0.00  0.00    +0.000 C 
BRANCH  23  24
ATOM     24  N   UNL     1       5.153   6.875  15.661  0.00  0.00    +0.000 NA
ATOM     25  H   UNL     1       4.894   6.482  14.728  0.00  0.00    +0.000 HD
ATOM     26  H   UNL     1       5.940   7.555  15.542  0.00  0.00    +0.000 HD
ENDBRANCH  23  24
BRANCH  23  27
ATOM     27  C   UNL     1       7.082   5.951  16.913  0.00  0.00    +0.000 C 
ATOM     28  C   UNL     1       7.423   7.397  17.321  0.00  0.00    +0.000 C 
BRANCH  27  29
ATOM     29  C   UNL     1       7.431   4.956  18.062  0.00  0.00    +0.000 C 
ATOM     30  C   UNL     1       8.003   5.595  19.327  0.00  0.00    +0.000 C 
ENDBRANCH  27  29
ENDBRANCH  23  27
ENDBRANCH   9  23
TORSDOF 8
ENDMDL
MODEL 5
REMARK VINA RESULT:      -6.6      1.972      6.809
REMARK  Name = 
REMARK  11 active torsions:
REMARK  status: ('A' for Active; 'I' for Inactive)
REMARK    1  A    between atoms: C_1  and  C_2
REMARK    2  A    between atoms: C_2  and  O_3
REMARK    3  A    between atoms: O_3  and  C_4
REMARK    4  A    between atoms: C_4  and  C_6
REMARK    5  A    between atoms: C_11  and  N_12
REMARK    6  A    between atoms: C_20  and  C_22
REMARK    7  A    between atoms: C_22  and  N_23
REMARK    8  A    between atoms: C_22  and  C_24
REMARK    9  A    between atoms: C_24  and  C_25
REMARK   10  A    between atoms: C_24  and  C_26
REMARK   11  A    between atoms: C_26  and  C_27
REMARK                            x       y       z     vdW  Elec       q    Type
REMARK                         _______ _______ _______ _____ _____    ______ ____
ROOT
ATOM      1  N   UNL     1       2.230   7.015  19.349  0.00  0.00    +0.000 N 
ATOM      2  C   UNL     1       2.171   5.690  19.680  0.00  0.00    +0.000 C 
ATOM      3  O   UNL     1       1.440   5.348  20.599  0.00  0.00    +0.000 OA
ATOM      4  N   UNL     1       2.790   4.692  18.944  0.00  0.00    +0.000 N 
ATOM      5  C   UNL     1       2.400   3.314  19.120  0.00  0.00    +0.000 C 
ATOM      6  C   UNL     1       2.715   2.674  17.769  0.00  0.00    +0.000 C 
ATOM      7  C   UNL     1       3.767   3.580  17.140  0.00  0.00    +0.000 C 
ATOM      8  N   UNL     1       3.713   4.805  17.911  0.00  0.00    +0.000 N 
ATOM      9  C   UNL     1       4.671   5.786  17.756  0.00  0.00    +0.000 C 
ATOM     10  O   UNL     1       4.821   6.650  18.608  0.00  0.00    +0.000 OA
ATOM     11  H   UNL     1       2.678   7.276  18.478  0.00  0.00    +0.000 HD
ENDROOT
BRANCH   1  17
ATOM     12  C   UNL     1       1.319   9.363  19.526  0.00  0.00    +0.000 A 
ATOM     13  C   UNL     1       0.624  10.323  20.300  0.00  0.00    +0.000 A 
ATOM     14  C   UNL     1       0.170  10.034  21.583  0.00  0.00    +0.000 A 
ATOM     15  C   UNL     1       0.398   8.783  22.133  0.00  0.00    +0.000 A 
ATOM     16  C   UNL     1       1.072   7.806  21.396  0.00  0.00    +0.000 A 
ATOM     17  C   UNL     1       1.540   8.055  20.084  0.00  0.00    +0.000 A 
BRANCH  12  18
ATOM     18  C   UNL     1       1.742   9.794  18.155  0.00  0.00    +0.000 C 
ATOM     19  O   UNL     1       2.164   8.996  17.334  0.00  0.00    +0.000 OA
BRANCH  18  20
ATOM     20  O   UNL     1       1.626  11.103  17.811  0.00  0.00    +0.000 OA
BRANCH  20  22
ATOM     21  C   UNL     1       2.007  13.402  18.303  0.00  0.00    +0.000 C 
ATOM     22  C   UNL     1       2.618  12.055  17.949  0.00  0.00    +0.000 C 
ENDBRANCH  20  22
ENDBRANCH  18  20
ENDBRANCH  12  18
ENDBRANCH   1  17
BRANCH   9  23
ATOM     23  C   UNL     1       5.615   5.812  16.542  0.00  0.00    +0.000 C 
BRANCH  23  24
ATOM     24  N   UNL     1       5.190   6.889  15.645  0.00  0.00    +0.000 NA
ATOM     25  H   UNL     1       5.109   6.535  14.664  0.00  0.00    +0.000 HD
ATOM     26  H   UNL     1       5.890   7.666  15.672  0.00  0.00    +0.000 HD
ENDBRANCH  23  24
BRANCH  23  27
ATOM     27  C   UNL     1       7.130   5.976  16.887  0.00  0.00    +0.000 C 
ATOM     28  C   UNL     1       7.453   7.421  17.315  0.00  0.00    +0.000 C 
BRANCH  27  29
ATOM     29  C   UNL     1       7.494   4.969  18.020  0.00  0.00    +0.000 C 
ATOM     30  C   UNL     1       8.024   5.600  19.308  0.00  0.00    +0.000 C 
ENDBRANCH  27  29
ENDBRANCH  23  27
ENDBRANCH   9  23
TORSDOF 8
ENDMDL
MODEL 6
REMARK VINA RESULT:      -6.6      2.078      7.256
REMARK  Name = 
REMARK  11 active torsions:
REMARK  status: ('A' for Active; 'I' for Inactive)
REMARK    1  A    between atoms: C_1  and  C_2
REMARK    2  A    between atoms: C_2  and  O_3
REMARK    3  A    between atoms: O_3  and  C_4
REMARK    4  A    between atoms: C_4  and  C_6
REMARK    5  A    between atoms: C_11  and  N_12
REMARK    6  A    between atoms: C_20  and  C_22
REMARK    7  A    between atoms: C_22  and  N_23
REMARK    8  A    between atoms: C_22  and  C_24
REMARK    9  A    between atoms: C_24  and  C_25
REMARK   10  A    between atoms: C_24  and  C_26
REMARK   11  A    between atoms: C_26  and  C_27
REMARK                            x       y       z     vdW  Elec       q    Type
REMARK                         _______ _______ _______ _____ _____    ______ ____
ROOT
ATOM      1  N   UNL     1       2.272   6.985  19.663  0.00  0.00    +0.000 N 
ATOM      2  C   UNL     1       1.882   5.687  19.849  0.00  0.00    +0.000 C 
ATOM      3  O   UNL     1       0.914   5.464  20.562  0.00  0.00    +0.000 OA
ATOM      4  N   UNL     1       2.437   4.618  19.164  0.00  0.00    +0.000 N 
ATOM      5  C   UNL     1       1.753   3.349  19.125  0.00  0.00    +0.000 C 
ATOM      6  C   UNL     1       2.225   2.724  17.812  0.00  0.00    +0.000 C 
ATOM      7  C   UNL     1       3.546   3.415  17.500  0.00  0.00    +0.000 C 
ATOM      8  N   UNL     1       3.568   4.583  18.356  0.00  0.00    +0.000 N 
ATOM      9  C   UNL     1       4.711   5.343  18.494  0.00  0.00    +0.000 C 
ATOM     10  O   UNL     1       4.838   6.112  19.436  0.00  0.00    +0.000 OA
ATOM     11  H   UNL     1       2.944   7.187  18.931  0.00  0.00    +0.000 HD
ENDROOT
BRANCH   1  17
ATOM     12  C   UNL     1       1.086   9.212  19.609  0.00  0.00    +0.000 A 
ATOM     13  C   UNL     1       0.489  10.269  20.337  0.00  0.00    +0.000 A 
ATOM     14  C   UNL     1       0.462  10.271  21.728  0.00  0.00    +0.000 A 
ATOM     15  C   UNL     1       1.030   9.223  22.434  0.00  0.00    +0.000 A 
ATOM     16  C   UNL     1       1.619   8.157  21.751  0.00  0.00    +0.000 A 
ATOM     17  C   UNL     1       1.658   8.110  20.336  0.00  0.00    +0.000 A 
BRANCH  12  18
ATOM     18  C   UNL     1       1.036   9.322  18.116  0.00  0.00    +0.000 C 
ATOM     19  O   UNL     1       2.053   9.376  17.444  0.00  0.00    +0.000 OA
BRANCH  18  20
ATOM     20  O   UNL     1      -0.172   9.338  17.496  0.00  0.00    +0.000 OA
BRANCH  20  22
ATOM     21  C   UNL     1      -2.502   9.829  17.559  0.00  0.00    +0.000 C 
ATOM     22  C   UNL     1      -1.083  10.375  17.548  0.00  0.00    +0.000 C 
ENDBRANCH  20  22
ENDBRANCH  18  20
ENDBRANCH  12  18
ENDBRANCH   1  17
BRANCH   9  23
ATOM     23  C   UNL     1       5.885   5.228  17.506  0.00  0.00    +0.000 C 
BRANCH  23  24
ATOM     24  N   UNL     1       6.649   4.021  17.830  0.00  0.00    +0.000 NA
ATOM     25  H   UNL     1       6.526   3.301  17.081  0.00  0.00    +0.000 HD
ATOM     26  H   UNL     1       6.316   3.629  18.741  0.00  0.00    +0.000 HD
ENDBRANCH  23  24
BRANCH  23  27
ATOM     27  C   UNL     1       5.481   5.213  15.997  0.00  0.00    +0.000 C 
ATOM     28  C   UNL     1       5.127   6.627  15.500  0.00  0.00    +0.000 C 
BRANCH  27  29
ATOM     29  C   UNL     1       6.662   4.616  15.173  0.00  0.00    +0.000 C 
ATOM     30  C   UNL     1       6.259   3.888  13.890  0.00  0.00    +0.000 C 
ENDBRANCH  27  29
ENDBRANCH  23  27
ENDBRANCH   9  23
TORSDOF 8
ENDMDL
MODEL 7
REMARK VINA RESULT:      -6.5      2.176      6.834
REMARK  Name = 
REMARK  11 active torsions:
REMARK  status: ('A' for Active; 'I' for Inactive)
REMARK    1  A    between atoms: C_1  and  C_2
REMARK    2  A    between atoms: C_2  and  O_3
REMARK    3  A    between atoms: O_3  and  C_4
REMARK    4  A    between atoms: C_4  and  C_6
REMARK    5  A    between atoms: C_11  and  N_12
REMARK    6  A    between atoms: C_20  and  C_22
REMARK    7  A    between atoms: C_22  and  N_23
REMARK    8  A    between atoms: C_22  and  C_24
REMARK    9  A    between atoms: C_24  and  C_25
REMARK   10  A    between atoms: C_24  and  C_26
REMARK   11  A    between atoms: C_26  and  C_27
REMARK                            x       y       z     vdW  Elec       q    Type
REMARK                         _______ _______ _______ _____ _____    ______ ____
ROOT
ATOM      1  N   UNL     1       2.231   7.078  19.276  0.00  0.00    +0.000 N 
ATOM      2  C   UNL     1       2.289   5.781  19.706  0.00  0.00    +0.000 C 
ATOM      3  O   UNL     1       1.726   5.485  20.751  0.00  0.00    +0.000 OA
ATOM      4  N   UNL     1       2.835   4.752  18.955  0.00  0.00    +0.000 N 
ATOM      5  C   UNL     1       2.544   3.379  19.288  0.00  0.00    +0.000 C 
ATOM      6  C   UNL     1       2.679   2.648  17.953  0.00  0.00    +0.000 C 
ATOM      7  C   UNL     1       3.575   3.540  17.104  0.00  0.00    +0.000 C 
ATOM      8  N   UNL     1       3.581   4.818  17.784  0.00  0.00    +0.000 N 
ATOM      9  C   UNL     1       4.454   5.819  17.411  0.00  0.00    +0.000 C 
ATOM     10  O   UNL     1       4.691   6.753  18.165  0.00  0.00    +0.000 OA
ATOM     11  H   UNL     1       2.526   7.286  18.329  0.00  0.00    +0.000 HD
ENDROOT
BRANCH   1  17
ATOM     12  C   UNL     1       1.506   9.484  19.516  0.00  0.00    +0.000 A 
ATOM     13  C   UNL     1       0.874  10.471  20.311  0.00  0.00    +0.000 A 
ATOM     14  C   UNL     1       0.376  10.179  21.577  0.00  0.00    +0.000 A 
ATOM     15  C   UNL     1       0.495   8.896  22.089  0.00  0.00    +0.000 A 
ATOM     16  C   UNL     1       1.103   7.893  21.331  0.00  0.00    +0.000 A 
ATOM     17  C   UNL     1       1.612   8.145  20.034  0.00  0.00    +0.000 A 
BRANCH  12  18
ATOM     18  C   UNL     1       1.985   9.923  18.167  0.00  0.00    +0.000 C 
ATOM     19  O   UNL     1       1.813   9.238  17.172  0.00  0.00    +0.000 OA
BRANCH  18  20
ATOM     20  O   UNL     1       2.604  11.126  18.047  0.00  0.00    +0.000 OA
BRANCH  20  22
ATOM     21  C   UNL     1       2.763  13.458  18.508  0.00  0.00    +0.000 C 
ATOM     22  C   UNL     1       1.966  12.337  17.858  0.00  0.00    +0.000 C 
ENDBRANCH  20  22
ENDBRANCH  18  20
ENDBRANCH  12  18
ENDBRANCH   1  17
BRANCH   9  23
ATOM     23  C   UNL     1       5.198   5.786  16.065  0.00  0.00    +0.000 C 
BRANCH  23  24
ATOM     24  N   UNL     1       4.985   7.066  15.384  0.00  0.00    +0.000 NA
ATOM     25  H   UNL     1       5.449   7.840  15.911  0.00  0.00    +0.000 HD
ATOM     26  H   UNL     1       3.959   7.261  15.318  0.00  0.00    +0.000 HD
ENDBRANCH  23  24
BRANCH  23  27
ATOM     27  C   UNL     1       6.728   5.485  16.162  0.00  0.00    +0.000 C 
ATOM     28  C   UNL     1       7.049   4.616  17.394  0.00  0.00    +0.000 C 
BRANCH  27  29
ATOM     29  C   UNL     1       7.179   4.772  14.851  0.00  0.00    +0.000 C 
ATOM     30  C   UNL     1       6.112   3.907  14.179  0.00  0.00    +0.000 C 
ENDBRANCH  27  29
ENDBRANCH  23  27
ENDBRANCH   9  23
TORSDOF 8
ENDMDL
MODEL 8
REMARK VINA RESULT:      -6.4      1.194      1.592
REMARK  Name = 
REMARK  11 active torsions:
REMARK  status: ('A' for Active; 'I' for Inactive)
REMARK    1  A    between atoms: C_1  and  C_2
REMARK    2  A    between atoms: C_2  and  O_3
REMARK    3  A    between atoms: O_3  and  C_4
REMARK    4  A    between atoms: C_4  and  C_6
REMARK    5  A    between atoms: C_11  and  N_12
REMARK    6  A    between atoms: C_20  and  C_22
REMARK    7  A    between atoms: C_22  and  N_23
REMARK    8  A    between atoms: C_22  and  C_24
REMARK    9  A    between atoms: C_24  and  C_25
REMARK   10  A    between atoms: C_24  and  C_26
REMARK   11  A    between atoms: C_26  and  C_27
REMARK                            x       y       z     vdW  Elec       q    Type
REMARK                         _______ _______ _______ _____ _____    ______ ____
ROOT
ATOM      1  N   UNL     1       4.275   5.964  16.995  0.00  0.00    +0.000 N 
ATOM      2  C   UNL     1       3.406   5.179  17.702  0.00  0.00    +0.000 C 
ATOM      3  O   UNL     1       3.446   3.968  17.540  0.00  0.00    +0.000 OA
ATOM      4  N   UNL     1       2.573   5.668  18.697  0.00  0.00    +0.000 N 
ATOM      5  C   UNL     1       1.963   4.763  19.640  0.00  0.00    +0.000 C 
ATOM      6  C   UNL     1       1.761   5.624  20.886  0.00  0.00    +0.000 C 
ATOM      7  C   UNL     1       1.741   7.059  20.375  0.00  0.00    +0.000 C 
ATOM      8  N   UNL     1       2.289   6.986  19.037  0.00  0.00    +0.000 N 
ATOM      9  C   UNL     1       2.237   8.070  18.186  0.00  0.00    +0.000 C 
ATOM     10  O   UNL     1       2.392   7.926  16.982  0.00  0.00    +0.000 OA
ATOM     11  H   UNL     1       4.377   6.936  17.264  0.00  0.00    +0.000 HD
ENDROOT
BRANCH   1  17
ATOM     12  C   UNL     1       6.596   5.735  16.028  0.00  0.00    +0.000 A 
ATOM     13  C   UNL     1       7.424   5.183  15.022  0.00  0.00    +0.000 A 
ATOM     14  C   UNL     1       6.904   4.392  14.002  0.00  0.00    +0.000 A 
ATOM     15  C   UNL     1       5.545   4.131  13.953  0.00  0.00    +0.000 A 
ATOM     16  C   UNL     1       4.696   4.650  14.933  0.00  0.00    +0.000 A 
ATOM     17  C   UNL     1       5.186   5.448  15.994  0.00  0.00    +0.000 A 
BRANCH  12  18
ATOM     18  C   UNL     1       7.280   6.555  17.077  0.00  0.00    +0.000 C 
ATOM     19  O   UNL     1       7.137   7.766  17.138  0.00  0.00    +0.000 OA
BRANCH  18  20
ATOM     20  O   UNL     1       8.059   5.931  17.998  0.00  0.00    +0.000 OA
BRANCH  20  22
ATOM     21  C   UNL     1       6.412   5.197  19.556  0.00  0.00    +0.000 C 
ATOM     22  C   UNL     1       7.777   5.835  19.347  0.00  0.00    +0.000 C 
ENDBRANCH  20  22
ENDBRANCH  18  20
ENDBRANCH  12  18
ENDBRANCH   1  17
BRANCH   9  23
ATOM     23  C   UNL     1       1.940   9.490  18.699  0.00  0.00    +0.000 C 
BRANCH  23  24
ATOM     24  N   UNL     1       2.244  10.445  17.630  0.00  0.00    +0.000 NA
ATOM     25  H   UNL     1       1.391  10.995  17.381  0.00  0.00    +0.000 HD
ATOM     26  H   UNL     1       2.580   9.929  16.784  0.00  0.00    +0.000 HD
ENDBRANCH  23  24
BRANCH  23  27
ATOM     27  C   UNL     1       0.483   9.715  19.214  0.00  0.00    +0.000 C 
ATOM     28  C   UNL     1       0.479  10.356  20.616  0.00  0.00    +0.000 C 
BRANCH  27  29
ATOM     29  C   UNL     1      -0.272  10.619  18.192  0.00  0.00    +0.000 C 
ATOM     30  C   UNL     1      -1.601  10.060  17.685  0.00  0.00    +0.000 C 
ENDBRANCH  27  29
ENDBRANCH  23  27
ENDBRANCH   9  23
TORSDOF 8
ENDMDL
MODEL 9
REMARK VINA RESULT:      -6.4      2.202      6.866
REMARK  Name = 
REMARK  11 active torsions:
REMARK  status: ('A' for Active; 'I' for Inactive)
REMARK    1  A    between atoms: C_1  and  C_2
REMARK    2  A    between atoms: C_2  and  O_3
REMARK    3  A    between atoms: O_3  and  C_4
REMARK    4  A    between atoms: C_4  and  C_6
REMARK    5  A    between atoms: C_11  and  N_12
REMARK    6  A    between atoms: C_20  and  C_22
REMARK    7  A    between atoms: C_22  and  N_23
REMARK    8  A    between atoms: C_22  and  C_24
REMARK    9  A    between atoms: C_24  and  C_25
REMARK   10  A    between atoms: C_24  and  C_26
REMARK   11  A    between atoms: C_26  and  C_27
REMARK                            x       y       z     vdW  Elec       q    Type
REMARK                         _______ _______ _______ _____ _____    ______ ____
ROOT
ATOM      1  N   UNL     1       2.286   6.784  19.593  0.00  0.00    +0.000 N 
ATOM      2  C   UNL     1       1.993   5.470  19.834  0.00  0.00    +0.000 C 
ATOM      3  O   UNL     1       1.053   5.206  20.570  0.00  0.00    +0.000 OA
ATOM      4  N   UNL     1       2.617   4.417  19.183  0.00  0.00    +0.000 N 
ATOM      5  C   UNL     1       2.027   3.101  19.204  0.00  0.00    +0.000 C 
ATOM      6  C   UNL     1       2.527   2.461  17.910  0.00  0.00    +0.000 C 
ATOM      7  C   UNL     1       3.791   3.232  17.551  0.00  0.00    +0.000 C 
ATOM      8  N   UNL     1       3.738   4.432  18.361  0.00  0.00    +0.000 N 
ATOM      9  C   UNL     1       4.824   5.278  18.452  0.00  0.00    +0.000 C 
ATOM     10  O   UNL     1       4.906   6.091  19.362  0.00  0.00    +0.000 OA
ATOM     11  H   UNL     1       2.932   7.005  18.843  0.00  0.00    +0.000 HD
ENDROOT
BRANCH   1  17
ATOM     12  C   UNL     1       1.401   9.148  19.565  0.00  0.00    +0.000 A 
ATOM     13  C   UNL     1       0.707  10.175  20.248  0.00  0.00    +0.000 A 
ATOM     14  C   UNL     1       0.234   9.997  21.545  0.00  0.00    +0.000 A 
ATOM     15  C   UNL     1       0.440   8.792  22.198  0.00  0.00    +0.000 A 
ATOM     16  C   UNL     1       1.112   7.752  21.553  0.00  0.00    +0.000 A 
ATOM     17  C   UNL     1       1.599   7.887  20.231  0.00  0.00    +0.000 A 
BRANCH  12  18
ATOM     18  C   UNL     1       1.846   9.461  18.169  0.00  0.00    +0.000 C 
ATOM     19  O   UNL     1       2.295   8.598  17.432  0.00  0.00    +0.000 OA
BRANCH  18  20
ATOM     20  O   UNL     1       1.722  10.732  17.707  0.00  0.00    +0.000 OA
BRANCH  20  22
ATOM     21  C   UNL     1       1.989  13.025  18.295  0.00  0.00    +0.000 C 
ATOM     22  C   UNL     1       2.662  11.732  17.861  0.00  0.00    +0.000 C 
ENDBRANCH  20  22
ENDBRANCH  18  20
ENDBRANCH  12  18
ENDBRANCH   1  17
BRANCH   9  23
ATOM     23  C   UNL     1       5.991   5.209  17.453  0.00  0.00    +0.000 C 
BRANCH  23  24
ATOM     24  N   UNL     1       6.801   4.028  17.763  0.00  0.00    +0.000 NA
ATOM     25  H   UNL     1       6.259   3.155  17.571  0.00  0.00    +0.000 HD
ATOM     26  H   UNL     1       7.075   4.047  18.773  0.00  0.00    +0.000 HD
ENDBRANCH  23  24
BRANCH  23  27
ATOM     27  C   UNL     1       5.573   5.185  15.948  0.00  0.00    +0.000 C 
ATOM     28  C   UNL     1       5.168   6.589  15.458  0.00  0.00    +0.000 C 
BRANCH  27  29
ATOM     29  C   UNL     1       6.764   4.629  15.109  0.00  0.00    +0.000 C 
ATOM     30  C   UNL     1       6.377   3.962  13.789  0.00  0.00    +0.000 C 
ENDBRANCH  27  29
ENDBRANCH  23  27
ENDBRANCH   9  23
TORSDOF 8
ENDMDL
