MODEL 1
REMARK VINA RESULT:      -7.5      0.000      0.000
REMARK  Name = 
REMARK  5 active torsions:
REMARK  status: ('A' for Active; 'I' for Inactive)
REMARK    1  A    between atoms: N_2  and  C_4
REMARK    2  A    between atoms: C_4  and  C_11
REMARK    3  A    between atoms: C_5  and  C_6
REMARK    4  A    between atoms: N_15  and  C_16
REMARK    5  A    between atoms: C_16  and  C_17
REMARK                            x       y       z     vdW  Elec       q    Type
REMARK                         _______ _______ _______ _____ _____    ______ ____
ROOT
ATOM      1  C   UNL     1       6.890   4.906  15.988  0.00  0.00    +0.000 C 
ATOM      2  N   UNL     1       7.842   4.282  16.649  0.00  0.00    +0.000 NA
ATOM      3  C   UNL     1       7.862   4.851  18.018  0.00  0.00    +0.000 C 
ATOM      4  C   UNL     1       6.899   6.032  18.019  0.00  0.00    +0.000 C 
ATOM      5  N   UNL     1       6.267   5.908  16.720  0.00  0.00    +0.000 N 
ENDROOT
BRANCH   1   6
ATOM      6  C   UNL     1       6.610   4.521  14.572  0.00  0.00    +0.000 C 
ATOM      7  C   UNL     1       5.525   3.831  14.185  0.00  0.00    +0.000 C 
BRANCH   7   8
ATOM      8  C   UNL     1       5.209   3.370  12.883  0.00  0.00    +0.000 A 
ATOM      9  C   UNL     1       4.349   3.756  11.871  0.00  0.00    +0.000 A 
ATOM     10  C   UNL     1       4.511   2.853  10.791  0.00  0.00    +0.000 A 
ATOM     11  C   UNL     1       5.487   1.957  11.152  0.00  0.00    +0.000 A 
ATOM     12  N   UNL     1       5.925   2.291  12.406  0.00  0.00    +0.000 N 
ATOM     13  H   UNL     1       6.655   1.800  12.907  0.00  0.00    +0.000 HD
ENDBRANCH   7   8
BRANCH   6  15
ATOM     14  O   UNL     1       8.365   5.863  13.957  0.00  0.00    +0.000 OA
ATOM     15  N   UNL     1       7.516   5.042  13.581  0.00  0.00    +0.000 N 
ATOM     16  O   UNL     1       7.359   4.640  12.419  0.00  0.00    +0.000 OA
ENDBRANCH   6  15
ENDBRANCH   1   6
BRANCH   5  17
ATOM     17  C   UNL     1       4.945   6.474  16.513  0.00  0.00    +0.000 C 
BRANCH  17  18
ATOM     18  C   UNL     1       3.915   5.839  17.418  0.00  0.00    +0.000 A 
ATOM     19  C   UNL     1       3.532   4.497  17.314  0.00  0.00    +0.000 A 
ATOM     20  C   UNL     1       2.599   3.959  18.195  0.00  0.00    +0.000 A 
ATOM     21  C   UNL     1       2.065   4.797  19.153  0.00  0.00    +0.000 A 
ATOM     22 CL   UNL     1       0.930   4.213  20.293  0.00  0.00    +0.000 Cl
ATOM     23  N   UNL     1       2.390   6.095  19.287  0.00  0.00    +0.000 NA
ATOM     24  C   UNL     1       3.298   6.592  18.415  0.00  0.00    +0.000 A 
ENDBRANCH  17  18
ENDBRANCH   5  17
TORSDOF 5
ENDMDL
MODEL 2
REMARK VINA RESULT:      -7.5      3.404      5.293
REMARK  Name = 
REMARK  5 active torsions:
REMARK  status: ('A' for Active; 'I' for Inactive)
REMARK    1  A    between atoms: N_2  and  C_4
REMARK    2  A    between atoms: C_4  and  C_11
REMARK    3  A    between atoms: C_5  and  C_6
REMARK    4  A    between atoms: N_15  and  C_16
REMARK    5  A    between atoms: C_16  and  C_17
REMARK                            x       y       z     vdW  Elec       q    Type
REMARK                         _______ _______ _______ _____ _____    ______ ____
ROOT
ATOM      1  C   UNL     1       2.479   3.627  18.780  0.00  0.00    +0.000 C 
ATOM      2  N   UNL     1       1.579   2.922  18.128  0.00  0.00    +0.000 NA
ATOM      3  C   UNL     1       0.347   2.925  18.953  0.00  0.00    +0.000 C 
ATOM      4  C   UNL     1       0.704   3.588  20.278  0.00  0.00    +0.000 C 
ATOM      5  N   UNL     1       2.042   4.083  20.017  0.00  0.00    +0.000 N 
ENDROOT
BRANCH   1   6
ATOM      6  C   UNL     1       3.830   3.828  18.176  0.00  0.00    +0.000 C 
ATOM      7  C   UNL     1       4.031   4.306  16.937  0.00  0.00    +0.000 C 
BRANCH   7   8
ATOM      8  C   UNL     1       5.266   4.470  16.261  0.00  0.00    +0.000 A 
ATOM      9  C   UNL     1       5.993   3.755  15.327  0.00  0.00    +0.000 A 
ATOM     10  C   UNL     1       7.183   4.476  15.054  0.00  0.00    +0.000 A 
ATOM     11  C   UNL     1       7.142   5.628  15.800  0.00  0.00    +0.000 A 
ATOM     12  N   UNL     1       5.968   5.632  16.507  0.00  0.00    +0.000 N 
ATOM     13  H   UNL     1       5.678   6.377  17.129  0.00  0.00    +0.000 HD
ENDBRANCH   7   8
BRANCH   6  15
ATOM     14  O   UNL     1       5.753   4.533  19.207  0.00  0.00    +0.000 OA
ATOM     15  N   UNL     1       4.956   3.598  19.045  0.00  0.00    +0.000 N 
ATOM     16  O   UNL     1       5.049   2.468  19.545  0.00  0.00    +0.000 OA
ENDBRANCH   6  15
ENDBRANCH   1   6
BRANCH   5  17
ATOM     17  C   UNL     1       2.547   5.211  20.781  0.00  0.00    +0.000 C 
BRANCH  17  18
ATOM     18  C   UNL     1       2.187   6.530  20.138  0.00  0.00    +0.000 A 
ATOM     19  C   UNL     1       2.554   6.865  18.830  0.00  0.00    +0.000 A 
ATOM     20  C   UNL     1       2.171   8.084  18.279  0.00  0.00    +0.000 A 
ATOM     21  C   UNL     1       1.436   8.941  19.072  0.00  0.00    +0.000 A 
ATOM     22 CL   UNL     1       0.901  10.451  18.468  0.00  0.00    +0.000 Cl
ATOM     23  N   UNL     1       1.069   8.673  20.338  0.00  0.00    +0.000 NA
ATOM     24  C   UNL     1       1.458   7.481  20.848  0.00  0.00    +0.000 A 
ENDBRANCH  17  18
ENDBRANCH   5  17
TORSDOF 5
ENDMDL
MODEL 3
REMARK VINA RESULT:      -7.5      1.771      2.589
REMARK  Name = 
REMARK  5 active torsions:
REMARK  status: ('A' for Active; 'I' for Inactive)
REMARK    1  A    between atoms: N_2  and  C_4
REMARK    2  A    between atoms: C_4  and  C_11
REMARK    3  A    between atoms: C_5  and  C_6
REMARK    4  A    between atoms: N_15  and  C_16
REMARK    5  A    between atoms: C_16  and  C_17
REMARK                            x       y       z     vdW  Elec       q    Type
REMARK                         _______ _______ _______ _____ _____    ______ ____
ROOT
ATOM      1  C   UNL     1       5.150   5.453  15.951  0.00  0.00    +0.000 C 
ATOM      2  N   UNL     1       5.209   6.759  16.103  0.00  0.00    +0.000 NA
ATOM      3  C   UNL     1       4.335   7.100  17.251  0.00  0.00    +0.000 C 
ATOM      4  C   UNL     1       3.607   5.822  17.647  0.00  0.00    +0.000 C 
ATOM      5  N   UNL     1       4.275   4.828  16.830  0.00  0.00    +0.000 N 
ENDROOT
BRANCH   1   6
ATOM      6  C   UNL     1       5.960   4.804  14.878  0.00  0.00    +0.000 C 
ATOM      7  C   UNL     1       5.432   4.239  13.780  0.00  0.00    +0.000 C 
BRANCH   7   8
ATOM      8  C   UNL     1       6.114   3.548  12.747  0.00  0.00    +0.000 A 
ATOM      9  C   UNL     1       7.212   3.791  11.942  0.00  0.00    +0.000 A 
ATOM     10  C   UNL     1       7.379   2.677  11.082  0.00  0.00    +0.000 A 
ATOM     11  C   UNL     1       6.402   1.766  11.400  0.00  0.00    +0.000 A 
ATOM     12  N   UNL     1       5.657   2.286  12.426  0.00  0.00    +0.000 N 
ATOM     13  H   UNL     1       4.877   1.812  12.863  0.00  0.00    +0.000 HD
ENDBRANCH   7   8
BRANCH   6  15
ATOM     14  O   UNL     1       7.929   4.313  15.947  0.00  0.00    +0.000 OA
ATOM     15  N   UNL     1       7.391   4.915  15.006  0.00  0.00    +0.000 N 
ATOM     16  O   UNL     1       7.969   5.627  14.173  0.00  0.00    +0.000 OA
ENDBRANCH   6  15
ENDBRANCH   1   6
BRANCH   5  17
ATOM     17  C   UNL     1       4.280   3.439  17.257  0.00  0.00    +0.000 C 
BRANCH  17  18
ATOM     18  C   UNL     1       3.398   3.221  18.465  0.00  0.00    +0.000 A 
ATOM     19  C   UNL     1       2.000   3.236  18.400  0.00  0.00    +0.000 A 
ATOM     20  C   UNL     1       1.238   3.000  19.540  0.00  0.00    +0.000 A 
ATOM     21  C   UNL     1       1.911   2.768  20.722  0.00  0.00    +0.000 A 
ATOM     22 CL   UNL     1       1.054   2.444  22.168  0.00  0.00    +0.000 Cl
ATOM     23  N   UNL     1       3.250   2.755  20.841  0.00  0.00    +0.000 NA
ATOM     24  C   UNL     1       3.965   2.991  19.716  0.00  0.00    +0.000 A 
ENDBRANCH  17  18
ENDBRANCH   5  17
TORSDOF 5
ENDMDL
MODEL 4
REMARK VINA RESULT:      -7.5      3.552      6.555
REMARK  Name = 
REMARK  5 active torsions:
REMARK  status: ('A' for Active; 'I' for Inactive)
REMARK    1  A    between atoms: N_2  and  C_4
REMARK    2  A    between atoms: C_4  and  C_11
REMARK    3  A    between atoms: C_5  and  C_6
REMARK    4  A    between atoms: N_15  and  C_16
REMARK    5  A    between atoms: C_16  and  C_17
REMARK                            x       y       z     vdW  Elec       q    Type
REMARK                         _______ _______ _______ _____ _____    ______ ____
ROOT
ATOM      1  C   UNL     1       6.029   5.181  18.993  0.00  0.00    +0.000 C 
ATOM      2  N   UNL     1       6.916   5.376  19.946  0.00  0.00    +0.000 NA
ATOM      3  C   UNL     1       7.993   6.216  19.369  0.00  0.00    +0.000 C 
ATOM      4  C   UNL     1       7.703   6.343  17.879  0.00  0.00    +0.000 C 
ATOM      5  N   UNL     1       6.388   5.741  17.774  0.00  0.00    +0.000 N 
ENDROOT
BRANCH   1   6
ATOM      6  C   UNL     1       4.800   4.386  19.288  0.00  0.00    +0.000 C 
ATOM      7  C   UNL     1       3.659   4.917  19.756  0.00  0.00    +0.000 C 
BRANCH   7   8
ATOM      8  C   UNL     1       2.472   4.236  20.122  0.00  0.00    +0.000 A 
ATOM      9  C   UNL     1       1.195   4.111  19.604  0.00  0.00    +0.000 A 
ATOM     10  C   UNL     1       0.453   3.268  20.469  0.00  0.00    +0.000 A 
ATOM     11  C   UNL     1       1.298   2.872  21.476  0.00  0.00    +0.000 A 
ATOM     12  N   UNL     1       2.525   3.438  21.246  0.00  0.00    +0.000 N 
ATOM     13  H   UNL     1       3.338   3.298  21.832  0.00  0.00    +0.000 HD
ENDBRANCH   7   8
BRANCH   6  15
ATOM     14  O   UNL     1       5.180   2.183  19.803  0.00  0.00    +0.000 OA
ATOM     15  N   UNL     1       4.843   2.992  18.926  0.00  0.00    +0.000 N 
ATOM     16  O   UNL     1       4.560   2.715  17.752  0.00  0.00    +0.000 OA
ENDBRANCH   6  15
ENDBRANCH   1   6
BRANCH   5  17
ATOM     17  C   UNL     1       5.517   6.116  16.673  0.00  0.00    +0.000 C 
BRANCH  17  18
ATOM     18  C   UNL     1       5.856   5.364  15.407  0.00  0.00    +0.000 A 
ATOM     19  C   UNL     1       5.017   4.394  14.849  0.00  0.00    +0.000 A 
ATOM     20  C   UNL     1       5.368   3.753  13.664  0.00  0.00    +0.000 A 
ATOM     21  C   UNL     1       6.569   4.101  13.081  0.00  0.00    +0.000 A 
ATOM     22 CL   UNL     1       7.068   3.382  11.611  0.00  0.00    +0.000 Cl
ATOM     23  N   UNL     1       7.417   5.016  13.583  0.00  0.00    +0.000 NA
ATOM     24  C   UNL     1       7.050   5.621  14.737  0.00  0.00    +0.000 A 
ENDBRANCH  17  18
ENDBRANCH   5  17
TORSDOF 5
ENDMDL
MODEL 5
REMARK VINA RESULT:      -7.4      0.565      1.002
REMARK  Name = 
REMARK  5 active torsions:
REMARK  status: ('A' for Active; 'I' for Inactive)
REMARK    1  A    between atoms: N_2  and  C_4
REMARK    2  A    between atoms: C_4  and  C_11
REMARK    3  A    between atoms: C_5  and  C_6
REMARK    4  A    between atoms: N_15  and  C_16
REMARK    5  A    between atoms: C_16  and  C_17
REMARK                            x       y       z     vdW  Elec       q    Type
REMARK                         _______ _______ _______ _____ _____    ______ ____
ROOT
ATOM      1  C   UNL     1       6.888   4.972  15.968  0.00  0.00    +0.000 C 
ATOM      2  N   UNL     1       7.836   4.363  16.647  0.00  0.00    +0.000 NA
ATOM      3  C   UNL     1       7.848   4.959  18.004  0.00  0.00    +0.000 C 
ATOM      4  C   UNL     1       6.884   6.138  17.977  0.00  0.00    +0.000 C 
ATOM      5  N   UNL     1       6.259   5.988  16.677  0.00  0.00    +0.000 N 
ENDROOT
BRANCH   1   6
ATOM      6  C   UNL     1       6.615   4.560  14.559  0.00  0.00    +0.000 C 
ATOM      7  C   UNL     1       5.542   3.847  14.182  0.00  0.00    +0.000 C 
BRANCH   7   8
ATOM      8  C   UNL     1       5.236   3.359  12.887  0.00  0.00    +0.000 A 
ATOM      9  C   UNL     1       4.369   3.713  11.869  0.00  0.00    +0.000 A 
ATOM     10  C   UNL     1       4.548   2.796  10.803  0.00  0.00    +0.000 A 
ATOM     11  C   UNL     1       5.540   1.924  11.179  0.00  0.00    +0.000 A 
ATOM     12  N   UNL     1       5.972   2.286  12.428  0.00  0.00    +0.000 N 
ATOM     13  H   UNL     1       6.710   1.817  12.936  0.00  0.00    +0.000 HD
ENDBRANCH   7   8
BRANCH   6  15
ATOM     14  O   UNL     1       8.398   5.862  13.937  0.00  0.00    +0.000 OA
ATOM     15  N   UNL     1       7.515   5.078  13.560  0.00  0.00    +0.000 N 
ATOM     16  O   UNL     1       7.318   4.713  12.393  0.00  0.00    +0.000 OA
ENDBRANCH   6  15
ENDBRANCH   1   6
BRANCH   5  17
ATOM     17  C   UNL     1       4.937   6.547  16.452  0.00  0.00    +0.000 C 
BRANCH  17  18
ATOM     18  C   UNL     1       3.928   6.018  17.445  0.00  0.00    +0.000 A 
ATOM     19  C   UNL     1       3.240   6.839  18.344  0.00  0.00    +0.000 A 
ATOM     20  C   UNL     1       2.300   6.300  19.217  0.00  0.00    +0.000 A 
ATOM     21  C   UNL     1       2.089   4.938  19.167  0.00  0.00    +0.000 A 
ATOM     22 CL   UNL     1       0.934   4.193  20.187  0.00  0.00    +0.000 Cl
ATOM     23  N   UNL     1       2.732   4.102  18.332  0.00  0.00    +0.000 NA
ATOM     24  C   UNL     1       3.643   4.655  17.496  0.00  0.00    +0.000 A 
ENDBRANCH  17  18
ENDBRANCH   5  17
TORSDOF 5
ENDMDL
MODEL 6
REMARK VINA RESULT:      -7.4      2.568      3.597
REMARK  Name = 
REMARK  5 active torsions:
REMARK  status: ('A' for Active; 'I' for Inactive)
REMARK    1  A    between atoms: N_2  and  C_4
REMARK    2  A    between atoms: C_4  and  C_11
REMARK    3  A    between atoms: C_5  and  C_6
REMARK    4  A    between atoms: N_15  and  C_16
REMARK    5  A    between atoms: C_16  and  C_17
REMARK                            x       y       z     vdW  Elec       q    Type
REMARK                         _______ _______ _______ _____ _____    ______ ____
ROOT
ATOM      1  C   UNL     1       5.049   4.670  17.860  0.00  0.00    +0.000 C 
ATOM      2  N   UNL     1       5.687   3.833  18.650  0.00  0.00    +0.000 NA
ATOM      3  C   UNL     1       4.875   3.699  19.883  0.00  0.00    +0.000 C 
ATOM      4  C   UNL     1       3.747   4.718  19.783  0.00  0.00    +0.000 C 
ATOM      5  N   UNL     1       3.894   5.199  18.423  0.00  0.00    +0.000 N 
ENDROOT
BRANCH   1   6
ATOM      6  C   UNL     1       5.616   4.983  16.514  0.00  0.00    +0.000 C 
ATOM      7  C   UNL     1       5.857   4.060  15.570  0.00  0.00    +0.000 C 
BRANCH   7   8
ATOM      8  C   UNL     1       6.448   4.255  14.297  0.00  0.00    +0.000 A 
ATOM      9  C   UNL     1       6.247   3.765  13.019  0.00  0.00    +0.000 A 
ATOM     10  C   UNL     1       7.201   4.370  12.163  0.00  0.00    +0.000 A 
ATOM     11  C   UNL     1       7.942   5.237  12.928  0.00  0.00    +0.000 A 
ATOM     12  N   UNL     1       7.464   5.184  14.211  0.00  0.00    +0.000 N 
ATOM     13  H   UNL     1       7.825   5.738  14.978  0.00  0.00    +0.000 HD
ENDBRANCH   7   8
BRANCH   6  15
ATOM     14  O   UNL     1       4.984   6.899  15.422  0.00  0.00    +0.000 OA
ATOM     15  N   UNL     1       5.790   6.380  16.208  0.00  0.00    +0.000 N 
ATOM     16  O   UNL     1       6.753   6.949  16.741  0.00  0.00    +0.000 OA
ENDBRANCH   6  15
ENDBRANCH   1   6
BRANCH   5  17
ATOM     17  C   UNL     1       2.744   5.762  17.736  0.00  0.00    +0.000 C 
BRANCH  17  18
ATOM     18  C   UNL     1       2.293   7.058  18.368  0.00  0.00    +0.000 A 
ATOM     19  C   UNL     1       2.116   8.240  17.639  0.00  0.00    +0.000 A 
ATOM     20  C   UNL     1       1.670   9.398  18.269  0.00  0.00    +0.000 A 
ATOM     21  C   UNL     1       1.429   9.335  19.627  0.00  0.00    +0.000 A 
ATOM     22 CL   UNL     1       0.856  10.705  20.478  0.00  0.00    +0.000 Cl
ATOM     23  N   UNL     1       1.596   8.230  20.375  0.00  0.00    +0.000 NA
ATOM     24  C   UNL     1       2.033   7.119  19.735  0.00  0.00    +0.000 A 
ENDBRANCH  17  18
ENDBRANCH   5  17
TORSDOF 5
ENDMDL
MODEL 7
REMARK VINA RESULT:      -7.4      3.422      5.393
REMARK  Name = 
REMARK  5 active torsions:
REMARK  status: ('A' for Active; 'I' for Inactive)
REMARK    1  A    between atoms: N_2  and  C_4
REMARK    2  A    between atoms: C_4  and  C_11
REMARK    3  A    between atoms: C_5  and  C_6
REMARK    4  A    between atoms: N_15  and  C_16
REMARK    5  A    between atoms: C_16  and  C_17
REMARK                            x       y       z     vdW  Elec       q    Type
REMARK                         _______ _______ _______ _____ _____    ______ ____
ROOT
ATOM      1  C   UNL     1       2.466   3.602  18.821  0.00  0.00    +0.000 C 
ATOM      2  N   UNL     1       1.562   2.920  18.150  0.00  0.00    +0.000 NA
ATOM      3  C   UNL     1       0.332   2.903  18.977  0.00  0.00    +0.000 C 
ATOM      4  C   UNL     1       0.693   3.524  20.320  0.00  0.00    +0.000 C 
ATOM      5  N   UNL     1       2.033   4.022  20.072  0.00  0.00    +0.000 N 
ENDROOT
BRANCH   1   6
ATOM      6  C   UNL     1       3.816   3.816  18.220  0.00  0.00    +0.000 C 
ATOM      7  C   UNL     1       4.017   4.317  16.990  0.00  0.00    +0.000 C 
BRANCH   7   8
ATOM      8  C   UNL     1       5.251   4.495  16.317  0.00  0.00    +0.000 A 
ATOM      9  C   UNL     1       5.981   3.797  15.372  0.00  0.00    +0.000 A 
ATOM     10  C   UNL     1       7.168   4.525  15.111  0.00  0.00    +0.000 A 
ATOM     11  C   UNL     1       7.124   5.665  15.876  0.00  0.00    +0.000 A 
ATOM     12  N   UNL     1       5.950   5.655  16.582  0.00  0.00    +0.000 N 
ATOM     13  H   UNL     1       5.658   6.388  17.216  0.00  0.00    +0.000 HD
ENDBRANCH   7   8
BRANCH   6  15
ATOM     14  O   UNL     1       5.747   4.501  19.252  0.00  0.00    +0.000 OA
ATOM     15  N   UNL     1       4.943   3.572  19.084  0.00  0.00    +0.000 N 
ATOM     16  O   UNL     1       5.030   2.438  19.576  0.00  0.00    +0.000 OA
ENDBRANCH   6  15
ENDBRANCH   1   6
BRANCH   5  17
ATOM     17  C   UNL     1       2.544   5.124  20.869  0.00  0.00    +0.000 C 
BRANCH  17  18
ATOM     18  C   UNL     1       2.122   6.463  20.311  0.00  0.00    +0.000 A 
ATOM     19  C   UNL     1       1.308   7.359  21.011  0.00  0.00    +0.000 A 
ATOM     20  C   UNL     1       0.975   8.592  20.458  0.00  0.00    +0.000 A 
ATOM     21  C   UNL     1       1.464   8.882  19.201  0.00  0.00    +0.000 A 
ATOM     22 CL   UNL     1       1.126  10.384  18.455  0.00  0.00    +0.000 Cl
ATOM     23  N   UNL     1       2.239   8.051  18.481  0.00  0.00    +0.000 NA
ATOM     24  C   UNL     1       2.544   6.858  19.043  0.00  0.00    +0.000 A 
ENDBRANCH  17  18
ENDBRANCH   5  17
TORSDOF 5
ENDMDL
MODEL 8
REMARK VINA RESULT:      -7.3      3.511      6.552
REMARK  Name = 
REMARK  5 active torsions:
REMARK  status: ('A' for Active; 'I' for Inactive)
REMARK    1  A    between atoms: N_2  and  C_4
REMARK    2  A    between atoms: C_4  and  C_11
REMARK    3  A    between atoms: C_5  and  C_6
REMARK    4  A    between atoms: N_15  and  C_16
REMARK    5  A    between atoms: C_16  and  C_17
REMARK                            x       y       z     vdW  Elec       q    Type
REMARK                         _______ _______ _______ _____ _____    ______ ____
ROOT
ATOM      1  C   UNL     1       6.014   5.203  18.874  0.00  0.00    +0.000 C 
ATOM      2  N   UNL     1       6.899   5.426  19.823  0.00  0.00    +0.000 NA
ATOM      3  C   UNL     1       7.967   6.263  19.228  0.00  0.00    +0.000 C 
ATOM      4  C   UNL     1       7.677   6.356  17.735  0.00  0.00    +0.000 C 
ATOM      5  N   UNL     1       6.367   5.739  17.643  0.00  0.00    +0.000 N 
ENDROOT
BRANCH   1   6
ATOM      6  C   UNL     1       4.792   4.402  19.187  0.00  0.00    +0.000 C 
ATOM      7  C   UNL     1       3.676   4.919  19.726  0.00  0.00    +0.000 C 
BRANCH   7   8
ATOM      8  C   UNL     1       2.500   4.230  20.112  0.00  0.00    +0.000 A 
ATOM      9  C   UNL     1       1.218   4.089  19.612  0.00  0.00    +0.000 A 
ATOM     10  C   UNL     1       0.496   3.245  20.493  0.00  0.00    +0.000 A 
ATOM     11  C   UNL     1       1.358   2.864  21.491  0.00  0.00    +0.000 A 
ATOM     12  N   UNL     1       2.576   3.440  21.241  0.00  0.00    +0.000 N 
ATOM     13  H   UNL     1       3.398   3.311  21.817  0.00  0.00    +0.000 HD
ENDBRANCH   7   8
BRANCH   6  15
ATOM     14  O   UNL     1       4.506   2.787  17.584  0.00  0.00    +0.000 OA
ATOM     15  N   UNL     1       4.809   3.025  18.762  0.00  0.00    +0.000 N 
ATOM     16  O   UNL     1       5.104   2.183  19.622  0.00  0.00    +0.000 OA
ENDBRANCH   6  15
ENDBRANCH   1   6
BRANCH   5  17
ATOM     17  C   UNL     1       5.492   6.083  16.535  0.00  0.00    +0.000 C 
BRANCH  17  18
ATOM     18  C   UNL     1       5.839   5.309  15.285  0.00  0.00    +0.000 A 
ATOM     19  C   UNL     1       7.090   5.387  14.663  0.00  0.00    +0.000 A 
ATOM     20  C   UNL     1       7.363   4.628  13.528  0.00  0.00    +0.000 A 
ATOM     21  C   UNL     1       6.357   3.818  13.044  0.00  0.00    +0.000 A 
ATOM     22 CL   UNL     1       6.613   2.832  11.669  0.00  0.00    +0.000 Cl
ATOM     23  N   UNL     1       5.135   3.716  13.596  0.00  0.00    +0.000 NA
ATOM     24  C   UNL     1       4.897   4.468  14.697  0.00  0.00    +0.000 A 
ENDBRANCH  17  18
ENDBRANCH   5  17
TORSDOF 5
ENDMDL
MODEL 9
REMARK VINA RESULT:      -7.3      2.540      3.661
REMARK  Name = 
REMARK  5 active torsions:
REMARK  status: ('A' for Active; 'I' for Inactive)
REMARK    1  A    between atoms: N_2  and  C_4
REMARK    2  A    between atoms: C_4  and  C_11
REMARK    3  A    between atoms: C_5  and  C_6
REMARK    4  A    between atoms: N_15  and  C_16
REMARK    5  A    between atoms: C_16  and  C_17
REMARK                            x       y       z     vdW  Elec       q    Type
REMARK                         _______ _______ _______ _____ _____    ______ ____
ROOT
ATOM      1  C   UNL     1       4.927   4.205  18.149  0.00  0.00    +0.000 C 
ATOM      2  N   UNL     1       5.245   3.255  19.002  0.00  0.00    +0.000 NA
ATOM      3  C   UNL     1       4.218   3.272  20.071  0.00  0.00    +0.000 C 
ATOM      4  C   UNL     1       3.341   4.492  19.822  0.00  0.00    +0.000 C 
ATOM      5  N   UNL     1       3.814   4.945  18.528  0.00  0.00    +0.000 N 
ENDROOT
BRANCH   1   6
ATOM      6  C   UNL     1       5.771   4.412  16.935  0.00  0.00    +0.000 C 
ATOM      7  C   UNL     1       5.349   4.182  15.682  0.00  0.00    +0.000 C 
BRANCH   7   8
ATOM      8  C   UNL     1       6.095   4.289  14.482  0.00  0.00    +0.000 A 
ATOM      9  C   UNL     1       6.072   3.686  13.237  0.00  0.00    +0.000 A 
ATOM     10  C   UNL     1       7.115   4.249  12.459  0.00  0.00    +0.000 A 
ATOM     11  C   UNL     1       7.730   5.203  13.231  0.00  0.00    +0.000 A 
ATOM     12  N   UNL     1       7.092   5.242  14.443  0.00  0.00    +0.000 N 
ATOM     13  H   UNL     1       7.336   5.871  15.198  0.00  0.00    +0.000 HD
ENDBRANCH   7   8
BRANCH   6  15
ATOM     14  O   UNL     1       8.043   4.245  17.210  0.00  0.00    +0.000 OA
ATOM     15  N   UNL     1       7.066   5.006  17.155  0.00  0.00    +0.000 N 
ATOM     16  O   UNL     1       7.095   6.237  17.295  0.00  0.00    +0.000 OA
ENDBRANCH   6  15
ENDBRANCH   1   6
BRANCH   5  17
ATOM     17  C   UNL     1       2.931   5.727  17.678  0.00  0.00    +0.000 C 
BRANCH  17  18
ATOM     18  C   UNL     1       2.416   6.958  18.387  0.00  0.00    +0.000 A 
ATOM     19  C   UNL     1       2.196   8.176  17.736  0.00  0.00    +0.000 A 
ATOM     20  C   UNL     1       1.692   9.270  18.434  0.00  0.00    +0.000 A 
ATOM     21  C   UNL     1       1.436   9.106  19.780  0.00  0.00    +0.000 A 
ATOM     22 CL   UNL     1       0.792  10.390  20.711  0.00  0.00    +0.000 Cl
ATOM     23  N   UNL     1       1.642   7.961  20.456  0.00  0.00    +0.000 NA
ATOM     24  C   UNL     1       2.135   6.916  19.751  0.00  0.00    +0.000 A 
ENDBRANCH  17  18
ENDBRANCH   5  17
TORSDOF 5
ENDMDL
