MODEL 1
REMARK VINA RESULT:      -8.2      0.000      0.000
REMARK  Name = 
REMARK  3 active torsions:
REMARK  status: ('A' for Active; 'I' for Inactive)
REMARK    1  A    between atoms: C_1  and  C_2
REMARK    2  A    between atoms: C_5  and  N_6
REMARK    3  A    between atoms: C_14  and  C_16
REMARK                            x       y       z     vdW  Elec       q    Type
REMARK                         _______ _______ _______ _____ _____    ______ ____
ROOT
ATOM      1  N   UNL     1       0.709  10.642  20.533  0.00  0.00    +0.000 N 
ATOM      2  N   UNL     1       1.341   9.567  19.894  0.00  0.00    +0.000 NA
ATOM      3  C   UNL     1       1.152   8.360  20.360  0.00  0.00    +0.000 A 
ATOM      4  N   UNL     1       1.833   7.249  19.862  0.00  0.00    +0.000 N 
ATOM      5  C   UNL     1       2.664   6.469  20.798  0.00  0.00    +0.000 C 
ATOM      6  C   UNL     1       2.094   5.075  21.022  0.00  0.00    +0.000 C 
ATOM      7  C   UNL     1       1.810   4.285  19.747  0.00  0.00    +0.000 C 
ATOM      8  N   UNL     1       2.656   4.674  18.619  0.00  0.00    +0.000 N 
ATOM      9  C   UNL     1       3.722   3.837  18.278  0.00  0.00    +0.000 C 
ATOM     10  O   UNL     1       3.887   2.722  18.770  0.00  0.00    +0.000 OA
ATOM     11  C   UNL     1       2.166   5.826  17.825  0.00  0.00    +0.000 C 
ATOM     12  C   UNL     1       2.312   7.227  18.472  0.00  0.00    +0.000 C 
ATOM     13  C   UNL     1       0.181   8.083  21.444  0.00  0.00    +0.000 A 
ATOM     14  C   UNL     1      -0.422   9.100  22.041  0.00  0.00    +0.000 A 
ATOM     15  C   UNL     1      -0.148  10.482  21.626  0.00  0.00    +0.000 A 
ATOM     16  O   UNL     1      -0.753  11.349  22.259  0.00  0.00    +0.000 OA
ENDROOT
BRANCH   9  17
ATOM     17  C   UNL     1       4.753   4.304  17.318  0.00  0.00    +0.000 A 
ATOM     18  C   UNL     1       4.923   3.631  16.099  0.00  0.00    +0.000 A 
ATOM     19  C   UNL     1       5.935   4.026  15.220  0.00  0.00    +0.000 A 
ATOM     20  C   UNL     1       6.767   5.092  15.560  0.00  0.00    +0.000 A 
ATOM     21  F   UNL     1       7.722   5.467  14.697  0.00  0.00    +0.000 F 
ATOM     22  C   UNL     1       6.617   5.745  16.780  0.00  0.00    +0.000 A 
ATOM     23 CL   UNL     1       7.629   7.067  17.210  0.00  0.00    +0.000 Cl
ATOM     24  C   UNL     1       5.635   5.327  17.674  0.00  0.00    +0.000 A 
ENDBRANCH   9  17
BRANCH   1  29
ATOM     25  C   UNL     1       1.684  16.021  18.636  0.00  0.00    +0.000 C 
ATOM     26  C   UNL     1       1.472  14.602  19.073  0.00  0.00    +0.000 A 
ATOM     27  C   UNL     1       2.327  14.014  20.002  0.00  0.00    +0.000 A 
ATOM     28  C   UNL     1       2.094  12.707  20.449  0.00  0.00    +0.000 A 
ATOM     29  C   UNL     1       1.005  11.946  19.992  0.00  0.00    +0.000 A 
ATOM     30  C   UNL     1       0.186  12.527  19.013  0.00  0.00    +0.000 A 
ATOM     31  C   UNL     1       0.406  13.846  18.572  0.00  0.00    +0.000 A 
ENDBRANCH   1  29
TORSDOF 2
ENDMDL
MODEL 2
REMARK VINA RESULT:      -8.2      0.978      1.296
REMARK  Name = 
REMARK  3 active torsions:
REMARK  status: ('A' for Active; 'I' for Inactive)
REMARK    1  A    between atoms: C_1  and  C_2
REMARK    2  A    between atoms: C_5  and  N_6
REMARK    3  A    between atoms: C_14  and  C_16
REMARK                            x       y       z     vdW  Elec       q    Type
REMARK                         _______ _______ _______ _____ _____    ______ ____
ROOT
ATOM      1  N   UNL     1       0.763  10.439  20.490  0.00  0.00    +0.000 N 
ATOM      2  N   UNL     1       1.413   9.364  19.869  0.00  0.00    +0.000 NA
ATOM      3  C   UNL     1       1.196   8.154  20.316  0.00  0.00    +0.000 A 
ATOM      4  N   UNL     1       1.889   7.042  19.838  0.00  0.00    +0.000 N 
ATOM      5  C   UNL     1       2.673   6.249  20.801  0.00  0.00    +0.000 C 
ATOM      6  C   UNL     1       2.085   4.857  20.990  0.00  0.00    +0.000 C 
ATOM      7  C   UNL     1       1.848   4.079  19.697  0.00  0.00    +0.000 C 
ATOM      8  N   UNL     1       2.743   4.471  18.609  0.00  0.00    +0.000 N 
ATOM      9  C   UNL     1       3.816   3.628  18.306  0.00  0.00    +0.000 C 
ATOM     10  O   UNL     1       3.953   2.509  18.795  0.00  0.00    +0.000 OA
ATOM     11  C   UNL     1       2.295   5.633  17.805  0.00  0.00    +0.000 C 
ATOM     12  C   UNL     1       2.425   7.027  18.469  0.00  0.00    +0.000 C 
ATOM     13  C   UNL     1       0.179   7.876  21.357  0.00  0.00    +0.000 A 
ATOM     14  C   UNL     1      -0.441   8.894  21.936  0.00  0.00    +0.000 A 
ATOM     15  C   UNL     1      -0.140  10.277  21.544  0.00  0.00    +0.000 A 
ATOM     16  O   UNL     1      -0.764  11.144  22.159  0.00  0.00    +0.000 OA
ENDROOT
BRANCH   9  17
ATOM     17  C   UNL     1       4.890   4.095  17.394  0.00  0.00    +0.000 A 
ATOM     18  C   UNL     1       5.899   4.938  17.884  0.00  0.00    +0.000 A 
ATOM     19  C   UNL     1       6.876   5.433  17.015  0.00  0.00    +0.000 A 
ATOM     20  C   UNL     1       6.843   5.079  15.667  0.00  0.00    +0.000 A 
ATOM     21  F   UNL     1       7.799   5.550  14.852  0.00  0.00    +0.000 F 
ATOM     22  C   UNL     1       5.829   4.262  15.174  0.00  0.00    +0.000 A 
ATOM     23 CL   UNL     1       5.780   3.810  13.516  0.00  0.00    +0.000 Cl
ATOM     24  C   UNL     1       4.833   3.802  16.030  0.00  0.00    +0.000 A 
ENDBRANCH   9  17
BRANCH   1  29
ATOM     25  C   UNL     1       1.828  15.822  18.653  0.00  0.00    +0.000 C 
ATOM     26  C   UNL     1       1.600  14.403  19.081  0.00  0.00    +0.000 A 
ATOM     27  C   UNL     1       2.338  13.853  20.126  0.00  0.00    +0.000 A 
ATOM     28  C   UNL     1       2.085  12.545  20.560  0.00  0.00    +0.000 A 
ATOM     29  C   UNL     1       1.091  11.744  19.972  0.00  0.00    +0.000 A 
ATOM     30  C   UNL     1       0.396  12.288  18.882  0.00  0.00    +0.000 A 
ATOM     31  C   UNL     1       0.635  13.607  18.454  0.00  0.00    +0.000 A 
ENDBRANCH   1  29
TORSDOF 2
ENDMDL
MODEL 3
REMARK VINA RESULT:      -7.4      1.024      1.584
REMARK  Name = 
REMARK  3 active torsions:
REMARK  status: ('A' for Active; 'I' for Inactive)
REMARK    1  A    between atoms: C_1  and  C_2
REMARK    2  A    between atoms: C_5  and  N_6
REMARK    3  A    between atoms: C_14  and  C_16
REMARK                            x       y       z     vdW  Elec       q    Type
REMARK                         _______ _______ _______ _____ _____    ______ ____
ROOT
ATOM      1  N   UNL     1       0.703  11.045  20.493  0.00  0.00    +0.000 N 
ATOM      2  N   UNL     1       1.329   9.929  19.921  0.00  0.00    +0.000 NA
ATOM      3  C   UNL     1       1.013   8.737  20.357  0.00  0.00    +0.000 A 
ATOM      4  N   UNL     1       1.670   7.584  19.930  0.00  0.00    +0.000 N 
ATOM      5  C   UNL     1       2.342   6.754  20.947  0.00  0.00    +0.000 C 
ATOM      6  C   UNL     1       1.662   5.400  21.101  0.00  0.00    +0.000 C 
ATOM      7  C   UNL     1       1.467   4.627  19.798  0.00  0.00    +0.000 C 
ATOM      8  N   UNL     1       2.454   4.959  18.771  0.00  0.00    +0.000 N 
ATOM      9  C   UNL     1       3.494   4.053  18.543  0.00  0.00    +0.000 C 
ATOM     10  O   UNL     1       3.533   2.931  19.045  0.00  0.00    +0.000 OA
ATOM     11  C   UNL     1       2.129   6.138  17.934  0.00  0.00    +0.000 C 
ATOM     12  C   UNL     1       2.294   7.528  18.601  0.00  0.00    +0.000 C 
ATOM     13  C   UNL     1      -0.086   8.527  21.328  0.00  0.00    +0.000 A 
ATOM     14  C   UNL     1      -0.683   9.582  21.861  0.00  0.00    +0.000 A 
ATOM     15  C   UNL     1      -0.276  10.943  21.486  0.00  0.00    +0.000 A 
ATOM     16  O   UNL     1      -0.889  11.849  22.054  0.00  0.00    +0.000 OA
ENDROOT
BRANCH   9  17
ATOM     17  C   UNL     1       4.652   4.450  17.704  0.00  0.00    +0.000 A 
ATOM     18  C   UNL     1       5.537   5.437  18.163  0.00  0.00    +0.000 A 
ATOM     19  C   UNL     1       6.591   5.861  17.349  0.00  0.00    +0.000 A 
ATOM     20  C   UNL     1       6.758   5.295  16.086  0.00  0.00    +0.000 A 
ATOM     21  F   UNL     1       7.785   5.703  15.327  0.00  0.00    +0.000 F 
ATOM     22  C   UNL     1       5.867   4.333  15.618  0.00  0.00    +0.000 A 
ATOM     23 CL   UNL     1       6.065   3.620  14.067  0.00  0.00    +0.000 Cl
ATOM     24  C   UNL     1       4.793   3.939  16.412  0.00  0.00    +0.000 A 
ENDBRANCH   9  17
BRANCH   1  29
ATOM     25  C   UNL     1       2.567  16.007  18.174  0.00  0.00    +0.000 C 
ATOM     26  C   UNL     1       2.065  14.758  18.834  0.00  0.00    +0.000 A 
ATOM     27  C   UNL     1       0.753  14.334  18.637  0.00  0.00    +0.000 A 
ATOM     28  C   UNL     1       0.302  13.138  19.210  0.00  0.00    +0.000 A 
ATOM     29  C   UNL     1       1.139  12.325  19.994  0.00  0.00    +0.000 A 
ATOM     30  C   UNL     1       2.439  12.792  20.234  0.00  0.00    +0.000 A 
ATOM     31  C   UNL     1       2.902  13.985  19.646  0.00  0.00    +0.000 A 
ENDBRANCH   1  29
TORSDOF 2
ENDMDL
MODEL 4
REMARK VINA RESULT:      -7.2      4.943     10.201
REMARK  Name = 
REMARK  3 active torsions:
REMARK  status: ('A' for Active; 'I' for Inactive)
REMARK    1  A    between atoms: C_1  and  C_2
REMARK    2  A    between atoms: C_5  and  N_6
REMARK    3  A    between atoms: C_14  and  C_16
REMARK                            x       y       z     vdW  Elec       q    Type
REMARK                         _______ _______ _______ _____ _____    ______ ____
ROOT
ATOM      1  N   UNL     1       2.256   7.044  18.918  0.00  0.00    +0.000 N 
ATOM      2  N   UNL     1       1.368   8.052  19.315  0.00  0.00    +0.000 NA
ATOM      3  C   UNL     1       1.475   9.236  18.769  0.00  0.00    +0.000 A 
ATOM      4  N   UNL     1       0.715  10.327  19.188  0.00  0.00    +0.000 N 
ATOM      5  C   UNL     1       1.428  11.520  19.678  0.00  0.00    +0.000 C 
ATOM      6  C   UNL     1       1.238  12.708  18.744  0.00  0.00    +0.000 C 
ATOM      7  C   UNL     1      -0.215  13.034  18.408  0.00  0.00    +0.000 C 
ATOM      8  N   UNL     1      -1.160  12.623  19.445  0.00  0.00    +0.000 N 
ATOM      9  C   UNL     1      -1.680  13.609  20.288  0.00  0.00    +0.000 C 
ATOM     10  O   UNL     1      -1.510  14.812  20.102  0.00  0.00    +0.000 OA
ATOM     11  C   UNL     1      -1.623  11.217  19.363  0.00  0.00    +0.000 C 
ATOM     12  C   UNL     1      -0.608  10.127  19.795  0.00  0.00    +0.000 C 
ATOM     13  C   UNL     1       2.405   9.497  17.645  0.00  0.00    +0.000 A 
ATOM     14  C   UNL     1       3.237   8.538  17.265  0.00  0.00    +0.000 A 
ATOM     15  C   UNL     1       3.230   7.231  17.933  0.00  0.00    +0.000 A 
ATOM     16  O   UNL     1       4.056   6.421  17.508  0.00  0.00    +0.000 OA
ENDROOT
BRANCH   9  17
ATOM     17  C   UNL     1      -2.435  13.221  21.505  0.00  0.00    +0.000 A 
ATOM     18  C   UNL     1      -1.757  12.641  22.588  0.00  0.00    +0.000 A 
ATOM     19  C   UNL     1      -2.472  12.215  23.711  0.00  0.00    +0.000 A 
ATOM     20  C   UNL     1      -3.857  12.374  23.748  0.00  0.00    +0.000 A 
ATOM     21  F   UNL     1      -4.524  11.973  24.840  0.00  0.00    +0.000 F 
ATOM     22  C   UNL     1      -4.535  12.926  22.665  0.00  0.00    +0.000 A 
ATOM     23 CL   UNL     1      -6.241  13.136  22.699  0.00  0.00    +0.000 Cl
ATOM     24  C   UNL     1      -3.829  13.314  21.529  0.00  0.00    +0.000 A 
ENDBRANCH   9  17
BRANCH   1  29
ATOM     25  C   UNL     1       1.321   2.102  21.780  0.00  0.00    +0.000 C 
ATOM     26  C   UNL     1       1.627   3.357  21.018  0.00  0.00    +0.000 A 
ATOM     27  C   UNL     1       1.224   3.494  19.691  0.00  0.00    +0.000 A 
ATOM     28  C   UNL     1       1.463   4.687  18.999  0.00  0.00    +0.000 A 
ATOM     29  C   UNL     1       2.107   5.782  19.600  0.00  0.00    +0.000 A 
ATOM     30  C   UNL     1       2.560   5.611  20.916  0.00  0.00    +0.000 A 
ATOM     31  C   UNL     1       2.308   4.420  21.622  0.00  0.00    +0.000 A 
ENDBRANCH   1  29
TORSDOF 2
ENDMDL
MODEL 5
REMARK VINA RESULT:      -7.1      4.592      9.452
REMARK  Name = 
REMARK  3 active torsions:
REMARK  status: ('A' for Active; 'I' for Inactive)
REMARK    1  A    between atoms: C_1  and  C_2
REMARK    2  A    between atoms: C_5  and  N_6
REMARK    3  A    between atoms: C_14  and  C_16
REMARK                            x       y       z     vdW  Elec       q    Type
REMARK                         _______ _______ _______ _____ _____    ______ ____
ROOT
ATOM      1  N   UNL     1       0.817  11.127  19.008  0.00  0.00    +0.000 N 
ATOM      2  N   UNL     1       1.787  12.065  19.386  0.00  0.00    +0.000 NA
ATOM      3  C   UNL     1       1.506  13.338  19.279  0.00  0.00    +0.000 A 
ATOM      4  N   UNL     1       2.450  14.336  19.518  0.00  0.00    +0.000 N 
ATOM      5  C   UNL     1       2.761  15.271  18.421  0.00  0.00    +0.000 C 
ATOM      6  C   UNL     1       2.295  16.685  18.742  0.00  0.00    +0.000 C 
ATOM      7  C   UNL     1       2.776  17.230  20.085  0.00  0.00    +0.000 C 
ATOM      8  N   UNL     1       4.035  16.639  20.537  0.00  0.00    +0.000 N 
ATOM      9  C   UNL     1       5.202  17.396  20.402  0.00  0.00    +0.000 C 
ATOM     10  O   UNL     1       5.202  18.581  20.075  0.00  0.00    +0.000 OA
ATOM     11  C   UNL     1       3.906  15.363  21.281  0.00  0.00    +0.000 C 
ATOM     12  C   UNL     1       3.567  14.103  20.443  0.00  0.00    +0.000 C 
ATOM     13  C   UNL     1       0.151  13.811  18.910  0.00  0.00    +0.000 A 
ATOM     14  C   UNL     1      -0.767  12.922  18.562  0.00  0.00    +0.000 A 
ATOM     15  C   UNL     1      -0.456  11.486  18.556  0.00  0.00    +0.000 A 
ATOM     16  O   UNL     1      -1.379  10.751  18.202  0.00  0.00    +0.000 OA
ENDROOT
BRANCH   9  17
ATOM     17  C   UNL     1       6.527  16.758  20.605  0.00  0.00    +0.000 A 
ATOM     18  C   UNL     1       7.266  17.045  21.762  0.00  0.00    +0.000 A 
ATOM     19  C   UNL     1       8.541  16.498  21.928  0.00  0.00    +0.000 A 
ATOM     20  C   UNL     1       9.068  15.665  20.942  0.00  0.00    +0.000 A 
ATOM     21  F   UNL     1      10.286  15.137  21.126  0.00  0.00    +0.000 F 
ATOM     22  C   UNL     1       8.347  15.399  19.782  0.00  0.00    +0.000 A 
ATOM     23 CL   UNL     1       8.979  14.367  18.560  0.00  0.00    +0.000 Cl
ATOM     24  C   UNL     1       7.093  15.975  19.597  0.00  0.00    +0.000 A 
ENDBRANCH   9  17
BRANCH   1  29
ATOM     25  C   UNL     1       2.768   5.704  19.526  0.00  0.00    +0.000 C 
ATOM     26  C   UNL     1       2.198   7.082  19.370  0.00  0.00    +0.000 A 
ATOM     27  C   UNL     1       1.588   7.721  20.447  0.00  0.00    +0.000 A 
ATOM     28  C   UNL     1       1.106   9.029  20.314  0.00  0.00    +0.000 A 
ATOM     29  C   UNL     1       1.218   9.745  19.110  0.00  0.00    +0.000 A 
ATOM     30  C   UNL     1       1.780   9.071  18.017  0.00  0.00    +0.000 A 
ATOM     31  C   UNL     1       2.281   7.762  18.150  0.00  0.00    +0.000 A 
ENDBRANCH   1  29
TORSDOF 2
ENDMDL
MODEL 6
REMARK VINA RESULT:      -7.1      6.528     10.090
REMARK  Name = 
REMARK  3 active torsions:
REMARK  status: ('A' for Active; 'I' for Inactive)
REMARK    1  A    between atoms: C_1  and  C_2
REMARK    2  A    between atoms: C_5  and  N_6
REMARK    3  A    between atoms: C_14  and  C_16
REMARK                            x       y       z     vdW  Elec       q    Type
REMARK                         _______ _______ _______ _____ _____    ______ ____
ROOT
ATOM      1  N   UNL     1       7.913  15.344  19.063  0.00  0.00    +0.000 N 
ATOM      2  N   UNL     1       6.576  14.923  19.067  0.00  0.00    +0.000 NA
ATOM      3  C   UNL     1       5.631  15.827  19.079  0.00  0.00    +0.000 A 
ATOM      4  N   UNL     1       4.282  15.499  19.204  0.00  0.00    +0.000 N 
ATOM      5  C   UNL     1       3.537  16.055  20.349  0.00  0.00    +0.000 C 
ATOM      6  C   UNL     1       2.477  17.050  19.897  0.00  0.00    +0.000 C 
ATOM      7  C   UNL     1       1.526  16.530  18.820  0.00  0.00    +0.000 C 
ATOM      8  N   UNL     1       1.359  15.077  18.843  0.00  0.00    +0.000 N 
ATOM      9  C   UNL     1       0.183  14.560  19.395  0.00  0.00    +0.000 C 
ATOM     10  O   UNL     1      -0.777  15.260  19.712  0.00  0.00    +0.000 OA
ATOM     11  C   UNL     1       2.378  14.308  18.090  0.00  0.00    +0.000 C 
ATOM     12  C   UNL     1       3.782  14.198  18.737  0.00  0.00    +0.000 C 
ATOM     13  C   UNL     1       5.930  17.272  18.943  0.00  0.00    +0.000 A 
ATOM     14  C   UNL     1       7.194  17.667  18.930  0.00  0.00    +0.000 A 
ATOM     15  C   UNL     1       8.287  16.691  19.033  0.00  0.00    +0.000 A 
ATOM     16  O   UNL     1       9.422  17.171  19.026  0.00  0.00    +0.000 OA
ENDROOT
BRANCH   9  17
ATOM     17  C   UNL     1       0.071  13.107  19.673  0.00  0.00    +0.000 A 
ATOM     18  C   UNL     1       0.813  12.542  20.722  0.00  0.00    +0.000 A 
ATOM     19  C   UNL     1       0.761  11.164  20.948  0.00  0.00    +0.000 A 
ATOM     20  C   UNL     1      -0.031  10.360  20.130  0.00  0.00    +0.000 A 
ATOM     21  F   UNL     1      -0.081   9.042  20.373  0.00  0.00    +0.000 F 
ATOM     22  C   UNL     1      -0.748  10.914  19.074  0.00  0.00    +0.000 A 
ATOM     23 CL   UNL     1      -1.737   9.937  18.062  0.00  0.00    +0.000 Cl
ATOM     24  C   UNL     1      -0.667  12.281  18.822  0.00  0.00    +0.000 A 
ENDBRANCH   9  17
BRANCH   1  29
ATOM     25  C   UNL     1      12.121  11.373  19.137  0.00  0.00    +0.000 C 
ATOM     26  C   UNL     1      10.982  12.349  19.129  0.00  0.00    +0.000 A 
ATOM     27  C   UNL     1      10.595  12.993  20.302  0.00  0.00    +0.000 A 
ATOM     28  C   UNL     1       9.568  13.944  20.282  0.00  0.00    +0.000 A 
ATOM     29  C   UNL     1       8.896  14.290  19.098  0.00  0.00    +0.000 A 
ATOM     30  C   UNL     1       9.253  13.593  17.935  0.00  0.00    +0.000 A 
ATOM     31  C   UNL     1      10.296  12.647  17.947  0.00  0.00    +0.000 A 
ENDBRANCH   1  29
TORSDOF 2
ENDMDL
MODEL 7
REMARK VINA RESULT:      -7.0      6.291      9.720
REMARK  Name = 
REMARK  3 active torsions:
REMARK  status: ('A' for Active; 'I' for Inactive)
REMARK    1  A    between atoms: C_1  and  C_2
REMARK    2  A    between atoms: C_5  and  N_6
REMARK    3  A    between atoms: C_14  and  C_16
REMARK                            x       y       z     vdW  Elec       q    Type
REMARK                         _______ _______ _______ _____ _____    ______ ____
ROOT
ATOM      1  N   UNL     1       7.423  15.180  19.100  0.00  0.00    +0.000 N 
ATOM      2  N   UNL     1       6.122  14.661  19.158  0.00  0.00    +0.000 NA
ATOM      3  C   UNL     1       5.112  15.492  19.157  0.00  0.00    +0.000 A 
ATOM      4  N   UNL     1       3.795  15.071  19.331  0.00  0.00    +0.000 N 
ATOM      5  C   UNL     1       3.037  15.621  20.470  0.00  0.00    +0.000 C 
ATOM      6  C   UNL     1       1.895  16.513  20.004  0.00  0.00    +0.000 C 
ATOM      7  C   UNL     1       0.961  15.876  18.977  0.00  0.00    +0.000 C 
ATOM      8  N   UNL     1       0.904  14.418  19.067  0.00  0.00    +0.000 N 
ATOM      9  C   UNL     1      -0.216  13.840  19.671  0.00  0.00    +0.000 C 
ATOM     10  O   UNL     1      -1.218  14.481  19.983  0.00  0.00    +0.000 OA
ATOM     11  C   UNL     1       1.960  13.693  18.320  0.00  0.00    +0.000 C 
ATOM     12  C   UNL     1       3.383  13.717  18.934  0.00  0.00    +0.000 C 
ATOM     13  C   UNL     1       5.298  16.947  18.950  0.00  0.00    +0.000 A 
ATOM     14  C   UNL     1       6.529  17.435  18.887  0.00  0.00    +0.000 A 
ATOM     15  C   UNL     1       7.693  16.547  19.002  0.00  0.00    +0.000 A 
ATOM     16  O   UNL     1       8.788  17.110  18.944  0.00  0.00    +0.000 OA
ENDROOT
BRANCH   9  17
ATOM     17  C   UNL     1      -0.212  12.396  20.015  0.00  0.00    +0.000 A 
ATOM     18  C   UNL     1      -0.214  11.439  18.990  0.00  0.00    +0.000 A 
ATOM     19  C   UNL     1      -0.274  10.079  19.307  0.00  0.00    +0.000 A 
ATOM     20  C   UNL     1      -0.327   9.684  20.643  0.00  0.00    +0.000 A 
ATOM     21  F   UNL     1      -0.368   8.374  20.928  0.00  0.00    +0.000 F 
ATOM     22  C   UNL     1      -0.350  10.633  21.661  0.00  0.00    +0.000 A 
ATOM     23 CL   UNL     1      -0.405  10.162  23.314  0.00  0.00    +0.000 Cl
ATOM     24  C   UNL     1      -0.330  11.989  21.345  0.00  0.00    +0.000 A 
ENDBRANCH   9  17
BRANCH   1  29
ATOM     25  C   UNL     1      11.919  11.540  19.238  0.00  0.00    +0.000 C 
ATOM     26  C   UNL     1      10.710  12.427  19.216  0.00  0.00    +0.000 A 
ATOM     27  C   UNL     1      10.293  13.081  20.373  0.00  0.00    +0.000 A 
ATOM     28  C   UNL     1       9.197  13.952  20.338  0.00  0.00    +0.000 A 
ATOM     29  C   UNL     1       8.483  14.203  19.154  0.00  0.00    +0.000 A 
ATOM     30  C   UNL     1       8.875  13.494  18.010  0.00  0.00    +0.000 A 
ATOM     31  C   UNL     1       9.986  12.631  18.036  0.00  0.00    +0.000 A 
ENDBRANCH   1  29
TORSDOF 2
ENDMDL
MODEL 8
REMARK VINA RESULT:      -7.0      4.824      9.546
REMARK  Name = 
REMARK  3 active torsions:
REMARK  status: ('A' for Active; 'I' for Inactive)
REMARK    1  A    between atoms: C_1  and  C_2
REMARK    2  A    between atoms: C_5  and  N_6
REMARK    3  A    between atoms: C_14  and  C_16
REMARK                            x       y       z     vdW  Elec       q    Type
REMARK                         _______ _______ _______ _____ _____    ______ ____
ROOT
ATOM      1  N   UNL     1       0.832  11.168  19.017  0.00  0.00    +0.000 N 
ATOM      2  N   UNL     1       1.795  12.109  19.405  0.00  0.00    +0.000 NA
ATOM      3  C   UNL     1       1.516  13.381  19.287  0.00  0.00    +0.000 A 
ATOM      4  N   UNL     1       2.455  14.382  19.536  0.00  0.00    +0.000 N 
ATOM      5  C   UNL     1       2.783  15.312  18.440  0.00  0.00    +0.000 C 
ATOM      6  C   UNL     1       2.311  16.727  18.746  0.00  0.00    +0.000 C 
ATOM      7  C   UNL     1       2.770  17.279  20.094  0.00  0.00    +0.000 C 
ATOM      8  N   UNL     1       4.022  16.690  20.569  0.00  0.00    +0.000 N 
ATOM      9  C   UNL     1       5.191  17.447  20.449  0.00  0.00    +0.000 C 
ATOM     10  O   UNL     1       5.195  18.631  20.116  0.00  0.00    +0.000 OA
ATOM     11  C   UNL     1       3.883  15.418  21.317  0.00  0.00    +0.000 C 
ATOM     12  C   UNL     1       3.557  14.154  20.481  0.00  0.00    +0.000 C 
ATOM     13  C   UNL     1       0.166  13.852  18.895  0.00  0.00    +0.000 A 
ATOM     14  C   UNL     1      -0.745  12.960  18.537  0.00  0.00    +0.000 A 
ATOM     15  C   UNL     1      -0.434  11.525  18.543  0.00  0.00    +0.000 A 
ATOM     16  O   UNL     1      -1.351  10.788  18.177  0.00  0.00    +0.000 OA
ENDROOT
BRANCH   9  17
ATOM     17  C   UNL     1       6.512  16.811  20.676  0.00  0.00    +0.000 A 
ATOM     18  C   UNL     1       7.088  16.028  19.665  0.00  0.00    +0.000 A 
ATOM     19  C   UNL     1       8.302  15.374  19.896  0.00  0.00    +0.000 A 
ATOM     20  C   UNL     1       8.934  15.510  21.132  0.00  0.00    +0.000 A 
ATOM     21  F   UNL     1      10.106  14.889  21.329  0.00  0.00    +0.000 F 
ATOM     22  C   UNL     1       8.353  16.267  22.145  0.00  0.00    +0.000 A 
ATOM     23 CL   UNL     1       9.124  16.452  23.670  0.00  0.00    +0.000 Cl
ATOM     24  C   UNL     1       7.124  16.886  21.929  0.00  0.00    +0.000 A 
ENDBRANCH   9  17
BRANCH   1  29
ATOM     25  C   UNL     1       2.776   5.749  19.596  0.00  0.00    +0.000 C 
ATOM     26  C   UNL     1       2.209   7.127  19.423  0.00  0.00    +0.000 A 
ATOM     27  C   UNL     1       1.572   7.767  20.483  0.00  0.00    +0.000 A 
ATOM     28  C   UNL     1       1.092   9.074  20.335  0.00  0.00    +0.000 A 
ATOM     29  C   UNL     1       1.233   9.788  19.132  0.00  0.00    +0.000 A 
ATOM     30  C   UNL     1       1.823   9.112  18.055  0.00  0.00    +0.000 A 
ATOM     31  C   UNL     1       2.321   7.804  18.203  0.00  0.00    +0.000 A 
ENDBRANCH   1  29
TORSDOF 2
ENDMDL
MODEL 9
REMARK VINA RESULT:      -6.8      4.374     10.102
REMARK  Name = 
REMARK  3 active torsions:
REMARK  status: ('A' for Active; 'I' for Inactive)
REMARK    1  A    between atoms: C_1  and  C_2
REMARK    2  A    between atoms: C_5  and  N_6
REMARK    3  A    between atoms: C_14  and  C_16
REMARK                            x       y       z     vdW  Elec       q    Type
REMARK                         _______ _______ _______ _____ _____    ______ ____
ROOT
ATOM      1  N   UNL     1       0.290   9.953  21.128  0.00  0.00    +0.000 N 
ATOM      2  N   UNL     1       0.271  11.316  20.802  0.00  0.00    +0.000 NA
ATOM      3  C   UNL     1      -0.464  12.125  21.521  0.00  0.00    +0.000 A 
ATOM      4  N   UNL     1      -0.635  13.470  21.198  0.00  0.00    +0.000 N 
ATOM      5  C   UNL     1      -2.006  13.953  20.951  0.00  0.00    +0.000 C 
ATOM      6  C   UNL     1      -2.455  14.935  22.026  0.00  0.00    +0.000 C 
ATOM      7  C   UNL     1      -1.497  16.097  22.274  0.00  0.00    +0.000 C 
ATOM      8  N   UNL     1      -0.685  16.444  21.108  0.00  0.00    +0.000 N 
ATOM      9  C   UNL     1      -1.043  17.578  20.373  0.00  0.00    +0.000 C 
ATOM     10  O   UNL     1      -1.897  18.380  20.745  0.00  0.00    +0.000 OA
ATOM     11  C   UNL     1       0.562  15.659  20.945  0.00  0.00    +0.000 C 
ATOM     12  C   UNL     1       0.401  14.198  20.452  0.00  0.00    +0.000 C 
ATOM     13  C   UNL     1      -1.155  11.668  22.750  0.00  0.00    +0.000 A 
ATOM     14  C   UNL     1      -1.128  10.380  23.060  0.00  0.00    +0.000 A 
ATOM     15  C   UNL     1      -0.411   9.419  22.212  0.00  0.00    +0.000 A 
ATOM     16  O   UNL     1      -0.465   8.247  22.588  0.00  0.00    +0.000 OA
ENDROOT
BRANCH   9  17
ATOM     17  C   UNL     1      -0.419  17.830  19.050  0.00  0.00    +0.000 A 
ATOM     18  C   UNL     1      -1.168  18.447  18.036  0.00  0.00    +0.000 A 
ATOM     19  C   UNL     1      -0.607  18.629  16.769  0.00  0.00    +0.000 A 
ATOM     20  C   UNL     1       0.696  18.199  16.523  0.00  0.00    +0.000 A 
ATOM     21  F   UNL     1       1.223  18.397  15.306  0.00  0.00    +0.000 F 
ATOM     22  C   UNL     1       1.432  17.565  17.520  0.00  0.00    +0.000 A 
ATOM     23 CL   UNL     1       3.043  17.037  17.235  0.00  0.00    +0.000 Cl
ATOM     24  C   UNL     1       0.861  17.347  18.771  0.00  0.00    +0.000 A 
ENDBRANCH   9  17
BRANCH   1  29
ATOM     25  C   UNL     1       3.160   6.432  17.544  0.00  0.00    +0.000 C 
ATOM     26  C   UNL     1       2.480   7.375  18.490  0.00  0.00    +0.000 A 
ATOM     27  C   UNL     1       1.983   8.595  18.037  0.00  0.00    +0.000 A 
ATOM     28  C   UNL     1       1.300   9.450  18.911  0.00  0.00    +0.000 A 
ATOM     29  C   UNL     1       1.085   9.120  20.260  0.00  0.00    +0.000 A 
ATOM     30  C   UNL     1       1.641   7.917  20.718  0.00  0.00    +0.000 A 
ATOM     31  C   UNL     1       2.314   7.047  19.840  0.00  0.00    +0.000 A 
ENDBRANCH   1  29
TORSDOF 2
ENDMDL
