MODEL 1
REMARK VINA RESULT:      -9.2      0.000      0.000
REMARK  Name = 
REMARK  7 active torsions:
REMARK  status: ('A' for Active; 'I' for Inactive)
REMARK    1  A    between atoms: C_2  and  C_3
REMARK    2  A    between atoms: C_2  and  C_15
REMARK    3  A    between atoms: C_4  and  C_5
REMARK    4  A    between atoms: C_10  and  N_11
REMARK    5  A    between atoms: C_16  and  C_17
REMARK    6  A    between atoms: C_22  and  O_23
REMARK    7  A    between atoms: O_23  and  C_24
REMARK                            x       y       z     vdW  Elec       q    Type
REMARK                         _______ _______ _______ _____ _____    ______ ____
ROOT
ATOM      1  C   UNL     1       0.049  10.395  20.973  0.00  0.00    +0.000 A 
ATOM      2  C   UNL     1       0.255   9.315  21.863  0.00  0.00    +0.000 A 
ATOM      3  C   UNL     1      -0.292   9.345  23.136  0.00  0.00    +0.000 A 
ATOM      4  C   UNL     1      -1.024  10.467  23.522  0.00  0.00    +0.000 A 
ATOM      5  C   UNL     1      -1.288  11.521  22.613  0.00  0.00    +0.000 A 
ATOM      6  C   UNL     1      -0.779  11.495  21.306  0.00  0.00    +0.000 A 
ENDROOT
BRANCH   1   8
ATOM      7  C   UNL     1       0.834   9.477  18.931  0.00  0.00    +0.000 C 
ATOM      8  C   UNL     1       0.931  10.479  19.816  0.00  0.00    +0.000 C 
BRANCH   7  10
ATOM      9  O   UNL     1       2.306  10.240  17.236  0.00  0.00    +0.000 OA
ATOM     10  C   UNL     1       1.875   9.319  17.898  0.00  0.00    +0.000 C 
BRANCH  10  11
ATOM     11  C   UNL     1       2.402   7.937  17.819  0.00  0.00    +0.000 C 
ATOM     12  C   UNL     1       2.493   7.205  18.938  0.00  0.00    +0.000 C 
BRANCH  12  13
ATOM     13  C   UNL     1       2.863   5.800  18.841  0.00  0.00    +0.000 A 
ATOM     14  C   UNL     1       3.392   5.278  17.658  0.00  0.00    +0.000 A 
ATOM     15  C   UNL     1       3.640   3.905  17.543  0.00  0.00    +0.000 A 
ATOM     16  C   UNL     1       3.353   3.043  18.608  0.00  0.00    +0.000 A 
ATOM     17 CL   UNL     1       3.607   1.354  18.362  0.00  0.00    +0.000 Cl
ATOM     18  C   UNL     1       2.836   3.581  19.785  0.00  0.00    +0.000 A 
ATOM     19  C   UNL     1       2.591   4.953  19.918  0.00  0.00    +0.000 A 
BRANCH  18  20
ATOM     20  N   UNL     1       2.479   2.740  20.900  0.00  0.00    +0.000 N 
ATOM     21  O   UNL     1       3.414   2.315  21.615  0.00  0.00    +0.000 OA
ATOM     22  O   UNL     1       1.281   2.546  21.102  0.00  0.00    +0.000 OA
ENDBRANCH  18  20
ENDBRANCH  12  13
ENDBRANCH  10  11
ENDBRANCH   7  10
ENDBRANCH   1   8
BRANCH   6  23
ATOM     23  O   UNL     1      -1.100  12.415  20.281  0.00  0.00    +0.000 OA
BRANCH  23  24
ATOM     24  C   UNL     1      -2.433  12.640  19.923  0.00  0.00    +0.000 A 
ATOM     25  N   UNL     1      -3.084  13.559  20.655  0.00  0.00    +0.000 NA
ATOM     26  C   UNL     1      -4.383  13.685  20.396  0.00  0.00    +0.000 A 
ATOM     27  N   UNL     1      -5.113  12.856  19.653  0.00  0.00    +0.000 NA
ATOM     28  C   UNL     1      -4.450  12.039  18.850  0.00  0.00    +0.000 A 
ATOM     29  C   UNL     1      -5.244  11.317  17.969  0.00  0.00    +0.000 A 
ATOM     30  C   UNL     1      -4.717  10.756  16.817  0.00  0.00    +0.000 A 
ATOM     31  C   UNL     1      -3.356  10.891  16.589  0.00  0.00    +0.000 A 
ATOM     32 CL   UNL     1      -2.762  10.514  15.015  0.00  0.00    +0.000 Cl
ATOM     33  C   UNL     1      -2.507  11.420  17.588  0.00  0.00    +0.000 A 
ATOM     34  C   UNL     1      -3.047  11.995  18.793  0.00  0.00    +0.000 A 
ENDBRANCH  23  24
ENDBRANCH   6  23
TORSDOF 7
ENDMDL
MODEL 2
REMARK VINA RESULT:      -9.1      3.220      9.956
REMARK  Name = 
REMARK  7 active torsions:
REMARK  status: ('A' for Active; 'I' for Inactive)
REMARK    1  A    between atoms: C_2  and  C_3
REMARK    2  A    between atoms: C_2  and  C_15
REMARK    3  A    between atoms: C_4  and  C_5
REMARK    4  A    between atoms: C_10  and  N_11
REMARK    5  A    between atoms: C_16  and  C_17
REMARK    6  A    between atoms: C_22  and  O_23
REMARK    7  A    between atoms: O_23  and  C_24
REMARK                            x       y       z     vdW  Elec       q    Type
REMARK                         _______ _______ _______ _____ _____    ______ ____
ROOT
ATOM      1  C   UNL     1       2.634   4.882  19.263  0.00  0.00    +0.000 A 
ATOM      2  C   UNL     1       2.216   5.024  20.608  0.00  0.00    +0.000 A 
ATOM      3  C   UNL     1       2.127   3.914  21.432  0.00  0.00    +0.000 A 
ATOM      4  C   UNL     1       2.432   2.661  20.901  0.00  0.00    +0.000 A 
ATOM      5  C   UNL     1       2.912   2.523  19.575  0.00  0.00    +0.000 A 
ATOM      6  C   UNL     1       3.050   3.636  18.734  0.00  0.00    +0.000 A 
ENDROOT
BRANCH   1   8
ATOM      7  C   UNL     1       2.774   7.200  18.775  0.00  0.00    +0.000 C 
ATOM      8  C   UNL     1       2.359   5.994  18.362  0.00  0.00    +0.000 C 
BRANCH   7  10
ATOM      9  O   UNL     1       2.530   8.660  16.924  0.00  0.00    +0.000 OA
ATOM     10  C   UNL     1       2.288   8.409  18.086  0.00  0.00    +0.000 C 
BRANCH  10  11
ATOM     11  C   UNL     1       1.398   9.237  18.934  0.00  0.00    +0.000 C 
ATOM     12  C   UNL     1       0.480  10.020  18.350  0.00  0.00    +0.000 C 
BRANCH  12  13
ATOM     13  C   UNL     1      -0.496  10.713  19.181  0.00  0.00    +0.000 A 
ATOM     14  C   UNL     1      -1.585  11.372  18.608  0.00  0.00    +0.000 A 
ATOM     15  C   UNL     1      -2.452  12.126  19.407  0.00  0.00    +0.000 A 
ATOM     16  C   UNL     1      -2.231  12.233  20.785  0.00  0.00    +0.000 A 
ATOM     17 CL   UNL     1      -3.292  13.247  21.691  0.00  0.00    +0.000 Cl
ATOM     18  C   UNL     1      -1.145  11.561  21.343  0.00  0.00    +0.000 A 
ATOM     19  C   UNL     1      -0.275  10.795  20.557  0.00  0.00    +0.000 A 
BRANCH  18  20
ATOM     20  N   UNL     1      -0.838  11.667  22.748  0.00  0.00    +0.000 N 
ATOM     21  O   UNL     1      -0.594  12.811  23.192  0.00  0.00    +0.000 OA
ATOM     22  O   UNL     1      -0.894  10.637  23.419  0.00  0.00    +0.000 OA
ENDBRANCH  18  20
ENDBRANCH  12  13
ENDBRANCH  10  11
ENDBRANCH   7  10
ENDBRANCH   1   8
BRANCH   6  23
ATOM     23  O   UNL     1       3.653   3.629  17.454  0.00  0.00    +0.000 OA
BRANCH  23  24
ATOM     24  C   UNL     1       4.992   4.000  17.300  0.00  0.00    +0.000 A 
ATOM     25  N   UNL     1       5.695   4.127  18.437  0.00  0.00    +0.000 NA
ATOM     26  C   UNL     1       6.931   4.598  18.300  0.00  0.00    +0.000 A 
ATOM     27  N   UNL     1       7.441   5.139  17.195  0.00  0.00    +0.000 NA
ATOM     28  C   UNL     1       6.794   4.901  16.065  0.00  0.00    +0.000 A 
ATOM     29  C   UNL     1       7.447   5.332  14.918  0.00  0.00    +0.000 A 
ATOM     30  C   UNL     1       7.137   4.811  13.672  0.00  0.00    +0.000 A 
ATOM     31  C   UNL     1       6.115   3.877  13.591  0.00  0.00    +0.000 A 
ATOM     32 CL   UNL     1       5.962   2.976  12.130  0.00  0.00    +0.000 Cl
ATOM     33  C   UNL     1       5.296   3.606  14.711  0.00  0.00    +0.000 A 
ATOM     34  C   UNL     1       5.605   4.153  16.007  0.00  0.00    +0.000 A 
ENDBRANCH  23  24
ENDBRANCH   6  23
TORSDOF 7
ENDMDL
MODEL 3
REMARK VINA RESULT:      -9.1      5.899      8.471
REMARK  Name = 
REMARK  7 active torsions:
REMARK  status: ('A' for Active; 'I' for Inactive)
REMARK    1  A    between atoms: C_2  and  C_3
REMARK    2  A    between atoms: C_2  and  C_15
REMARK    3  A    between atoms: C_4  and  C_5
REMARK    4  A    between atoms: C_10  and  N_11
REMARK    5  A    between atoms: C_16  and  C_17
REMARK    6  A    between atoms: C_22  and  O_23
REMARK    7  A    between atoms: O_23  and  C_24
REMARK                            x       y       z     vdW  Elec       q    Type
REMARK                         _______ _______ _______ _____ _____    ______ ____
ROOT
ATOM      1  C   UNL     1       3.803   5.102  18.136  0.00  0.00    +0.000 A 
ATOM      2  C   UNL     1       3.679   3.982  17.281  0.00  0.00    +0.000 A 
ATOM      3  C   UNL     1       2.583   3.140  17.388  0.00  0.00    +0.000 A 
ATOM      4  C   UNL     1       1.627   3.409  18.365  0.00  0.00    +0.000 A 
ATOM      5  C   UNL     1       1.713   4.565  19.179  0.00  0.00    +0.000 A 
ATOM      6  C   UNL     1       2.792   5.455  19.063  0.00  0.00    +0.000 A 
ENDROOT
BRANCH   1   8
ATOM      7  C   UNL     1       5.494   6.466  17.181  0.00  0.00    +0.000 C 
ATOM      8  C   UNL     1       5.118   5.723  18.232  0.00  0.00    +0.000 C 
BRANCH   7  10
ATOM      9  O   UNL     1       7.770   6.174  16.588  0.00  0.00    +0.000 OA
ATOM     10  C   UNL     1       6.903   6.883  17.055  0.00  0.00    +0.000 C 
BRANCH  10  11
ATOM     11  C   UNL     1       7.128   8.286  17.472  0.00  0.00    +0.000 C 
ATOM     12  C   UNL     1       8.300   8.624  18.027  0.00  0.00    +0.000 C 
BRANCH  12  13
ATOM     13  C   UNL     1       8.582  10.028  18.295  0.00  0.00    +0.000 A 
ATOM     14  C   UNL     1       8.080  11.031  17.462  0.00  0.00    +0.000 A 
ATOM     15  C   UNL     1       8.449  12.366  17.666  0.00  0.00    +0.000 A 
ATOM     16  C   UNL     1       9.329  12.707  18.700  0.00  0.00    +0.000 A 
ATOM     17 CL   UNL     1       9.803  14.360  18.837  0.00  0.00    +0.000 Cl
ATOM     18  C   UNL     1       9.813  11.695  19.528  0.00  0.00    +0.000 A 
ATOM     19  C   UNL     1       9.445  10.357  19.342  0.00  0.00    +0.000 A 
BRANCH  18  20
ATOM     20  N   UNL     1      10.757  11.976  20.582  0.00  0.00    +0.000 N 
ATOM     21  O   UNL     1      10.313  12.535  21.609  0.00  0.00    +0.000 OA
ATOM     22  O   UNL     1      11.915  11.596  20.419  0.00  0.00    +0.000 OA
ENDBRANCH  18  20
ENDBRANCH  12  13
ENDBRANCH  10  11
ENDBRANCH   7  10
ENDBRANCH   1   8
BRANCH   6  23
ATOM     23  O   UNL     1       2.900   6.704  19.717  0.00  0.00    +0.000 OA
BRANCH  23  24
ATOM     24  C   UNL     1       2.168   7.807  19.264  0.00  0.00    +0.000 A 
ATOM     25  N   UNL     1       2.031   7.905  17.932  0.00  0.00    +0.000 NA
ATOM     26  C   UNL     1       1.443   9.015  17.496  0.00  0.00    +0.000 A 
ATOM     27  N   UNL     1       1.182  10.099  18.226  0.00  0.00    +0.000 NA
ATOM     28  C   UNL     1       1.208   9.948  19.540  0.00  0.00    +0.000 A 
ATOM     29  C   UNL     1       0.763  11.048  20.261  0.00  0.00    +0.000 A 
ATOM     30  C   UNL     1       0.336  10.926  21.573  0.00  0.00    +0.000 A 
ATOM     31  C   UNL     1       0.410   9.676  22.170  0.00  0.00    +0.000 A 
ATOM     32 CL   UNL     1      -0.434   9.441  23.654  0.00  0.00    +0.000 Cl
ATOM     33  C   UNL     1       1.073   8.607  21.524  0.00  0.00    +0.000 A 
ATOM     34  C   UNL     1       1.531   8.730  20.164  0.00  0.00    +0.000 A 
ENDBRANCH  23  24
ENDBRANCH   6  23
TORSDOF 7
ENDMDL
MODEL 4
REMARK VINA RESULT:      -8.9      3.027      9.876
REMARK  Name = 
REMARK  7 active torsions:
REMARK  status: ('A' for Active; 'I' for Inactive)
REMARK    1  A    between atoms: C_2  and  C_3
REMARK    2  A    between atoms: C_2  and  C_15
REMARK    3  A    between atoms: C_4  and  C_5
REMARK    4  A    between atoms: C_10  and  N_11
REMARK    5  A    between atoms: C_16  and  C_17
REMARK    6  A    between atoms: C_22  and  O_23
REMARK    7  A    between atoms: O_23  and  C_24
REMARK                            x       y       z     vdW  Elec       q    Type
REMARK                         _______ _______ _______ _____ _____    ______ ____
ROOT
ATOM      1  C   UNL     1       2.030   5.442  19.831  0.00  0.00    +0.000 A 
ATOM      2  C   UNL     1       1.238   4.564  20.608  0.00  0.00    +0.000 A 
ATOM      3  C   UNL     1       0.781   3.373  20.066  0.00  0.00    +0.000 A 
ATOM      4  C   UNL     1       1.097   3.077  18.741  0.00  0.00    +0.000 A 
ATOM      5  C   UNL     1       1.943   3.921  17.981  0.00  0.00    +0.000 A 
ATOM      6  C   UNL     1       2.453   5.112  18.520  0.00  0.00    +0.000 A 
ENDROOT
BRANCH   1   8
ATOM      7  C   UNL     1       1.144   7.285  21.035  0.00  0.00    +0.000 C 
ATOM      8  C   UNL     1       2.168   6.811  20.310  0.00  0.00    +0.000 C 
BRANCH   7  10
ATOM      9  O   UNL     1       1.925   9.358  21.877  0.00  0.00    +0.000 OA
ATOM     10  C   UNL     1       1.056   8.731  21.308  0.00  0.00    +0.000 C 
BRANCH  10  11
ATOM     11  C   UNL     1      -0.160   9.353  20.734  0.00  0.00    +0.000 C 
ATOM     12  C   UNL     1      -0.107   9.879  19.502  0.00  0.00    +0.000 C 
BRANCH  12  13
ATOM     13  C   UNL     1      -1.335  10.349  18.876  0.00  0.00    +0.000 A 
ATOM     14  C   UNL     1      -1.598  10.089  17.530  0.00  0.00    +0.000 A 
ATOM     15  C   UNL     1      -2.728  10.641  16.913  0.00  0.00    +0.000 A 
ATOM     16  C   UNL     1      -3.598  11.463  17.637  0.00  0.00    +0.000 A 
ATOM     17 CL   UNL     1      -4.921  12.174  16.789  0.00  0.00    +0.000 Cl
ATOM     18  C   UNL     1      -3.327  11.705  18.983  0.00  0.00    +0.000 A 
ATOM     19  C   UNL     1      -2.206  11.152  19.615  0.00  0.00    +0.000 A 
BRANCH  18  20
ATOM     20  N   UNL     1      -4.161  12.579  19.771  0.00  0.00    +0.000 N 
ATOM     21  O   UNL     1      -5.339  12.211  19.974  0.00  0.00    +0.000 OA
ATOM     22  O   UNL     1      -3.639  13.593  20.233  0.00  0.00    +0.000 OA
ENDBRANCH  18  20
ENDBRANCH  12  13
ENDBRANCH  10  11
ENDBRANCH   7  10
ENDBRANCH   1   8
BRANCH   6  23
ATOM     23  O   UNL     1       3.415   5.946  17.905  0.00  0.00    +0.000 OA
BRANCH  23  24
ATOM     24  C   UNL     1       4.758   5.562  17.857  0.00  0.00    +0.000 A 
ATOM     25  N   UNL     1       5.379   5.467  19.044  0.00  0.00    +0.000 NA
ATOM     26  C   UNL     1       6.685   5.222  18.991  0.00  0.00    +0.000 A 
ATOM     27  N   UNL     1       7.445   5.275  17.899  0.00  0.00    +0.000 NA
ATOM     28  C   UNL     1       6.815   5.248  16.736  0.00  0.00    +0.000 A 
ATOM     29  C   UNL     1       7.643   5.129  15.628  0.00  0.00    +0.000 A 
ATOM     30  C   UNL     1       7.159   4.675  14.411  0.00  0.00    +0.000 A 
ATOM     31  C   UNL     1       5.806   4.388  14.313  0.00  0.00    +0.000 A 
ATOM     32 CL   UNL     1       5.270   3.501  12.936  0.00  0.00    +0.000 Cl
ATOM     33  C   UNL     1       4.920   4.723  15.363  0.00  0.00    +0.000 A 
ATOM     34  C   UNL     1       5.414   5.207  16.626  0.00  0.00    +0.000 A 
ENDBRANCH  23  24
ENDBRANCH   6  23
TORSDOF 7
ENDMDL
MODEL 5
REMARK VINA RESULT:      -8.8      1.994      2.532
REMARK  Name = 
REMARK  7 active torsions:
REMARK  status: ('A' for Active; 'I' for Inactive)
REMARK    1  A    between atoms: C_2  and  C_3
REMARK    2  A    between atoms: C_2  and  C_15
REMARK    3  A    between atoms: C_4  and  C_5
REMARK    4  A    between atoms: C_10  and  N_11
REMARK    5  A    between atoms: C_16  and  C_17
REMARK    6  A    between atoms: C_22  and  O_23
REMARK    7  A    between atoms: O_23  and  C_24
REMARK                            x       y       z     vdW  Elec       q    Type
REMARK                         _______ _______ _______ _____ _____    ______ ____
ROOT
ATOM      1  C   UNL     1      -0.621  11.086  20.702  0.00  0.00    +0.000 A 
ATOM      2  C   UNL     1      -0.393  10.367  21.899  0.00  0.00    +0.000 A 
ATOM      3  C   UNL     1      -1.040  10.734  23.068  0.00  0.00    +0.000 A 
ATOM      4  C   UNL     1      -1.896  11.834  23.041  0.00  0.00    +0.000 A 
ATOM      5  C   UNL     1      -2.177  12.516  21.831  0.00  0.00    +0.000 A 
ATOM      6  C   UNL     1      -1.565  12.138  20.627  0.00  0.00    +0.000 A 
ENDROOT
BRANCH   1   8
ATOM      7  C   UNL     1       0.366   9.680  19.065  0.00  0.00    +0.000 C 
ATOM      8  C   UNL     1       0.339  10.899  19.622  0.00  0.00    +0.000 C 
BRANCH   7  10
ATOM      9  O   UNL     1       2.203  10.121  17.633  0.00  0.00    +0.000 OA
ATOM     10  C   UNL     1       1.488   9.309  18.184  0.00  0.00    +0.000 C 
BRANCH  10  11
ATOM     11  C   UNL     1       1.709   7.845  18.116  0.00  0.00    +0.000 C 
ATOM     12  C   UNL     1       2.958   7.376  17.996  0.00  0.00    +0.000 C 
BRANCH  12  13
ATOM     13  C   UNL     1       3.191   5.941  18.085  0.00  0.00    +0.000 A 
ATOM     14  C   UNL     1       4.327   5.363  17.514  0.00  0.00    +0.000 A 
ATOM     15  C   UNL     1       4.483   3.972  17.510  0.00  0.00    +0.000 A 
ATOM     16  C   UNL     1       3.500   3.148  18.071  0.00  0.00    +0.000 A 
ATOM     17 CL   UNL     1       3.723   1.442  17.955  0.00  0.00    +0.000 Cl
ATOM     18  C   UNL     1       2.378   3.742  18.646  0.00  0.00    +0.000 A 
ATOM     19  C   UNL     1       2.212   5.132  18.665  0.00  0.00    +0.000 A 
BRANCH  18  20
ATOM     20  N   UNL     1       1.309   2.946  19.199  0.00  0.00    +0.000 N 
ATOM     21  O   UNL     1       0.535   2.390  18.389  0.00  0.00    +0.000 OA
ATOM     22  O   UNL     1       1.270   2.826  20.423  0.00  0.00    +0.000 OA
ENDBRANCH  18  20
ENDBRANCH  12  13
ENDBRANCH  10  11
ENDBRANCH   7  10
ENDBRANCH   1   8
BRANCH   6  23
ATOM     23  O   UNL     1      -1.883  12.652  19.348  0.00  0.00    +0.000 OA
BRANCH  23  24
ATOM     24  C   UNL     1      -2.834  12.014  18.545  0.00  0.00    +0.000 A 
ATOM     25  N   UNL     1      -2.345  11.316  17.507  0.00  0.00    +0.000 NA
ATOM     26  C   UNL     1      -3.251  10.813  16.674  0.00  0.00    +0.000 A 
ATOM     27  N   UNL     1      -4.548  11.112  16.660  0.00  0.00    +0.000 NA
ATOM     28  C   UNL     1      -5.034  11.694  17.745  0.00  0.00    +0.000 A 
ATOM     29  C   UNL     1      -6.416  11.832  17.763  0.00  0.00    +0.000 A 
ATOM     30  C   UNL     1      -7.107  12.021  18.949  0.00  0.00    +0.000 A 
ATOM     31  C   UNL     1      -6.374  12.121  20.122  0.00  0.00    +0.000 A 
ATOM     32 CL   UNL     1      -7.226  12.002  21.615  0.00  0.00    +0.000 Cl
ATOM     33  C   UNL     1      -4.963  12.214  20.086  0.00  0.00    +0.000 A 
ATOM     34  C   UNL     1      -4.239  12.029  18.855  0.00  0.00    +0.000 A 
ENDBRANCH  23  24
ENDBRANCH   6  23
TORSDOF 7
ENDMDL
MODEL 6
REMARK VINA RESULT:      -8.8      3.586      9.793
REMARK  Name = 
REMARK  7 active torsions:
REMARK  status: ('A' for Active; 'I' for Inactive)
REMARK    1  A    between atoms: C_2  and  C_3
REMARK    2  A    between atoms: C_2  and  C_15
REMARK    3  A    between atoms: C_4  and  C_5
REMARK    4  A    between atoms: C_10  and  N_11
REMARK    5  A    between atoms: C_16  and  C_17
REMARK    6  A    between atoms: C_22  and  O_23
REMARK    7  A    between atoms: O_23  and  C_24
REMARK                            x       y       z     vdW  Elec       q    Type
REMARK                         _______ _______ _______ _____ _____    ______ ____
ROOT
ATOM      1  C   UNL     1       2.154   4.692  19.101  0.00  0.00    +0.000 A 
ATOM      2  C   UNL     1       1.611   4.743  20.406  0.00  0.00    +0.000 A 
ATOM      3  C   UNL     1       1.398   3.575  21.120  0.00  0.00    +0.000 A 
ATOM      4  C   UNL     1       1.708   2.357  20.515  0.00  0.00    +0.000 A 
ATOM      5  C   UNL     1       2.311   2.305  19.235  0.00  0.00    +0.000 A 
ATOM      6  C   UNL     1       2.574   3.476  18.509  0.00  0.00    +0.000 A 
ENDROOT
BRANCH   1   8
ATOM      7  C   UNL     1       2.799   6.921  18.602  0.00  0.00    +0.000 C 
ATOM      8  C   UNL     1       2.013   5.885  18.276  0.00  0.00    +0.000 C 
BRANCH   7  10
ATOM      9  O   UNL     1       2.658   8.511  16.851  0.00  0.00    +0.000 OA
ATOM     10  C   UNL     1       2.523   8.250  18.028  0.00  0.00    +0.000 C 
BRANCH  10  11
ATOM     11  C   UNL     1       1.978   9.205  19.021  0.00  0.00    +0.000 C 
ATOM     12  C   UNL     1       1.188  10.204  18.604  0.00  0.00    +0.000 C 
BRANCH  12  13
ATOM     13  C   UNL     1       0.528  11.049  19.590  0.00  0.00    +0.000 A 
ATOM     14  C   UNL     1       0.391  12.423  19.380  0.00  0.00    +0.000 A 
ATOM     15  C   UNL     1      -0.146  13.238  20.383  0.00  0.00    +0.000 A 
ATOM     16  C   UNL     1      -0.543  12.687  21.606  0.00  0.00    +0.000 A 
ATOM     17 CL   UNL     1      -1.117  13.765  22.824  0.00  0.00    +0.000 Cl
ATOM     18  C   UNL     1      -0.410  11.312  21.796  0.00  0.00    +0.000 A 
ATOM     19  C   UNL     1       0.117  10.483  20.798  0.00  0.00    +0.000 A 
BRANCH  18  20
ATOM     20  N   UNL     1      -0.760  10.690  23.049  0.00  0.00    +0.000 N 
ATOM     21  O   UNL     1      -1.941  10.823  23.440  0.00  0.00    +0.000 OA
ATOM     22  O   UNL     1       0.110  10.028  23.614  0.00  0.00    +0.000 OA
ENDBRANCH  18  20
ENDBRANCH  12  13
ENDBRANCH  10  11
ENDBRANCH   7  10
ENDBRANCH   1   8
BRANCH   6  23
ATOM     23  O   UNL     1       3.300   3.546  17.298  0.00  0.00    +0.000 OA
BRANCH  23  24
ATOM     24  C   UNL     1       4.647   3.923  17.300  0.00  0.00    +0.000 A 
ATOM     25  N   UNL     1       5.225   4.009  18.509  0.00  0.00    +0.000 NA
ATOM     26  C   UNL     1       6.466   4.485  18.520  0.00  0.00    +0.000 A 
ATOM     27  N   UNL     1       7.088   5.067  17.495  0.00  0.00    +0.000 NA
ATOM     28  C   UNL     1       6.565   4.869  16.296  0.00  0.00    +0.000 A 
ATOM     29  C   UNL     1       7.334   5.342  15.240  0.00  0.00    +0.000 A 
ATOM     30  C   UNL     1       7.160   4.867  13.951  0.00  0.00    +0.000 A 
ATOM     31  C   UNL     1       6.157   3.935  13.728  0.00  0.00    +0.000 A 
ATOM     32 CL   UNL     1       6.164   3.088  12.228  0.00  0.00    +0.000 Cl
ATOM     33  C   UNL     1       5.225   3.623  14.745  0.00  0.00    +0.000 A 
ATOM     34  C   UNL     1       5.393   4.123  16.085  0.00  0.00    +0.000 A 
ENDBRANCH  23  24
ENDBRANCH   6  23
TORSDOF 7
ENDMDL
MODEL 7
REMARK VINA RESULT:      -8.7      3.258     10.228
REMARK  Name = 
REMARK  7 active torsions:
REMARK  status: ('A' for Active; 'I' for Inactive)
REMARK    1  A    between atoms: C_2  and  C_3
REMARK    2  A    between atoms: C_2  and  C_15
REMARK    3  A    between atoms: C_4  and  C_5
REMARK    4  A    between atoms: C_10  and  N_11
REMARK    5  A    between atoms: C_16  and  C_17
REMARK    6  A    between atoms: C_22  and  O_23
REMARK    7  A    between atoms: O_23  and  C_24
REMARK                            x       y       z     vdW  Elec       q    Type
REMARK                         _______ _______ _______ _____ _____    ______ ____
ROOT
ATOM      1  C   UNL     1       2.115   4.678  19.089  0.00  0.00    +0.000 A 
ATOM      2  C   UNL     1       1.603   4.442  20.387  0.00  0.00    +0.000 A 
ATOM      3  C   UNL     1       1.416   3.144  20.837  0.00  0.00    +0.000 A 
ATOM      4  C   UNL     1       1.717   2.089  19.977  0.00  0.00    +0.000 A 
ATOM      5  C   UNL     1       2.290   2.320  18.702  0.00  0.00    +0.000 A 
ATOM      6  C   UNL     1       2.527   3.623  18.239  0.00  0.00    +0.000 A 
ENDROOT
BRANCH   1   8
ATOM      7  C   UNL     1       2.381   7.026  19.315  0.00  0.00    +0.000 C 
ATOM      8  C   UNL     1       1.946   6.019  18.543  0.00  0.00    +0.000 C 
BRANCH   7  10
ATOM      9  O   UNL     1       2.259   8.951  17.938  0.00  0.00    +0.000 OA
ATOM     10  C   UNL     1       1.990   8.410  18.990  0.00  0.00    +0.000 C 
BRANCH  10  11
ATOM     11  C   UNL     1       1.159   9.037  20.044  0.00  0.00    +0.000 C 
ATOM     12  C   UNL     1       0.804  10.323  19.920  0.00  0.00    +0.000 C 
BRANCH  12  13
ATOM     13  C   UNL     1      -0.137  10.897  20.872  0.00  0.00    +0.000 A 
ATOM     14  C   UNL     1      -0.192  10.439  22.190  0.00  0.00    +0.000 A 
ATOM     15  C   UNL     1      -1.175  10.921  23.062  0.00  0.00    +0.000 A 
ATOM     16  C   UNL     1      -2.116  11.858  22.621  0.00  0.00    +0.000 A 
ATOM     17 CL   UNL     1      -3.347  12.341  23.728  0.00  0.00    +0.000 Cl
ATOM     18  C   UNL     1      -2.041  12.312  21.305  0.00  0.00    +0.000 A 
ATOM     19  C   UNL     1      -1.058  11.846  20.424  0.00  0.00    +0.000 A 
BRANCH  18  20
ATOM     20  N   UNL     1      -3.008  13.243  20.777  0.00  0.00    +0.000 N 
ATOM     21  O   UNL     1      -4.038  12.761  20.257  0.00  0.00    +0.000 OA
ATOM     22  O   UNL     1      -2.776  14.443  20.925  0.00  0.00    +0.000 OA
ENDBRANCH  18  20
ENDBRANCH  12  13
ENDBRANCH  10  11
ENDBRANCH   7  10
ENDBRANCH   1   8
BRANCH   6  23
ATOM     23  O   UNL     1       3.223   3.959  17.055  0.00  0.00    +0.000 OA
BRANCH  23  24
ATOM     24  C   UNL     1       4.604   4.178  17.083  0.00  0.00    +0.000 A 
ATOM     25  N   UNL     1       5.163   4.215  18.303  0.00  0.00    +0.000 NA
ATOM     26  C   UNL     1       6.451   4.545  18.336  0.00  0.00    +0.000 A 
ATOM     27  N   UNL     1       7.156   5.035  17.319  0.00  0.00    +0.000 NA
ATOM     28  C   UNL     1       6.640   4.881  16.111  0.00  0.00    +0.000 A 
ATOM     29  C   UNL     1       7.480   5.246  15.067  0.00  0.00    +0.000 A 
ATOM     30  C   UNL     1       7.279   4.774  13.780  0.00  0.00    +0.000 A 
ATOM     31  C   UNL     1       6.179   3.962  13.547  0.00  0.00    +0.000 A 
ATOM     32 CL   UNL     1       6.119   3.097  12.057  0.00  0.00    +0.000 Cl
ATOM     33  C   UNL     1       5.196   3.775  14.546  0.00  0.00    +0.000 A 
ATOM     34  C   UNL     1       5.393   4.272  15.883  0.00  0.00    +0.000 A 
ENDBRANCH  23  24
ENDBRANCH   6  23
TORSDOF 7
ENDMDL
MODEL 8
REMARK VINA RESULT:      -8.7      6.526     10.986
REMARK  Name = 
REMARK  7 active torsions:
REMARK  status: ('A' for Active; 'I' for Inactive)
REMARK    1  A    between atoms: C_2  and  C_3
REMARK    2  A    between atoms: C_2  and  C_15
REMARK    3  A    between atoms: C_4  and  C_5
REMARK    4  A    between atoms: C_10  and  N_11
REMARK    5  A    between atoms: C_16  and  C_17
REMARK    6  A    between atoms: C_22  and  O_23
REMARK    7  A    between atoms: O_23  and  C_24
REMARK                            x       y       z     vdW  Elec       q    Type
REMARK                         _______ _______ _______ _____ _____    ______ ____
ROOT
ATOM      1  C   UNL     1       5.863   6.002  16.979  0.00  0.00    +0.000 A 
ATOM      2  C   UNL     1       5.529   6.462  15.683  0.00  0.00    +0.000 A 
ATOM      3  C   UNL     1       5.278   5.555  14.664  0.00  0.00    +0.000 A 
ATOM      4  C   UNL     1       5.387   4.193  14.941  0.00  0.00    +0.000 A 
ATOM      5  C   UNL     1       5.657   3.729  16.251  0.00  0.00    +0.000 A 
ATOM      6  C   UNL     1       5.874   4.625  17.308  0.00  0.00    +0.000 A 
ENDROOT
BRANCH   1   8
ATOM      7  C   UNL     1       7.519   7.645  17.415  0.00  0.00    +0.000 C 
ATOM      8  C   UNL     1       6.464   6.967  17.890  0.00  0.00    +0.000 C 
BRANCH   7  10
ATOM      9  O   UNL     1       8.879   7.933  19.335  0.00  0.00    +0.000 OA
ATOM     10  C   UNL     1       8.366   8.413  18.345  0.00  0.00    +0.000 C 
BRANCH  10  11
ATOM     11  C   UNL     1       8.601   9.805  17.895  0.00  0.00    +0.000 C 
ATOM     12  C   UNL     1       9.361  10.616  18.643  0.00  0.00    +0.000 C 
BRANCH  12  13
ATOM     13  C   UNL     1       9.720  11.931  18.129  0.00  0.00    +0.000 A 
ATOM     14  C   UNL     1      10.877  12.112  17.368  0.00  0.00    +0.000 A 
ATOM     15  C   UNL     1      11.267  13.397  16.974  0.00  0.00    +0.000 A 
ATOM     16  C   UNL     1      10.507  14.512  17.344  0.00  0.00    +0.000 A 
ATOM     17 CL   UNL     1      11.095  16.069  16.893  0.00  0.00    +0.000 Cl
ATOM     18  C   UNL     1       9.349  14.313  18.095  0.00  0.00    +0.000 A 
ATOM     19  C   UNL     1       8.942  13.033  18.488  0.00  0.00    +0.000 A 
BRANCH  18  20
ATOM     20  N   UNL     1       8.548  15.425  18.545  0.00  0.00    +0.000 N 
ATOM     21  O   UNL     1       8.711  15.802  19.726  0.00  0.00    +0.000 OA
ATOM     22  O   UNL     1       7.804  15.956  17.721  0.00  0.00    +0.000 OA
ENDBRANCH  18  20
ENDBRANCH  12  13
ENDBRANCH  10  11
ENDBRANCH   7  10
ENDBRANCH   1   8
BRANCH   6  23
ATOM     23  O   UNL     1       6.005   4.272  18.671  0.00  0.00    +0.000 OA
BRANCH  23  24
ATOM     24  C   UNL     1       4.931   3.700  19.361  0.00  0.00    +0.000 A 
ATOM     25  N   UNL     1       5.138   2.462  19.837  0.00  0.00    +0.000 NA
ATOM     26  C   UNL     1       4.080   1.871  20.384  0.00  0.00    +0.000 A 
ATOM     27  N   UNL     1       2.822   2.301  20.309  0.00  0.00    +0.000 NA
ATOM     28  C   UNL     1       2.647   3.563  19.951  0.00  0.00    +0.000 A 
ATOM     29  C   UNL     1       1.340   4.022  20.053  0.00  0.00    +0.000 A 
ATOM     30  C   UNL     1       1.054   5.376  20.126  0.00  0.00    +0.000 A 
ATOM     31  C   UNL     1       2.110   6.271  20.043  0.00  0.00    +0.000 A 
ATOM     32 CL   UNL     1       1.811   7.910  20.482  0.00  0.00    +0.000 Cl
ATOM     33  C   UNL     1       3.410   5.825  19.709  0.00  0.00    +0.000 A 
ATOM     34  C   UNL     1       3.712   4.419  19.620  0.00  0.00    +0.000 A 
ENDBRANCH  23  24
ENDBRANCH   6  23
TORSDOF 7
ENDMDL
MODEL 9
REMARK VINA RESULT:      -8.7      3.093      9.958
REMARK  Name = 
REMARK  7 active torsions:
REMARK  status: ('A' for Active; 'I' for Inactive)
REMARK    1  A    between atoms: C_2  and  C_3
REMARK    2  A    between atoms: C_2  and  C_15
REMARK    3  A    between atoms: C_4  and  C_5
REMARK    4  A    between atoms: C_10  and  N_11
REMARK    5  A    between atoms: C_16  and  C_17
REMARK    6  A    between atoms: C_22  and  O_23
REMARK    7  A    between atoms: O_23  and  C_24
REMARK                            x       y       z     vdW  Elec       q    Type
REMARK                         _______ _______ _______ _____ _____    ______ ____
ROOT
ATOM      1  C   UNL     1       2.305   4.617  19.230  0.00  0.00    +0.000 A 
ATOM      2  C   UNL     1       1.676   4.829  20.479  0.00  0.00    +0.000 A 
ATOM      3  C   UNL     1       1.310   3.750  21.268  0.00  0.00    +0.000 A 
ATOM      4  C   UNL     1       1.552   2.462  20.793  0.00  0.00    +0.000 A 
ATOM      5  C   UNL     1       2.240   2.246  19.573  0.00  0.00    +0.000 A 
ATOM      6  C   UNL     1       2.657   3.322  18.776  0.00  0.00    +0.000 A 
ENDROOT
BRANCH   1   8
ATOM      7  C   UNL     1       2.786   6.899  18.793  0.00  0.00    +0.000 C 
ATOM      8  C   UNL     1       2.331   5.739  18.300  0.00  0.00    +0.000 C 
BRANCH   7  10
ATOM      9  O   UNL     1       3.115   8.380  16.972  0.00  0.00    +0.000 OA
ATOM     10  C   UNL     1       2.575   8.144  18.032  0.00  0.00    +0.000 C 
BRANCH  10  11
ATOM     11  C   UNL     1       1.564   9.034  18.652  0.00  0.00    +0.000 C 
ATOM     12  C   UNL     1       0.851   9.857  17.872  0.00  0.00    +0.000 C 
BRANCH  12  13
ATOM     13  C   UNL     1      -0.246  10.617  18.455  0.00  0.00    +0.000 A 
ATOM     14  C   UNL     1      -0.076  11.317  19.652  0.00  0.00    +0.000 A 
ATOM     15  C   UNL     1      -1.167  11.951  20.258  0.00  0.00    +0.000 A 
ATOM     16  C   UNL     1      -2.438  11.884  19.676  0.00  0.00    +0.000 A 
ATOM     17 CL   UNL     1      -3.748  12.619  20.524  0.00  0.00    +0.000 Cl
ATOM     18  C   UNL     1      -2.588  11.190  18.476  0.00  0.00    +0.000 A 
ATOM     19  C   UNL     1      -1.505  10.559  17.854  0.00  0.00    +0.000 A 
BRANCH  18  20
ATOM     20  N   UNL     1      -3.880  11.047  17.850  0.00  0.00    +0.000 N 
ATOM     21  O   UNL     1      -4.535  10.018  18.127  0.00  0.00    +0.000 OA
ATOM     22  O   UNL     1      -4.267  11.970  17.136  0.00  0.00    +0.000 OA
ENDBRANCH  18  20
ENDBRANCH  12  13
ENDBRANCH  10  11
ENDBRANCH   7  10
ENDBRANCH   1   8
BRANCH   6  23
ATOM     23  O   UNL     1       3.472   3.223  17.624  0.00  0.00    +0.000 OA
BRANCH  23  24
ATOM     24  C   UNL     1       4.758   3.774  17.617  0.00  0.00    +0.000 A 
ATOM     25  N   UNL     1       5.337   3.914  18.820  0.00  0.00    +0.000 NA
ATOM     26  C   UNL     1       6.506   4.548  18.825  0.00  0.00    +0.000 A 
ATOM     27  N   UNL     1       7.030   5.224  17.804  0.00  0.00    +0.000 NA
ATOM     28  C   UNL     1       6.520   4.981  16.608  0.00  0.00    +0.000 A 
ATOM     29  C   UNL     1       7.204   5.569  15.552  0.00  0.00    +0.000 A 
ATOM     30  C   UNL     1       7.075   5.098  14.256  0.00  0.00    +0.000 A 
ATOM     31  C   UNL     1       6.199   4.047  14.028  0.00  0.00    +0.000 A 
ATOM     32 CL   UNL     1       6.294   3.234  12.511  0.00  0.00    +0.000 Cl
ATOM     33  C   UNL     1       5.331   3.597  15.050  0.00  0.00    +0.000 A 
ATOM     34  C   UNL     1       5.452   4.091  16.398  0.00  0.00    +0.000 A 
ENDBRANCH  23  24
ENDBRANCH   6  23
TORSDOF 7
ENDMDL
