MODEL 1
REMARK VINA RESULT:      -8.8      0.000      0.000
REMARK  Name = 
REMARK  8 active torsions:
REMARK  status: ('A' for Active; 'I' for Inactive)
REMARK    1  A    between atoms: C_1  and  N_2
REMARK    2  A    between atoms: C_4  and  C_5
REMARK    3  A    between atoms: C_7  and  O_8
REMARK    4  A    between atoms: O_8  and  C_9
REMARK    5  A    between atoms: C_9  and  C_10
REMARK    6  A    between atoms: C_10  and  N_11
REMARK    7  A    between atoms: C_26  and  O_27
REMARK    8  A    between atoms: C_26  and  C_28
REMARK                            x       y       z     vdW  Elec       q    Type
REMARK                         _______ _______ _______ _____ _____    ______ ____
ROOT
ATOM      1  C   UNL     1       3.127   6.637  18.309  0.00  0.00    +0.000 A 
ATOM      2  C   UNL     1       4.020   7.011  17.277  0.00  0.00    +0.000 A 
ATOM      3  C   UNL     1       4.925   6.111  16.691  0.00  0.00    +0.000 A 
ATOM      4  C   UNL     1       5.017   4.816  17.181  0.00  0.00    +0.000 A 
ATOM      5  C   UNL     1       4.132   4.424  18.184  0.00  0.00    +0.000 A 
ATOM      6  C   UNL     1       3.160   5.304  18.741  0.00  0.00    +0.000 A 
ATOM      7  C   UNL     1       2.393   4.538  19.726  0.00  0.00    +0.000 A 
ATOM      8  C   UNL     1       1.270   4.847  20.480  0.00  0.00    +0.000 A 
ATOM      9  C   UNL     1       0.780   3.923  21.412  0.00  0.00    +0.000 A 
ATOM     10  C   UNL     1       1.371   2.664  21.553  0.00  0.00    +0.000 A 
ATOM     11  C   UNL     1       2.452   2.308  20.753  0.00  0.00    +0.000 A 
ATOM     12  C   UNL     1       2.942   3.242  19.842  0.00  0.00    +0.000 A 
ATOM     13  C   UNL     1       4.074   3.043  18.843  0.00  0.00    +0.000 C 
ENDROOT
BRANCH   1  17
ATOM     14  C   UNL     1       0.480  10.802  18.850  0.00  0.00    +0.000 C 
ATOM     15  N   UNL     1       1.085   9.513  19.083  0.00  0.00    +0.000 N 
ATOM     16  C   UNL     1       1.741   8.733  18.176  0.00  0.00    +0.000 A 
ATOM     17  C   UNL     1       2.277   7.671  18.883  0.00  0.00    +0.000 A 
ATOM     18  C   UNL     1       1.898   7.943  20.218  0.00  0.00    +0.000 A 
ATOM     19  N   UNL     1       1.123   9.024  20.333  0.00  0.00    +0.000 NA
ENDBRANCH   1  17
BRANCH  13  20
ATOM     20  C   UNL     1       3.819   1.873  17.832  0.00  0.00    +0.000 C 
ATOM     21  F   UNL     1       3.998   0.649  18.389  0.00  0.00    +0.000 F 
ATOM     22  F   UNL     1       2.544   1.891  17.362  0.00  0.00    +0.000 F 
ATOM     23  F   UNL     1       4.626   1.920  16.743  0.00  0.00    +0.000 F 
ENDBRANCH  13  20
BRANCH  13  24
ATOM     24  O   UNL     1       5.284   2.878  19.608  0.00  0.00    +0.000 OA
ATOM     25  H   UNL     1       5.021   2.798  20.541  0.00  0.00    +0.000 HD
ENDBRANCH  13  24
BRANCH   3  26
ATOM     26  O   UNL     1       5.687   6.616  15.671  0.00  0.00    +0.000 OA
BRANCH  26  27
ATOM     27  C   UNL     1       7.099   6.411  15.803  0.00  0.00    +0.000 C 
BRANCH  27  28
ATOM     28  C   UNL     1       7.412   4.932  15.543  0.00  0.00    +0.000 C 
BRANCH  28  29
ATOM     29  N   UNL     1       7.217   4.536  14.153  0.00  0.00    +0.000 N 
ATOM     30  C   UNL     1       6.052   3.825  13.702  0.00  0.00    +0.000 C 
ATOM     31  C   UNL     1       6.386   3.512  12.254  0.00  0.00    +0.000 C 
ATOM     32  C   UNL     1       7.229   4.702  11.816  0.00  0.00    +0.000 C 
ATOM     33  C   UNL     1       7.889   5.144  13.097  0.00  0.00    +0.000 C 
ATOM     34  O   UNL     1       8.802   5.955  13.184  0.00  0.00    +0.000 OA
ENDBRANCH  28  29
ENDBRANCH  27  28
ENDBRANCH  26  27
ENDBRANCH   3  26
TORSDOF 7
ENDMDL
MODEL 2
REMARK VINA RESULT:      -8.7      5.052      8.272
REMARK  Name = 
REMARK  8 active torsions:
REMARK  status: ('A' for Active; 'I' for Inactive)
REMARK    1  A    between atoms: C_1  and  N_2
REMARK    2  A    between atoms: C_4  and  C_5
REMARK    3  A    between atoms: C_7  and  O_8
REMARK    4  A    between atoms: O_8  and  C_9
REMARK    5  A    between atoms: C_9  and  C_10
REMARK    6  A    between atoms: C_10  and  N_11
REMARK    7  A    between atoms: C_26  and  O_27
REMARK    8  A    between atoms: C_26  and  C_28
REMARK                            x       y       z     vdW  Elec       q    Type
REMARK                         _______ _______ _______ _____ _____    ______ ____
ROOT
ATOM      1  C   UNL     1      -0.992  10.110  17.865  0.00  0.00    +0.000 A 
ATOM      2  C   UNL     1       0.099   9.284  17.501  0.00  0.00    +0.000 A 
ATOM      3  C   UNL     1       1.121   8.935  18.400  0.00  0.00    +0.000 A 
ATOM      4  C   UNL     1       1.121   9.473  19.679  0.00  0.00    +0.000 A 
ATOM      5  C   UNL     1       0.045  10.272  20.060  0.00  0.00    +0.000 A 
ATOM      6  C   UNL     1      -1.037  10.578  19.185  0.00  0.00    +0.000 A 
ATOM      7  C   UNL     1      -1.989  11.397  19.938  0.00  0.00    +0.000 A 
ATOM      8  C   UNL     1      -3.252  11.881  19.631  0.00  0.00    +0.000 A 
ATOM      9  C   UNL     1      -3.921  12.712  20.538  0.00  0.00    +0.000 A 
ATOM     10  C   UNL     1      -3.359  13.015  21.782  0.00  0.00    +0.000 A 
ATOM     11  C   UNL     1      -2.125  12.479  22.138  0.00  0.00    +0.000 A 
ATOM     12  C   UNL     1      -1.462  11.668  21.221  0.00  0.00    +0.000 A 
ATOM     13  C   UNL     1      -0.137  10.944  21.425  0.00  0.00    +0.000 C 
ENDROOT
BRANCH   1  17
ATOM     14  C   UNL     1      -3.858   9.866  13.819  0.00  0.00    +0.000 C 
ATOM     15  N   UNL     1      -3.242  10.305  15.047  0.00  0.00    +0.000 N 
ATOM     16  C   UNL     1      -2.427   9.580  15.867  0.00  0.00    +0.000 A 
ATOM     17  C   UNL     1      -1.959  10.454  16.832  0.00  0.00    +0.000 A 
ATOM     18  C   UNL     1      -2.543  11.689  16.465  0.00  0.00    +0.000 A 
ATOM     19  N   UNL     1      -3.370  11.588  15.422  0.00  0.00    +0.000 NA
ENDBRANCH   1  17
BRANCH  13  20
ATOM     20  C   UNL     1      -0.152   9.938  22.626  0.00  0.00    +0.000 C 
ATOM     21  F   UNL     1      -0.764  10.444  23.727  0.00  0.00    +0.000 F 
ATOM     22  F   UNL     1      -0.822   8.799  22.312  0.00  0.00    +0.000 F 
ATOM     23  F   UNL     1       1.088   9.555  23.019  0.00  0.00    +0.000 F 
ENDBRANCH  13  20
BRANCH  13  24
ATOM     24  O   UNL     1       0.881  11.958  21.545  0.00  0.00    +0.000 OA
ATOM     25  H   UNL     1       0.473  12.717  21.997  0.00  0.00    +0.000 HD
ENDBRANCH  13  24
BRANCH   3  26
ATOM     26  O   UNL     1       2.079   8.090  17.908  0.00  0.00    +0.000 OA
BRANCH  26  27
ATOM     27  C   UNL     1       2.627   7.167  18.858  0.00  0.00    +0.000 C 
BRANCH  27  28
ATOM     28  C   UNL     1       2.511   5.746  18.293  0.00  0.00    +0.000 C 
BRANCH  28  29
ATOM     29  N   UNL     1       2.156   4.751  19.299  0.00  0.00    +0.000 N 
ATOM     30  C   UNL     1       2.142   5.038  20.707  0.00  0.00    +0.000 C 
ATOM     31  C   UNL     1       1.876   3.678  21.328  0.00  0.00    +0.000 C 
ATOM     32  C   UNL     1       0.988   2.985  20.302  0.00  0.00    +0.000 C 
ATOM     33  C   UNL     1       1.417   3.611  18.999  0.00  0.00    +0.000 C 
ATOM     34  O   UNL     1       1.101   3.218  17.883  0.00  0.00    +0.000 OA
ENDBRANCH  28  29
ENDBRANCH  27  28
ENDBRANCH  26  27
ENDBRANCH   3  26
TORSDOF 7
ENDMDL
MODEL 3
REMARK VINA RESULT:      -8.5      2.926      7.294
REMARK  Name = 
REMARK  8 active torsions:
REMARK  status: ('A' for Active; 'I' for Inactive)
REMARK    1  A    between atoms: C_1  and  N_2
REMARK    2  A    between atoms: C_4  and  C_5
REMARK    3  A    between atoms: C_7  and  O_8
REMARK    4  A    between atoms: O_8  and  C_9
REMARK    5  A    between atoms: C_9  and  C_10
REMARK    6  A    between atoms: C_10  and  N_11
REMARK    7  A    between atoms: C_26  and  O_27
REMARK    8  A    between atoms: C_26  and  C_28
REMARK                            x       y       z     vdW  Elec       q    Type
REMARK                         _______ _______ _______ _____ _____    ______ ____
ROOT
ATOM      1  C   UNL     1       4.352   6.155  17.072  0.00  0.00    +0.000 A 
ATOM      2  C   UNL     1       3.932   7.505  17.154  0.00  0.00    +0.000 A 
ATOM      3  C   UNL     1       2.820   7.910  17.910  0.00  0.00    +0.000 A 
ATOM      4  C   UNL     1       2.041   6.955  18.547  0.00  0.00    +0.000 A 
ATOM      5  C   UNL     1       2.450   5.624  18.493  0.00  0.00    +0.000 A 
ATOM      6  C   UNL     1       3.616   5.204  17.790  0.00  0.00    +0.000 A 
ATOM      7  C   UNL     1       3.747   3.759  17.989  0.00  0.00    +0.000 A 
ATOM      8  C   UNL     1       4.738   2.855  17.634  0.00  0.00    +0.000 A 
ATOM      9  C   UNL     1       4.565   1.490  17.901  0.00  0.00    +0.000 A 
ATOM     10  C   UNL     1       3.430   1.030  18.577  0.00  0.00    +0.000 A 
ATOM     11  C   UNL     1       2.461   1.931  19.006  0.00  0.00    +0.000 A 
ATOM     12  C   UNL     1       2.636   3.283  18.719  0.00  0.00    +0.000 A 
ATOM     13  C   UNL     1       1.730   4.435  19.137  0.00  0.00    +0.000 C 
ENDROOT
BRANCH   1  17
ATOM     14  C   UNL     1       7.064   4.419  13.293  0.00  0.00    +0.000 C 
ATOM     15  N   UNL     1       6.657   5.090  14.503  0.00  0.00    +0.000 N 
ATOM     16  C   UNL     1       5.381   5.307  14.938  0.00  0.00    +0.000 A 
ATOM     17  C   UNL     1       5.483   5.846  16.208  0.00  0.00    +0.000 A 
ATOM     18  C   UNL     1       6.878   5.876  16.439  0.00  0.00    +0.000 A 
ATOM     19  N   UNL     1       7.593   5.479  15.384  0.00  0.00    +0.000 NA
ENDBRANCH   1  17
BRANCH  13  20
ATOM     20  C   UNL     1       1.561   4.567  20.689  0.00  0.00    +0.000 C 
ATOM     21  F   UNL     1       0.923   5.708  21.053  0.00  0.00    +0.000 F 
ATOM     22  F   UNL     1       0.826   3.544  21.198  0.00  0.00    +0.000 F 
ATOM     23  F   UNL     1       2.741   4.558  21.359  0.00  0.00    +0.000 F 
ENDBRANCH  13  20
BRANCH  13  24
ATOM     24  O   UNL     1       0.480   4.259  18.442  0.00  0.00    +0.000 OA
ATOM     25  H   UNL     1      -0.076   3.686  18.999  0.00  0.00    +0.000 HD
ENDBRANCH  13  24
BRANCH   3  26
ATOM     26  O   UNL     1       2.574   9.257  17.927  0.00  0.00    +0.000 OA
BRANCH  26  27
ATOM     27  C   UNL     1       1.197   9.626  18.085  0.00  0.00    +0.000 C 
BRANCH  27  28
ATOM     28  C   UNL     1       1.100  10.738  19.137  0.00  0.00    +0.000 C 
BRANCH  28  29
ATOM     29  N   UNL     1       0.465  10.306  20.377  0.00  0.00    +0.000 N 
ATOM     30  C   UNL     1       0.986   9.242  21.189  0.00  0.00    +0.000 C 
ATOM     31  C   UNL     1      -0.085   9.070  22.252  0.00  0.00    +0.000 C 
ATOM     32  C   UNL     1      -0.628  10.480  22.442  0.00  0.00    +0.000 C 
ATOM     33  C   UNL     1      -0.414  11.115  21.091  0.00  0.00    +0.000 C 
ATOM     34  O   UNL     1      -0.876  12.189  20.729  0.00  0.00    +0.000 OA
ENDBRANCH  28  29
ENDBRANCH  27  28
ENDBRANCH  26  27
ENDBRANCH   3  26
TORSDOF 7
ENDMDL
MODEL 4
REMARK VINA RESULT:      -8.5      5.241      8.534
REMARK  Name = 
REMARK  8 active torsions:
REMARK  status: ('A' for Active; 'I' for Inactive)
REMARK    1  A    between atoms: C_1  and  N_2
REMARK    2  A    between atoms: C_4  and  C_5
REMARK    3  A    between atoms: C_7  and  O_8
REMARK    4  A    between atoms: O_8  and  C_9
REMARK    5  A    between atoms: C_9  and  C_10
REMARK    6  A    between atoms: C_10  and  N_11
REMARK    7  A    between atoms: C_26  and  O_27
REMARK    8  A    between atoms: C_26  and  C_28
REMARK                            x       y       z     vdW  Elec       q    Type
REMARK                         _______ _______ _______ _____ _____    ______ ____
ROOT
ATOM      1  C   UNL     1      -0.748  11.848  20.091  0.00  0.00    +0.000 A 
ATOM      2  C   UNL     1       0.466  11.211  19.740  0.00  0.00    +0.000 A 
ATOM      3  C   UNL     1       0.569  10.310  18.667  0.00  0.00    +0.000 A 
ATOM      4  C   UNL     1      -0.569   9.958  17.957  0.00  0.00    +0.000 A 
ATOM      5  C   UNL     1      -1.770  10.590  18.276  0.00  0.00    +0.000 A 
ATOM      6  C   UNL     1      -1.879  11.559  19.314  0.00  0.00    +0.000 A 
ATOM      7  C   UNL     1      -3.266  12.028  19.329  0.00  0.00    +0.000 A 
ATOM      8  C   UNL     1      -3.904  13.032  20.044  0.00  0.00    +0.000 A 
ATOM      9  C   UNL     1      -5.285  13.219  19.900  0.00  0.00    +0.000 A 
ATOM     10  C   UNL     1      -6.024  12.448  18.998  0.00  0.00    +0.000 A 
ATOM     11  C   UNL     1      -5.388  11.487  18.219  0.00  0.00    +0.000 A 
ATOM     12  C   UNL     1      -4.018  11.297  18.383  0.00  0.00    +0.000 A 
ATOM     13  C   UNL     1      -3.123  10.342  17.603  0.00  0.00    +0.000 C 
ENDROOT
BRANCH   1  17
ATOM     14  C   UNL     1      -0.098  15.790  23.039  0.00  0.00    +0.000 C 
ATOM     15  N   UNL     1      -0.476  14.491  22.537  0.00  0.00    +0.000 N 
ATOM     16  C   UNL     1      -0.448  14.067  21.240  0.00  0.00    +0.000 A 
ATOM     17  C   UNL     1      -0.749  12.716  21.261  0.00  0.00    +0.000 A 
ATOM     18  C   UNL     1      -0.908  12.437  22.638  0.00  0.00    +0.000 A 
ATOM     19  N   UNL     1      -0.806  13.523  23.407  0.00  0.00    +0.000 NA
ENDBRANCH   1  17
BRANCH  13  20
ATOM     20  C   UNL     1      -3.118  10.611  16.059  0.00  0.00    +0.000 C 
ATOM     21  F   UNL     1      -2.618   9.569  15.346  0.00  0.00    +0.000 F 
ATOM     22  F   UNL     1      -4.374  10.824  15.587  0.00  0.00    +0.000 F 
ATOM     23  F   UNL     1      -2.389  11.699  15.707  0.00  0.00    +0.000 F 
ENDBRANCH  13  20
BRANCH  13  24
ATOM     24  O   UNL     1      -3.537   9.005  17.945  0.00  0.00    +0.000 OA
ATOM     25  H   UNL     1      -2.803   8.411  17.709  0.00  0.00    +0.000 HD
ENDBRANCH  13  24
BRANCH   3  26
ATOM     26  O   UNL     1       1.824   9.816  18.427  0.00  0.00    +0.000 OA
BRANCH  26  27
ATOM     27  C   UNL     1       1.866   8.577  17.707  0.00  0.00    +0.000 C 
BRANCH  27  28
ATOM     28  C   UNL     1       2.475   7.499  18.611  0.00  0.00    +0.000 C 
BRANCH  28  29
ATOM     29  N   UNL     1       3.198   6.468  17.876  0.00  0.00    +0.000 N 
ATOM     30  C   UNL     1       4.563   6.624  17.454  0.00  0.00    +0.000 C 
ATOM     31  C   UNL     1       4.802   5.382  16.612  0.00  0.00    +0.000 C 
ATOM     32  C   UNL     1       3.936   4.324  17.283  0.00  0.00    +0.000 C 
ATOM     33  C   UNL     1       2.811   5.131  17.882  0.00  0.00    +0.000 C 
ATOM     34  O   UNL     1       1.780   4.672  18.355  0.00  0.00    +0.000 OA
ENDBRANCH  28  29
ENDBRANCH  27  28
ENDBRANCH  26  27
ENDBRANCH   3  26
TORSDOF 7
ENDMDL
MODEL 5
REMARK VINA RESULT:      -8.5      5.175      8.442
REMARK  Name = 
REMARK  8 active torsions:
REMARK  status: ('A' for Active; 'I' for Inactive)
REMARK    1  A    between atoms: C_1  and  N_2
REMARK    2  A    between atoms: C_4  and  C_5
REMARK    3  A    between atoms: C_7  and  O_8
REMARK    4  A    between atoms: O_8  and  C_9
REMARK    5  A    between atoms: C_9  and  C_10
REMARK    6  A    between atoms: C_10  and  N_11
REMARK    7  A    between atoms: C_26  and  O_27
REMARK    8  A    between atoms: C_26  and  C_28
REMARK                            x       y       z     vdW  Elec       q    Type
REMARK                         _______ _______ _______ _____ _____    ______ ____
ROOT
ATOM      1  C   UNL     1      -0.741  11.750  20.014  0.00  0.00    +0.000 A 
ATOM      2  C   UNL     1       0.472  11.113  19.654  0.00  0.00    +0.000 A 
ATOM      3  C   UNL     1       0.570  10.224  18.571  0.00  0.00    +0.000 A 
ATOM      4  C   UNL     1      -0.570   9.883  17.859  0.00  0.00    +0.000 A 
ATOM      5  C   UNL     1      -1.769  10.514  18.188  0.00  0.00    +0.000 A 
ATOM      6  C   UNL     1      -1.873  11.472  19.237  0.00  0.00    +0.000 A 
ATOM      7  C   UNL     1      -3.259  11.944  19.260  0.00  0.00    +0.000 A 
ATOM      8  C   UNL     1      -3.893  12.941  19.988  0.00  0.00    +0.000 A 
ATOM      9  C   UNL     1      -5.274  13.133  19.850  0.00  0.00    +0.000 A 
ATOM     10  C   UNL     1      -6.017  12.374  18.940  0.00  0.00    +0.000 A 
ATOM     11  C   UNL     1      -5.385  11.420  18.149  0.00  0.00    +0.000 A 
ATOM     12  C   UNL     1      -4.015  11.225  18.308  0.00  0.00    +0.000 A 
ATOM     13  C   UNL     1      -3.124  10.278  17.515  0.00  0.00    +0.000 C 
ENDROOT
BRANCH   1  17
ATOM     14  C   UNL     1      -0.111  15.668  22.997  0.00  0.00    +0.000 C 
ATOM     15  N   UNL     1      -0.474  14.369  22.487  0.00  0.00    +0.000 N 
ATOM     16  C   UNL     1      -0.461  13.960  21.185  0.00  0.00    +0.000 A 
ATOM     17  C   UNL     1      -0.736  12.604  21.194  0.00  0.00    +0.000 A 
ATOM     18  C   UNL     1      -0.866  12.306  22.571  0.00  0.00    +0.000 A 
ATOM     19  N   UNL     1      -0.770  13.385  23.351  0.00  0.00    +0.000 NA
ENDBRANCH   1  17
BRANCH  13  20
ATOM     20  C   UNL     1      -3.121  10.564  15.974  0.00  0.00    +0.000 C 
ATOM     21  F   UNL     1      -4.367  10.765  15.475  0.00  0.00    +0.000 F 
ATOM     22  F   UNL     1      -2.411  11.684  15.677  0.00  0.00    +0.000 F 
ATOM     23  F   UNL     1      -2.574   9.561  15.244  0.00  0.00    +0.000 F 
ENDBRANCH  13  20
BRANCH  13  24
ATOM     24  O   UNL     1      -3.541   8.938  17.843  0.00  0.00    +0.000 OA
ATOM     25  H   UNL     1      -3.478   8.850  18.810  0.00  0.00    +0.000 HD
ENDBRANCH  13  24
BRANCH   3  26
ATOM     26  O   UNL     1       1.823   9.731  18.322  0.00  0.00    +0.000 OA
BRANCH  26  27
ATOM     27  C   UNL     1       1.862   8.399  17.791  0.00  0.00    +0.000 C 
BRANCH  27  28
ATOM     28  C   UNL     1       2.481   7.466  18.838  0.00  0.00    +0.000 C 
BRANCH  28  29
ATOM     29  N   UNL     1       2.970   6.211  18.278  0.00  0.00    +0.000 N 
ATOM     30  C   UNL     1       2.109   5.095  18.000  0.00  0.00    +0.000 C 
ATOM     31  C   UNL     1       3.085   4.006  17.593  0.00  0.00    +0.000 C 
ATOM     32  C   UNL     1       4.207   4.772  16.903  0.00  0.00    +0.000 C 
ATOM     33  C   UNL     1       4.174   6.116  17.587  0.00  0.00    +0.000 C 
ATOM     34  O   UNL     1       5.026   6.988  17.482  0.00  0.00    +0.000 OA
ENDBRANCH  28  29
ENDBRANCH  27  28
ENDBRANCH  26  27
ENDBRANCH   3  26
TORSDOF 7
ENDMDL
MODEL 6
REMARK VINA RESULT:      -8.4      5.227      8.828
REMARK  Name = 
REMARK  8 active torsions:
REMARK  status: ('A' for Active; 'I' for Inactive)
REMARK    1  A    between atoms: C_1  and  N_2
REMARK    2  A    between atoms: C_4  and  C_5
REMARK    3  A    between atoms: C_7  and  O_8
REMARK    4  A    between atoms: O_8  and  C_9
REMARK    5  A    between atoms: C_9  and  C_10
REMARK    6  A    between atoms: C_10  and  N_11
REMARK    7  A    between atoms: C_26  and  O_27
REMARK    8  A    between atoms: C_26  and  C_28
REMARK                            x       y       z     vdW  Elec       q    Type
REMARK                         _______ _______ _______ _____ _____    ______ ____
ROOT
ATOM      1  C   UNL     1      -0.788  11.803  20.107  0.00  0.00    +0.000 A 
ATOM      2  C   UNL     1       0.424  11.155  19.767  0.00  0.00    +0.000 A 
ATOM      3  C   UNL     1       0.529  10.257  18.691  0.00  0.00    +0.000 A 
ATOM      4  C   UNL     1      -0.605   9.920  17.968  0.00  0.00    +0.000 A 
ATOM      5  C   UNL     1      -1.803  10.562  18.277  0.00  0.00    +0.000 A 
ATOM      6  C   UNL     1      -1.913  11.528  19.318  0.00  0.00    +0.000 A 
ATOM      7  C   UNL     1      -3.295  12.011  19.320  0.00  0.00    +0.000 A 
ATOM      8  C   UNL     1      -3.931  13.018  20.032  0.00  0.00    +0.000 A 
ATOM      9  C   UNL     1      -5.309  13.220  19.875  0.00  0.00    +0.000 A 
ATOM     10  C   UNL     1      -6.046  12.460  18.962  0.00  0.00    +0.000 A 
ATOM     11  C   UNL     1      -5.411  11.495  18.186  0.00  0.00    +0.000 A 
ATOM     12  C   UNL     1      -4.045  11.291  18.363  0.00  0.00    +0.000 A 
ATOM     13  C   UNL     1      -3.151  10.331  17.588  0.00  0.00    +0.000 C 
ENDROOT
BRANCH   1  17
ATOM     14  C   UNL     1      -0.173  15.741  23.067  0.00  0.00    +0.000 C 
ATOM     15  N   UNL     1      -0.536  14.439  22.563  0.00  0.00    +0.000 N 
ATOM     16  C   UNL     1      -0.512  14.020  21.265  0.00  0.00    +0.000 A 
ATOM     17  C   UNL     1      -0.792  12.666  21.281  0.00  0.00    +0.000 A 
ATOM     18  C   UNL     1      -0.936  12.378  22.658  0.00  0.00    +0.000 A 
ATOM     19  N   UNL     1      -0.844  13.462  23.432  0.00  0.00    +0.000 NA
ENDBRANCH   1  17
BRANCH  13  20
ATOM     20  C   UNL     1      -3.127  10.606  16.046  0.00  0.00    +0.000 C 
ATOM     21  F   UNL     1      -4.364  10.818  15.530  0.00  0.00    +0.000 F 
ATOM     22  F   UNL     1      -2.400  11.715  15.750  0.00  0.00    +0.000 F 
ATOM     23  F   UNL     1      -2.582   9.592  15.329  0.00  0.00    +0.000 F 
ENDBRANCH  13  20
BRANCH  13  24
ATOM     24  O   UNL     1      -3.582   8.997  17.920  0.00  0.00    +0.000 OA
ATOM     25  H   UNL     1      -4.554   9.018  17.977  0.00  0.00    +0.000 HD
ENDBRANCH  13  24
BRANCH   3  26
ATOM     26  O   UNL     1       1.781   9.752  18.462  0.00  0.00    +0.000 OA
BRANCH  26  27
ATOM     27  C   UNL     1       1.821   8.531  17.712  0.00  0.00    +0.000 C 
BRANCH  27  28
ATOM     28  C   UNL     1       3.010   7.691  18.196  0.00  0.00    +0.000 C 
BRANCH  28  29
ATOM     29  N   UNL     1       2.617   6.552  19.017  0.00  0.00    +0.000 N 
ATOM     30  C   UNL     1       1.865   6.691  20.233  0.00  0.00    +0.000 C 
ATOM     31  C   UNL     1       1.849   5.276  20.786  0.00  0.00    +0.000 C 
ATOM     32  C   UNL     1       1.834   4.405  19.537  0.00  0.00    +0.000 C 
ATOM     33  C   UNL     1       2.554   5.254  18.519  0.00  0.00    +0.000 C 
ATOM     34  O   UNL     1       2.941   4.873  17.422  0.00  0.00    +0.000 OA
ENDBRANCH  28  29
ENDBRANCH  27  28
ENDBRANCH  26  27
ENDBRANCH   3  26
TORSDOF 7
ENDMDL
MODEL 7
REMARK VINA RESULT:      -8.3      4.751      7.858
REMARK  Name = 
REMARK  8 active torsions:
REMARK  status: ('A' for Active; 'I' for Inactive)
REMARK    1  A    between atoms: C_1  and  N_2
REMARK    2  A    between atoms: C_4  and  C_5
REMARK    3  A    between atoms: C_7  and  O_8
REMARK    4  A    between atoms: O_8  and  C_9
REMARK    5  A    between atoms: C_9  and  C_10
REMARK    6  A    between atoms: C_10  and  N_11
REMARK    7  A    between atoms: C_26  and  O_27
REMARK    8  A    between atoms: C_26  and  C_28
REMARK                            x       y       z     vdW  Elec       q    Type
REMARK                         _______ _______ _______ _____ _____    ______ ____
ROOT
ATOM      1  C   UNL     1      -0.936  10.076  17.896  0.00  0.00    +0.000 A 
ATOM      2  C   UNL     1       0.143   9.237  17.526  0.00  0.00    +0.000 A 
ATOM      3  C   UNL     1       1.163   8.873  18.421  0.00  0.00    +0.000 A 
ATOM      4  C   UNL     1       1.174   9.407  19.701  0.00  0.00    +0.000 A 
ATOM      5  C   UNL     1       0.109  10.219  20.088  0.00  0.00    +0.000 A 
ATOM      6  C   UNL     1      -0.971  10.541  19.217  0.00  0.00    +0.000 A 
ATOM      7  C   UNL     1      -1.910  11.370  19.976  0.00  0.00    +0.000 A 
ATOM      8  C   UNL     1      -3.168  11.871  19.673  0.00  0.00    +0.000 A 
ATOM      9  C   UNL     1      -3.823  12.708  20.585  0.00  0.00    +0.000 A 
ATOM     10  C   UNL     1      -3.253  13.000  21.828  0.00  0.00    +0.000 A 
ATOM     11  C   UNL     1      -2.026  12.448  22.179  0.00  0.00    +0.000 A 
ATOM     12  C   UNL     1      -1.375  11.631  21.257  0.00  0.00    +0.000 A 
ATOM     13  C   UNL     1      -0.059  10.889  21.455  0.00  0.00    +0.000 C 
ENDROOT
BRANCH   1  17
ATOM     14  C   UNL     1      -3.844   9.867  13.877  0.00  0.00    +0.000 C 
ATOM     15  N   UNL     1      -3.204  10.303  15.094  0.00  0.00    +0.000 N 
ATOM     16  C   UNL     1      -2.404   9.564  15.917  0.00  0.00    +0.000 A 
ATOM     17  C   UNL     1      -1.902  10.436  16.866  0.00  0.00    +0.000 A 
ATOM     18  C   UNL     1      -2.452  11.683  16.489  0.00  0.00    +0.000 A 
ATOM     19  N   UNL     1      -3.291  11.593  15.454  0.00  0.00    +0.000 NA
ENDBRANCH   1  17
BRANCH  13  20
ATOM     20  C   UNL     1      -0.084   9.880  22.653  0.00  0.00    +0.000 C 
ATOM     21  F   UNL     1      -0.691  10.388  23.756  0.00  0.00    +0.000 F 
ATOM     22  F   UNL     1      -0.765   8.747  22.336  0.00  0.00    +0.000 F 
ATOM     23  F   UNL     1       1.152   9.483  23.046  0.00  0.00    +0.000 F 
ENDBRANCH  13  20
BRANCH  13  24
ATOM     24  O   UNL     1       0.971  11.889  21.576  0.00  0.00    +0.000 OA
ATOM     25  H   UNL     1       1.805  11.472  21.298  0.00  0.00    +0.000 HD
ENDBRANCH  13  24
BRANCH   3  26
ATOM     26  O   UNL     1       2.109   8.016  17.923  0.00  0.00    +0.000 OA
BRANCH  26  27
ATOM     27  C   UNL     1       2.570   7.015  18.840  0.00  0.00    +0.000 C 
BRANCH  27  28
ATOM     28  C   UNL     1       3.309   5.926  18.052  0.00  0.00    +0.000 C 
BRANCH  28  29
ATOM     29  N   UNL     1       2.799   4.583  18.303  0.00  0.00    +0.000 N 
ATOM     30  C   UNL     1       1.518   4.136  17.829  0.00  0.00    +0.000 C 
ATOM     31  C   UNL     1       1.380   2.765  18.466  0.00  0.00    +0.000 C 
ATOM     32  C   UNL     1       2.812   2.250  18.519  0.00  0.00    +0.000 C 
ATOM     33  C   UNL     1       3.626   3.514  18.632  0.00  0.00    +0.000 C 
ATOM     34  O   UNL     1       4.821   3.570  18.894  0.00  0.00    +0.000 OA
ENDBRANCH  28  29
ENDBRANCH  27  28
ENDBRANCH  26  27
ENDBRANCH   3  26
TORSDOF 7
ENDMDL
MODEL 8
REMARK VINA RESULT:      -8.3      5.318      8.836
REMARK  Name = 
REMARK  8 active torsions:
REMARK  status: ('A' for Active; 'I' for Inactive)
REMARK    1  A    between atoms: C_1  and  N_2
REMARK    2  A    between atoms: C_4  and  C_5
REMARK    3  A    between atoms: C_7  and  O_8
REMARK    4  A    between atoms: O_8  and  C_9
REMARK    5  A    between atoms: C_9  and  C_10
REMARK    6  A    between atoms: C_10  and  N_11
REMARK    7  A    between atoms: C_26  and  O_27
REMARK    8  A    between atoms: C_26  and  C_28
REMARK                            x       y       z     vdW  Elec       q    Type
REMARK                         _______ _______ _______ _____ _____    ______ ____
ROOT
ATOM      1  C   UNL     1      -0.803  11.879  20.151  0.00  0.00    +0.000 A 
ATOM      2  C   UNL     1       0.414  11.239  19.810  0.00  0.00    +0.000 A 
ATOM      3  C   UNL     1       0.526  10.344  18.734  0.00  0.00    +0.000 A 
ATOM      4  C   UNL     1      -0.606   9.999  18.010  0.00  0.00    +0.000 A 
ATOM      5  C   UNL     1      -1.808  10.633  18.320  0.00  0.00    +0.000 A 
ATOM      6  C   UNL     1      -1.925  11.597  19.361  0.00  0.00    +0.000 A 
ATOM      7  C   UNL     1      -3.311  12.070  19.364  0.00  0.00    +0.000 A 
ATOM      8  C   UNL     1      -3.954  13.071  20.077  0.00  0.00    +0.000 A 
ATOM      9  C   UNL     1      -5.333  13.264  19.920  0.00  0.00    +0.000 A 
ATOM     10  C   UNL     1      -6.065  12.499  19.006  0.00  0.00    +0.000 A 
ATOM     11  C   UNL     1      -5.423  11.540  18.229  0.00  0.00    +0.000 A 
ATOM     12  C   UNL     1      -4.055  11.346  18.406  0.00  0.00    +0.000 A 
ATOM     13  C   UNL     1      -3.155  10.393  17.631  0.00  0.00    +0.000 C 
ENDROOT
BRANCH   1  17
ATOM     14  C   UNL     1      -0.203  15.813  23.119  0.00  0.00    +0.000 C 
ATOM     15  N   UNL     1      -0.563  14.512  22.611  0.00  0.00    +0.000 N 
ATOM     16  C   UNL     1      -0.532  14.095  21.312  0.00  0.00    +0.000 A 
ATOM     17  C   UNL     1      -0.813  12.740  21.326  0.00  0.00    +0.000 A 
ATOM     18  C   UNL     1      -0.965  12.452  22.702  0.00  0.00    +0.000 A 
ATOM     19  N   UNL     1      -0.877  13.535  23.477  0.00  0.00    +0.000 NA
ENDBRANCH   1  17
BRANCH  13  20
ATOM     20  C   UNL     1      -3.132  10.670  16.088  0.00  0.00    +0.000 C 
ATOM     21  F   UNL     1      -2.412  11.773  15.763  0.00  0.00    +0.000 F 
ATOM     22  F   UNL     1      -2.571   9.638  15.406  0.00  0.00    +0.000 F 
ATOM     23  F   UNL     1      -4.368  10.849  15.558  0.00  0.00    +0.000 F 
ENDBRANCH  13  20
BRANCH  13  24
ATOM     24  O   UNL     1      -3.577   9.055  17.962  0.00  0.00    +0.000 OA
ATOM     25  H   UNL     1      -4.269   9.135  18.641  0.00  0.00    +0.000 HD
ENDBRANCH  13  24
BRANCH   3  26
ATOM     26  O   UNL     1       1.781   9.848  18.504  0.00  0.00    +0.000 OA
BRANCH  26  27
ATOM     27  C   UNL     1       1.836   8.683  17.671  0.00  0.00    +0.000 C 
BRANCH  27  28
ATOM     28  C   UNL     1       3.082   7.869  18.039  0.00  0.00    +0.000 C 
BRANCH  28  29
ATOM     29  N   UNL     1       2.779   6.503  18.451  0.00  0.00    +0.000 N 
ATOM     30  C   UNL     1       3.386   5.352  17.840  0.00  0.00    +0.000 C 
ATOM     31  C   UNL     1       2.647   4.194  18.486  0.00  0.00    +0.000 C 
ATOM     32  C   UNL     1       2.341   4.705  19.889  0.00  0.00    +0.000 C 
ATOM     33  C   UNL     1       2.235   6.196  19.694  0.00  0.00    +0.000 C 
ATOM     34  O   UNL     1       1.813   6.993  20.522  0.00  0.00    +0.000 OA
ENDBRANCH  28  29
ENDBRANCH  27  28
ENDBRANCH  26  27
ENDBRANCH   3  26
TORSDOF 7
ENDMDL
MODEL 9
REMARK VINA RESULT:      -8.3      2.740      7.256
REMARK  Name = 
REMARK  8 active torsions:
REMARK  status: ('A' for Active; 'I' for Inactive)
REMARK    1  A    between atoms: C_1  and  N_2
REMARK    2  A    between atoms: C_4  and  C_5
REMARK    3  A    between atoms: C_7  and  O_8
REMARK    4  A    between atoms: O_8  and  C_9
REMARK    5  A    between atoms: C_9  and  C_10
REMARK    6  A    between atoms: C_10  and  N_11
REMARK    7  A    between atoms: C_26  and  O_27
REMARK    8  A    between atoms: C_26  and  C_28
REMARK                            x       y       z     vdW  Elec       q    Type
REMARK                         _______ _______ _______ _____ _____    ______ ____
ROOT
ATOM      1  C   UNL     1       4.297   6.191  17.132  0.00  0.00    +0.000 A 
ATOM      2  C   UNL     1       3.843   7.530  17.217  0.00  0.00    +0.000 A 
ATOM      3  C   UNL     1       2.707   7.901  17.955  0.00  0.00    +0.000 A 
ATOM      4  C   UNL     1       1.940   6.922  18.570  0.00  0.00    +0.000 A 
ATOM      5  C   UNL     1       2.382   5.602  18.512  0.00  0.00    +0.000 A 
ATOM      6  C   UNL     1       3.571   5.216  17.829  0.00  0.00    +0.000 A 
ATOM      7  C   UNL     1       3.734   3.773  18.018  0.00  0.00    +0.000 A 
ATOM      8  C   UNL     1       4.752   2.896  17.675  0.00  0.00    +0.000 A 
ATOM      9  C   UNL     1       4.607   1.525  17.928  0.00  0.00    +0.000 A 
ATOM     10  C   UNL     1       3.472   1.032  18.579  0.00  0.00    +0.000 A 
ATOM     11  C   UNL     1       2.474   1.907  18.996  0.00  0.00    +0.000 A 
ATOM     12  C   UNL     1       2.621   3.265  18.724  0.00  0.00    +0.000 A 
ATOM     13  C   UNL     1       1.680   4.391  19.133  0.00  0.00    +0.000 C 
ENDROOT
BRANCH   1  17
ATOM     14  C   UNL     1       7.118   4.564  13.384  0.00  0.00    +0.000 C 
ATOM     15  N   UNL     1       6.673   5.209  14.595  0.00  0.00    +0.000 N 
ATOM     16  C   UNL     1       5.386   5.395  15.007  0.00  0.00    +0.000 A 
ATOM     17  C   UNL     1       5.452   5.916  16.287  0.00  0.00    +0.000 A 
ATOM     18  C   UNL     1       6.841   5.968  16.548  0.00  0.00    +0.000 A 
ATOM     19  N   UNL     1       7.584   5.601  15.501  0.00  0.00    +0.000 NA
ENDBRANCH   1  17
BRANCH  13  20
ATOM     20  C   UNL     1       1.479   4.505  20.683  0.00  0.00    +0.000 C 
ATOM     21  F   UNL     1       2.651   4.616  21.358  0.00  0.00    +0.000 F 
ATOM     22  F   UNL     1       0.749   5.604  21.011  0.00  0.00    +0.000 F 
ATOM     23  F   UNL     1       0.828   3.443  21.219  0.00  0.00    +0.000 F 
ENDBRANCH  13  20
BRANCH  13  24
ATOM     24  O   UNL     1       0.448   4.190  18.414  0.00  0.00    +0.000 OA
ATOM     25  H   UNL     1       0.455   4.807  17.661  0.00  0.00    +0.000 HD
ENDBRANCH  13  24
BRANCH   3  26
ATOM     26  O   UNL     1       2.428   9.242  17.978  0.00  0.00    +0.000 OA
BRANCH  26  27
ATOM     27  C   UNL     1       1.139   9.590  18.499  0.00  0.00    +0.000 C 
BRANCH  27  28
ATOM     28  C   UNL     1       1.293  10.793  19.437  0.00  0.00    +0.000 C 
BRANCH  28  29
ATOM     29  N   UNL     1       0.585  10.634  20.702  0.00  0.00    +0.000 N 
ATOM     30  C   UNL     1      -0.664  11.287  20.983  0.00  0.00    +0.000 C 
ATOM     31  C   UNL     1      -0.906  10.945  22.443  0.00  0.00    +0.000 C 
ATOM     32  C   UNL     1      -0.293   9.558  22.590  0.00  0.00    +0.000 C 
ATOM     33  C   UNL     1       0.805   9.558  21.556  0.00  0.00    +0.000 C 
ATOM     34  O   UNL     1       1.683   8.711  21.451  0.00  0.00    +0.000 OA
ENDBRANCH  28  29
ENDBRANCH  27  28
ENDBRANCH  26  27
ENDBRANCH   3  26
TORSDOF 7
ENDMDL
