MODEL 1
REMARK VINA RESULT:      -7.5      0.000      0.000
REMARK  Name = 
REMARK  5 active torsions:
REMARK  status: ('A' for Active; 'I' for Inactive)
REMARK    1  A    between atoms: C_2  and  C_4
REMARK    2  A    between atoms: C_4  and  O_5
REMARK    3  A    between atoms: O_5  and  C_6
REMARK    4  A    between atoms: C_11  and  C_12
REMARK    5  A    between atoms: N_14  and  C_15
REMARK                            x       y       z     vdW  Elec       q    Type
REMARK                         _______ _______ _______ _____ _____    ______ ____
ROOT
ATOM      1  C   UNL     1       6.842   5.057  15.462  0.00  0.00    +0.000 A 
ATOM      2  C   UNL     1       7.605   4.996  14.280  0.00  0.00    +0.000 A 
ATOM      3  C   UNL     1       7.113   4.380  13.126  0.00  0.00    +0.000 A 
ATOM      4  C   UNL     1       5.850   3.812  13.128  0.00  0.00    +0.000 A 
ATOM      5  C   UNL     1       5.085   3.860  14.289  0.00  0.00    +0.000 A 
ATOM      6  C   UNL     1       5.556   4.480  15.467  0.00  0.00    +0.000 A 
ENDROOT
BRANCH   6   7
ATOM      7  C   UNL     1       4.608   4.425  16.628  0.00  0.00    +0.000 C 
ATOM      8  O   UNL     1       4.096   5.486  16.986  0.00  0.00    +0.000 OA
ATOM      9  N   UNL     1       4.389   3.211  17.257  0.00  0.00    +0.000 N 
ATOM     10  H   UNL     1       4.983   2.434  16.986  0.00  0.00    +0.000 HD
BRANCH   9  11
ATOM     11  C   UNL     1       3.484   3.000  18.326  0.00  0.00    +0.000 A 
ATOM     12  C   UNL     1       3.873   3.019  19.671  0.00  0.00    +0.000 A 
ATOM     13  C   UNL     1       2.954   2.779  20.696  0.00  0.00    +0.000 A 
ATOM     14  C   UNL     1       1.625   2.515  20.386  0.00  0.00    +0.000 A 
ATOM     15  C   UNL     1       1.215   2.512  19.054  0.00  0.00    +0.000 A 
ATOM     16  C   UNL     1       2.135   2.768  18.029  0.00  0.00    +0.000 A 
ENDBRANCH   9  11
ENDBRANCH   6   7
BRANCH   1  17
ATOM     17  O   UNL     1       7.280   5.703  16.593  0.00  0.00    +0.000 OA
BRANCH  17  18
ATOM     18  C   UNL     1       7.647   4.881  17.704  0.00  0.00    +0.000 C 
BRANCH  18  20
ATOM     19  N   UNL     1       8.279   6.930  18.872  0.00  0.00    +0.000 N 
ATOM     20  C   UNL     1       7.681   5.706  18.984  0.00  0.00    +0.000 C 
ATOM     21  O   UNL     1       7.283   5.293  20.067  0.00  0.00    +0.000 OA
ATOM     22  H   UNL     1       8.419   7.463  19.721  0.00  0.00    +0.000 HD
ATOM     23  H   UNL     1       8.786   7.195  18.037  0.00  0.00    +0.000 HD
ENDBRANCH  18  20
ENDBRANCH  17  18
ENDBRANCH   1  17
TORSDOF 5
ENDMDL
MODEL 2
REMARK VINA RESULT:      -7.5      1.991      3.835
REMARK  Name = 
REMARK  5 active torsions:
REMARK  status: ('A' for Active; 'I' for Inactive)
REMARK    1  A    between atoms: C_2  and  C_4
REMARK    2  A    between atoms: C_4  and  O_5
REMARK    3  A    between atoms: O_5  and  C_6
REMARK    4  A    between atoms: C_11  and  C_12
REMARK    5  A    between atoms: N_14  and  C_15
REMARK                            x       y       z     vdW  Elec       q    Type
REMARK                         _______ _______ _______ _____ _____    ______ ____
ROOT
ATOM      1  C   UNL     1       6.073   6.620  17.485  0.00  0.00    +0.000 A 
ATOM      2  C   UNL     1       7.130   7.534  17.307  0.00  0.00    +0.000 A 
ATOM      3  C   UNL     1       8.235   7.546  18.163  0.00  0.00    +0.000 A 
ATOM      4  C   UNL     1       8.307   6.648  19.215  0.00  0.00    +0.000 A 
ATOM      5  C   UNL     1       7.269   5.742  19.407  0.00  0.00    +0.000 A 
ATOM      6  C   UNL     1       6.144   5.705  18.554  0.00  0.00    +0.000 A 
ENDROOT
BRANCH   6   7
ATOM      7  C   UNL     1       5.114   4.676  18.917  0.00  0.00    +0.000 C 
ATOM      8  O   UNL     1       5.525   3.573  19.278  0.00  0.00    +0.000 OA
ATOM      9  N   UNL     1       3.773   4.999  18.792  0.00  0.00    +0.000 N 
ATOM     10  H   UNL     1       3.547   5.875  18.335  0.00  0.00    +0.000 HD
BRANCH   9  11
ATOM     11  C   UNL     1       2.696   4.150  19.148  0.00  0.00    +0.000 A 
ATOM     12  C   UNL     1       2.058   3.302  18.234  0.00  0.00    +0.000 A 
ATOM     13  C   UNL     1       0.981   2.499  18.619  0.00  0.00    +0.000 A 
ATOM     14  C   UNL     1       0.524   2.536  19.931  0.00  0.00    +0.000 A 
ATOM     15  C   UNL     1       1.159   3.359  20.860  0.00  0.00    +0.000 A 
ATOM     16  C   UNL     1       2.250   4.151  20.475  0.00  0.00    +0.000 A 
ENDBRANCH   9  11
ENDBRANCH   6   7
BRANCH   1  17
ATOM     17  O   UNL     1       5.003   6.551  16.626  0.00  0.00    +0.000 OA
BRANCH  17  18
ATOM     18  C   UNL     1       5.294   6.265  15.255  0.00  0.00    +0.000 C 
BRANCH  18  20
ATOM     19  N   UNL     1       7.355   5.134  14.595  0.00  0.00    +0.000 N 
ATOM     20  C   UNL     1       6.112   4.985  15.144  0.00  0.00    +0.000 C 
ATOM     21  O   UNL     1       5.681   3.877  15.441  0.00  0.00    +0.000 OA
ATOM     22  H   UNL     1       7.887   4.295  14.404  0.00  0.00    +0.000 HD
ATOM     23  H   UNL     1       7.641   6.005  14.165  0.00  0.00    +0.000 HD
ENDBRANCH  18  20
ENDBRANCH  17  18
ENDBRANCH   1  17
TORSDOF 5
ENDMDL
MODEL 3
REMARK VINA RESULT:      -7.4      2.006      3.740
REMARK  Name = 
REMARK  5 active torsions:
REMARK  status: ('A' for Active; 'I' for Inactive)
REMARK    1  A    between atoms: C_2  and  C_4
REMARK    2  A    between atoms: C_4  and  O_5
REMARK    3  A    between atoms: O_5  and  C_6
REMARK    4  A    between atoms: C_11  and  C_12
REMARK    5  A    between atoms: N_14  and  C_15
REMARK                            x       y       z     vdW  Elec       q    Type
REMARK                         _______ _______ _______ _____ _____    ______ ____
ROOT
ATOM      1  C   UNL     1       6.056   6.632  17.521  0.00  0.00    +0.000 A 
ATOM      2  C   UNL     1       7.124   7.535  17.345  0.00  0.00    +0.000 A 
ATOM      3  C   UNL     1       8.236   7.522  18.192  0.00  0.00    +0.000 A 
ATOM      4  C   UNL     1       8.305   6.610  19.232  0.00  0.00    +0.000 A 
ATOM      5  C   UNL     1       7.258   5.715  19.421  0.00  0.00    +0.000 A 
ATOM      6  C   UNL     1       6.124   5.703  18.578  0.00  0.00    +0.000 A 
ENDROOT
BRANCH   6   7
ATOM      7  C   UNL     1       5.085   4.683  18.938  0.00  0.00    +0.000 C 
ATOM      8  O   UNL     1       5.483   3.566  19.266  0.00  0.00    +0.000 OA
ATOM      9  N   UNL     1       3.747   5.030  18.844  0.00  0.00    +0.000 N 
ATOM     10  H   UNL     1       3.527   5.920  18.410  0.00  0.00    +0.000 HD
BRANCH   9  11
ATOM     11  C   UNL     1       2.662   4.190  19.201  0.00  0.00    +0.000 A 
ATOM     12  C   UNL     1       2.135   4.133  20.497  0.00  0.00    +0.000 A 
ATOM     13  C   UNL     1       1.082   3.271  20.813  0.00  0.00    +0.000 A 
ATOM     14  C   UNL     1       0.540   2.449  19.833  0.00  0.00    +0.000 A 
ATOM     15  C   UNL     1       1.038   2.507  18.532  0.00  0.00    +0.000 A 
ATOM     16  C   UNL     1       2.084   3.384  18.213  0.00  0.00    +0.000 A 
ENDBRANCH   9  11
ENDBRANCH   6   7
BRANCH   1  17
ATOM     17  O   UNL     1       4.977   6.588  16.671  0.00  0.00    +0.000 OA
BRANCH  17  18
ATOM     18  C   UNL     1       5.253   6.319  15.293  0.00  0.00    +0.000 C 
BRANCH  18  20
ATOM     19  N   UNL     1       7.300   5.162  14.631  0.00  0.00    +0.000 N 
ATOM     20  C   UNL     1       6.045   5.025  15.155  0.00  0.00    +0.000 C 
ATOM     21  O   UNL     1       5.583   3.918  15.410  0.00  0.00    +0.000 OA
ATOM     22  H   UNL     1       7.815   4.318  14.422  0.00  0.00    +0.000 HD
ATOM     23  H   UNL     1       7.612   6.039  14.233  0.00  0.00    +0.000 HD
ENDBRANCH  18  20
ENDBRANCH  17  18
ENDBRANCH   1  17
TORSDOF 5
ENDMDL
MODEL 4
REMARK VINA RESULT:      -7.4      1.346      5.533
REMARK  Name = 
REMARK  5 active torsions:
REMARK  status: ('A' for Active; 'I' for Inactive)
REMARK    1  A    between atoms: C_2  and  C_4
REMARK    2  A    between atoms: C_4  and  O_5
REMARK    3  A    between atoms: O_5  and  C_6
REMARK    4  A    between atoms: C_11  and  C_12
REMARK    5  A    between atoms: N_14  and  C_15
REMARK                            x       y       z     vdW  Elec       q    Type
REMARK                         _______ _______ _______ _____ _____    ______ ____
ROOT
ATOM      1  C   UNL     1       4.731   3.601  18.840  0.00  0.00    +0.000 A 
ATOM      2  C   UNL     1       3.969   3.000  19.861  0.00  0.00    +0.000 A 
ATOM      3  C   UNL     1       2.693   2.487  19.612  0.00  0.00    +0.000 A 
ATOM      4  C   UNL     1       2.151   2.563  18.340  0.00  0.00    +0.000 A 
ATOM      5  C   UNL     1       2.890   3.157  17.321  0.00  0.00    +0.000 A 
ATOM      6  C   UNL     1       4.183   3.680  17.545  0.00  0.00    +0.000 A 
ENDROOT
BRANCH   6   7
ATOM      7  C   UNL     1       4.827   4.298  16.339  0.00  0.00    +0.000 C 
ATOM      8  O   UNL     1       4.648   5.502  16.161  0.00  0.00    +0.000 OA
ATOM      9  N   UNL     1       5.547   3.488  15.477  0.00  0.00    +0.000 N 
ATOM     10  H   UNL     1       5.496   2.486  15.629  0.00  0.00    +0.000 HD
BRANCH   9  11
ATOM     11  C   UNL     1       6.251   3.940  14.333  0.00  0.00    +0.000 A 
ATOM     12  C   UNL     1       7.237   4.933  14.387  0.00  0.00    +0.000 A 
ATOM     13  C   UNL     1       7.889   5.371  13.231  0.00  0.00    +0.000 A 
ATOM     14  C   UNL     1       7.560   4.819  11.999  0.00  0.00    +0.000 A 
ATOM     15  C   UNL     1       6.595   3.815  11.928  0.00  0.00    +0.000 A 
ATOM     16  C   UNL     1       5.954   3.367  13.091  0.00  0.00    +0.000 A 
ENDBRANCH   9  11
ENDBRANCH   6   7
BRANCH   1  17
ATOM     17  O   UNL     1       6.008   4.065  19.046  0.00  0.00    +0.000 OA
BRANCH  17  18
ATOM     18  C   UNL     1       6.147   5.453  19.363  0.00  0.00    +0.000 C 
BRANCH  18  20
ATOM     19  N   UNL     1       8.393   5.256  20.301  0.00  0.00    +0.000 N 
ATOM     20  C   UNL     1       7.616   5.854  19.348  0.00  0.00    +0.000 C 
ATOM     21  O   UNL     1       8.078   6.710  18.601  0.00  0.00    +0.000 OA
ATOM     22  H   UNL     1       9.348   5.576  20.395  0.00  0.00    +0.000 HD
ATOM     23  H   UNL     1       7.985   4.705  21.045  0.00  0.00    +0.000 HD
ENDBRANCH  18  20
ENDBRANCH  17  18
ENDBRANCH   1  17
TORSDOF 5
ENDMDL
MODEL 5
REMARK VINA RESULT:      -7.4      1.420      1.518
REMARK  Name = 
REMARK  5 active torsions:
REMARK  status: ('A' for Active; 'I' for Inactive)
REMARK    1  A    between atoms: C_2  and  C_4
REMARK    2  A    between atoms: C_4  and  O_5
REMARK    3  A    between atoms: O_5  and  C_6
REMARK    4  A    between atoms: C_11  and  C_12
REMARK    5  A    between atoms: N_14  and  C_15
REMARK                            x       y       z     vdW  Elec       q    Type
REMARK                         _______ _______ _______ _____ _____    ______ ____
ROOT
ATOM      1  C   UNL     1       6.099   5.476  16.282  0.00  0.00    +0.000 A 
ATOM      2  C   UNL     1       7.042   5.678  15.255  0.00  0.00    +0.000 A 
ATOM      3  C   UNL     1       7.047   4.886  14.104  0.00  0.00    +0.000 A 
ATOM      4  C   UNL     1       6.111   3.876  13.953  0.00  0.00    +0.000 A 
ATOM      5  C   UNL     1       5.175   3.662  14.959  0.00  0.00    +0.000 A 
ATOM      6  C   UNL     1       5.145   4.449  16.131  0.00  0.00    +0.000 A 
ENDROOT
BRANCH   6   7
ATOM      7  C   UNL     1       4.080   4.069  17.117  0.00  0.00    +0.000 C 
ATOM      8  O   UNL     1       3.029   3.618  16.663  0.00  0.00    +0.000 OA
ATOM      9  N   UNL     1       4.313   4.280  18.466  0.00  0.00    +0.000 N 
ATOM     10  H   UNL     1       5.143   4.804  18.718  0.00  0.00    +0.000 HD
BRANCH   9  11
ATOM     11  C   UNL     1       3.424   3.921  19.510  0.00  0.00    +0.000 A 
ATOM     12  C   UNL     1       3.630   2.813  20.342  0.00  0.00    +0.000 A 
ATOM     13  C   UNL     1       2.714   2.478  21.342  0.00  0.00    +0.000 A 
ATOM     14  C   UNL     1       1.573   3.251  21.525  0.00  0.00    +0.000 A 
ATOM     15  C   UNL     1       1.361   4.369  20.720  0.00  0.00    +0.000 A 
ATOM     16  C   UNL     1       2.289   4.712  19.727  0.00  0.00    +0.000 A 
ENDBRANCH   9  11
ENDBRANCH   6   7
BRANCH   1  17
ATOM     17  O   UNL     1       6.039   6.274  17.399  0.00  0.00    +0.000 OA
BRANCH  17  18
ATOM     18  C   UNL     1       7.284   6.613  18.016  0.00  0.00    +0.000 C 
BRANCH  18  20
ATOM     19  N   UNL     1       8.033   5.679  20.145  0.00  0.00    +0.000 N 
ATOM     20  C   UNL     1       7.814   5.432  18.818  0.00  0.00    +0.000 C 
ATOM     21  O   UNL     1       8.111   4.353  18.319  0.00  0.00    +0.000 OA
ATOM     22  H   UNL     1       8.486   4.956  20.688  0.00  0.00    +0.000 HD
ATOM     23  H   UNL     1       7.982   6.617  20.522  0.00  0.00    +0.000 HD
ENDBRANCH  18  20
ENDBRANCH  17  18
ENDBRANCH   1  17
TORSDOF 5
ENDMDL
MODEL 6
REMARK VINA RESULT:      -7.4      1.434      1.674
REMARK  Name = 
REMARK  5 active torsions:
REMARK  status: ('A' for Active; 'I' for Inactive)
REMARK    1  A    between atoms: C_2  and  C_4
REMARK    2  A    between atoms: C_4  and  O_5
REMARK    3  A    between atoms: O_5  and  C_6
REMARK    4  A    between atoms: C_11  and  C_12
REMARK    5  A    between atoms: N_14  and  C_15
REMARK                            x       y       z     vdW  Elec       q    Type
REMARK                         _______ _______ _______ _____ _____    ______ ____
ROOT
ATOM      1  C   UNL     1       6.158   5.488  16.200  0.00  0.00    +0.000 A 
ATOM      2  C   UNL     1       7.096   5.677  15.166  0.00  0.00    +0.000 A 
ATOM      3  C   UNL     1       7.087   4.880  14.018  0.00  0.00    +0.000 A 
ATOM      4  C   UNL     1       6.142   3.878  13.878  0.00  0.00    +0.000 A 
ATOM      5  C   UNL     1       5.210   3.675  14.891  0.00  0.00    +0.000 A 
ATOM      6  C   UNL     1       5.195   4.468  16.060  0.00  0.00    +0.000 A 
ENDROOT
BRANCH   6   7
ATOM      7  C   UNL     1       4.134   4.101  17.054  0.00  0.00    +0.000 C 
ATOM      8  O   UNL     1       3.100   3.599  16.614  0.00  0.00    +0.000 OA
ATOM      9  N   UNL     1       4.348   4.378  18.394  0.00  0.00    +0.000 N 
ATOM     10  H   UNL     1       5.161   4.938  18.628  0.00  0.00    +0.000 HD
BRANCH   9  11
ATOM     11  C   UNL     1       3.461   4.041  19.447  0.00  0.00    +0.000 A 
ATOM     12  C   UNL     1       2.372   4.841  19.814  0.00  0.00    +0.000 A 
ATOM     13  C   UNL     1       1.537   4.486  20.876  0.00  0.00    +0.000 A 
ATOM     14  C   UNL     1       1.782   3.318  21.590  0.00  0.00    +0.000 A 
ATOM     15  C   UNL     1       2.849   2.499  21.226  0.00  0.00    +0.000 A 
ATOM     16  C   UNL     1       3.676   2.849  20.150  0.00  0.00    +0.000 A 
ENDBRANCH   9  11
ENDBRANCH   6   7
BRANCH   1  17
ATOM     17  O   UNL     1       6.112   6.291  17.314  0.00  0.00    +0.000 OA
BRANCH  17  18
ATOM     18  C   UNL     1       7.360   6.586  17.948  0.00  0.00    +0.000 C 
BRANCH  18  20
ATOM     19  N   UNL     1       8.049   5.630  20.087  0.00  0.00    +0.000 N 
ATOM     20  C   UNL     1       7.836   5.387  18.758  0.00  0.00    +0.000 C 
ATOM     21  O   UNL     1       8.098   4.296  18.264  0.00  0.00    +0.000 OA
ATOM     22  H   UNL     1       8.469   4.892  20.637  0.00  0.00    +0.000 HD
ATOM     23  H   UNL     1       8.029   6.569  20.461  0.00  0.00    +0.000 HD
ENDBRANCH  18  20
ENDBRANCH  17  18
ENDBRANCH   1  17
TORSDOF 5
ENDMDL
MODEL 7
REMARK VINA RESULT:      -7.3      0.726      1.297
REMARK  Name = 
REMARK  5 active torsions:
REMARK  status: ('A' for Active; 'I' for Inactive)
REMARK    1  A    between atoms: C_2  and  C_4
REMARK    2  A    between atoms: C_4  and  O_5
REMARK    3  A    between atoms: O_5  and  C_6
REMARK    4  A    between atoms: C_11  and  C_12
REMARK    5  A    between atoms: N_14  and  C_15
REMARK                            x       y       z     vdW  Elec       q    Type
REMARK                         _______ _______ _______ _____ _____    ______ ____
ROOT
ATOM      1  C   UNL     1       6.801   5.120  15.510  0.00  0.00    +0.000 A 
ATOM      2  C   UNL     1       7.596   5.071  14.348  0.00  0.00    +0.000 A 
ATOM      3  C   UNL     1       7.169   4.395  13.201  0.00  0.00    +0.000 A 
ATOM      4  C   UNL     1       5.941   3.755  13.191  0.00  0.00    +0.000 A 
ATOM      5  C   UNL     1       5.146   3.792  14.331  0.00  0.00    +0.000 A 
ATOM      6  C   UNL     1       5.551   4.470  15.502  0.00  0.00    +0.000 A 
ENDROOT
BRANCH   6   7
ATOM      7  C   UNL     1       4.578   4.393  16.641  0.00  0.00    +0.000 C 
ATOM      8  O   UNL     1       4.050   5.445  17.001  0.00  0.00    +0.000 OA
ATOM      9  N   UNL     1       4.356   3.169  17.250  0.00  0.00    +0.000 N 
ATOM     10  H   UNL     1       4.962   2.401  16.982  0.00  0.00    +0.000 HD
BRANCH   9  11
ATOM     11  C   UNL     1       3.430   2.937  18.297  0.00  0.00    +0.000 A 
ATOM     12  C   UNL     1       2.070   2.688  18.071  0.00  0.00    +0.000 A 
ATOM     13  C   UNL     1       1.184   2.492  19.134  0.00  0.00    +0.000 A 
ATOM     14  C   UNL     1       1.648   2.543  20.443  0.00  0.00    +0.000 A 
ATOM     15  C   UNL     1       3.002   2.769  20.685  0.00  0.00    +0.000 A 
ATOM     16  C   UNL     1       3.892   2.950  19.618  0.00  0.00    +0.000 A 
ENDBRANCH   9  11
ENDBRANCH   6   7
BRANCH   1  17
ATOM     17  O   UNL     1       7.173   5.822  16.631  0.00  0.00    +0.000 OA
BRANCH  17  18
ATOM     18  C   UNL     1       7.550   5.053  17.778  0.00  0.00    +0.000 C 
BRANCH  18  20
ATOM     19  N   UNL     1       8.107   5.391  20.131  0.00  0.00    +0.000 N 
ATOM     20  C   UNL     1       8.026   5.970  18.896  0.00  0.00    +0.000 C 
ATOM     21  O   UNL     1       8.248   7.166  18.743  0.00  0.00    +0.000 OA
ATOM     22  H   UNL     1       8.314   5.991  20.919  0.00  0.00    +0.000 HD
ATOM     23  H   UNL     1       7.737   4.465  20.304  0.00  0.00    +0.000 HD
ENDBRANCH  18  20
ENDBRANCH  17  18
ENDBRANCH   1  17
TORSDOF 5
ENDMDL
MODEL 8
REMARK VINA RESULT:      -7.3      1.341      1.647
REMARK  Name = 
REMARK  5 active torsions:
REMARK  status: ('A' for Active; 'I' for Inactive)
REMARK    1  A    between atoms: C_2  and  C_4
REMARK    2  A    between atoms: C_4  and  O_5
REMARK    3  A    between atoms: O_5  and  C_6
REMARK    4  A    between atoms: C_11  and  C_12
REMARK    5  A    between atoms: N_14  and  C_15
REMARK                            x       y       z     vdW  Elec       q    Type
REMARK                         _______ _______ _______ _____ _____    ______ ____
ROOT
ATOM      1  C   UNL     1       6.618   5.046  15.858  0.00  0.00    +0.000 A 
ATOM      2  C   UNL     1       7.417   5.274  14.720  0.00  0.00    +0.000 A 
ATOM      3  C   UNL     1       7.116   4.687  13.488  0.00  0.00    +0.000 A 
ATOM      4  C   UNL     1       6.012   3.860  13.366  0.00  0.00    +0.000 A 
ATOM      5  C   UNL     1       5.215   3.621  14.480  0.00  0.00    +0.000 A 
ATOM      6  C   UNL     1       5.494   4.205  15.736  0.00  0.00    +0.000 A 
ENDROOT
BRANCH   6   7
ATOM      7  C   UNL     1       4.540   3.826  16.830  0.00  0.00    +0.000 C 
ATOM      8  O   UNL     1       4.538   2.650  17.192  0.00  0.00    +0.000 OA
ATOM      9  N   UNL     1       3.694   4.795  17.344  0.00  0.00    +0.000 N 
ATOM     10  H   UNL     1       3.665   5.688  16.865  0.00  0.00    +0.000 HD
BRANCH   9  11
ATOM     11  C   UNL     1       2.783   4.596  18.411  0.00  0.00    +0.000 A 
ATOM     12  C   UNL     1       1.726   3.678  18.351  0.00  0.00    +0.000 A 
ATOM     13  C   UNL     1       0.833   3.532  19.416  0.00  0.00    +0.000 A 
ATOM     14  C   UNL     1       0.986   4.305  20.561  0.00  0.00    +0.000 A 
ATOM     15  C   UNL     1       2.044   5.209  20.646  0.00  0.00    +0.000 A 
ATOM     16  C   UNL     1       2.948   5.343  19.583  0.00  0.00    +0.000 A 
ENDBRANCH   9  11
ENDBRANCH   6   7
BRANCH   1  17
ATOM     17  O   UNL     1       6.861   5.652  17.066  0.00  0.00    +0.000 OA
BRANCH  17  18
ATOM     18  C   UNL     1       7.586   4.890  18.036  0.00  0.00    +0.000 C 
BRANCH  18  20
ATOM     19  N   UNL     1       8.326   7.015  18.986  0.00  0.00    +0.000 N 
ATOM     20  C   UNL     1       7.895   5.746  19.258  0.00  0.00    +0.000 C 
ATOM     21  O   UNL     1       7.849   5.327  20.408  0.00  0.00    +0.000 OA
ATOM     22  H   UNL     1       8.644   7.578  19.763  0.00  0.00    +0.000 HD
ATOM     23  H   UNL     1       8.557   7.303  18.044  0.00  0.00    +0.000 HD
ENDBRANCH  18  20
ENDBRANCH  17  18
ENDBRANCH   1  17
TORSDOF 5
ENDMDL
MODEL 9
REMARK VINA RESULT:      -7.2      1.285      5.580
REMARK  Name = 
REMARK  5 active torsions:
REMARK  status: ('A' for Active; 'I' for Inactive)
REMARK    1  A    between atoms: C_2  and  C_4
REMARK    2  A    between atoms: C_4  and  O_5
REMARK    3  A    between atoms: O_5  and  C_6
REMARK    4  A    between atoms: C_11  and  C_12
REMARK    5  A    between atoms: N_14  and  C_15
REMARK                            x       y       z     vdW  Elec       q    Type
REMARK                         _______ _______ _______ _____ _____    ______ ____
ROOT
ATOM      1  C   UNL     1       4.312   4.019  19.001  0.00  0.00    +0.000 A 
ATOM      2  C   UNL     1       3.437   3.660  20.046  0.00  0.00    +0.000 A 
ATOM      3  C   UNL     1       2.050   3.675  19.871  0.00  0.00    +0.000 A 
ATOM      4  C   UNL     1       1.509   4.047  18.653  0.00  0.00    +0.000 A 
ATOM      5  C   UNL     1       2.359   4.407  17.612  0.00  0.00    +0.000 A 
ATOM      6  C   UNL     1       3.764   4.398  17.760  0.00  0.00    +0.000 A 
ENDROOT
BRANCH   6   7
ATOM      7  C   UNL     1       4.526   4.830  16.542  0.00  0.00    +0.000 C 
ATOM      8  O   UNL     1       4.579   6.038  16.312  0.00  0.00    +0.000 OA
ATOM      9  N   UNL     1       5.089   3.862  15.728  0.00  0.00    +0.000 N 
ATOM     10  H   UNL     1       4.849   2.896  15.920  0.00  0.00    +0.000 HD
BRANCH   9  11
ATOM     11  C   UNL     1       5.878   4.124  14.580  0.00  0.00    +0.000 A 
ATOM     12  C   UNL     1       5.609   3.564  13.325  0.00  0.00    +0.000 A 
ATOM     13  C   UNL     1       6.428   3.827  12.223  0.00  0.00    +0.000 A 
ATOM     14  C   UNL     1       7.534   4.656  12.364  0.00  0.00    +0.000 A 
ATOM     15  C   UNL     1       7.806   5.238  13.601  0.00  0.00    +0.000 A 
ATOM     16  C   UNL     1       6.974   4.986  14.701  0.00  0.00    +0.000 A 
ENDBRANCH   9  11
ENDBRANCH   6   7
BRANCH   1  17
ATOM     17  O   UNL     1       5.679   3.962  19.129  0.00  0.00    +0.000 OA
BRANCH  17  18
ATOM     18  C   UNL     1       6.355   5.197  19.385  0.00  0.00    +0.000 C 
BRANCH  18  20
ATOM     19  N   UNL     1       7.749   6.666  18.021  0.00  0.00    +0.000 N 
ATOM     20  C   UNL     1       7.511   5.378  18.410  0.00  0.00    +0.000 C 
ATOM     21  O   UNL     1       8.144   4.445  17.929  0.00  0.00    +0.000 OA
ATOM     22  H   UNL     1       8.435   6.818  17.293  0.00  0.00    +0.000 HD
ATOM     23  H   UNL     1       7.108   7.414  18.254  0.00  0.00    +0.000 HD
ENDBRANCH  18  20
ENDBRANCH  17  18
ENDBRANCH   1  17
TORSDOF 5
ENDMDL
