MODEL 1
REMARK VINA RESULT:      -5.6      0.000      0.000
REMARK  Name = 
REMARK  5 active torsions:
REMARK  status: ('A' for Active; 'I' for Inactive)
REMARK    1  A    between atoms: C_4  and  C_5
REMARK    2  A    between atoms: C_5  and  O_6
REMARK    3  A    between atoms: C_5  and  C_7
REMARK    4  A    between atoms: C_7  and  C_8
REMARK    5  A    between atoms: C_8  and  C_9
REMARK                            x       y       z     vdW  Elec       q    Type
REMARK                         _______ _______ _______ _____ _____    ______ ____
ROOT
ATOM      1  C   UNL     1       3.086   3.122  17.536  0.00  0.00    +0.000 C 
ATOM      2  C   UNL     1       4.117   3.898  17.887  0.00  0.00    +0.000 C 
ATOM      3  C   UNL     1       4.582   5.151  17.252  0.00  0.00    +0.000 C 
ATOM      4  C   UNL     1       5.983   5.298  17.836  0.00  0.00    +0.000 C 
ATOM      5  O   UNL     1       5.977   4.540  19.052  0.00  0.00    +0.000 OA
ATOM      6  C   UNL     1       4.991   3.605  19.038  0.00  0.00    +0.000 C 
ATOM      7  O   UNL     1       4.850   2.710  19.850  0.00  0.00    +0.000 OA
ENDROOT
BRANCH   4   8
ATOM      8  C   UNL     1       7.105   4.831  16.879  0.00  0.00    +0.000 C 
BRANCH   8   9
ATOM      9  O   UNL     1       8.055   4.060  17.628  0.00  0.00    +0.000 OA
ATOM     10  H   UNL     1       8.092   3.163  17.249  0.00  0.00    +0.000 HD
ENDBRANCH   8   9
BRANCH   8  11
ATOM     11  C   UNL     1       6.636   3.961  15.697  0.00  0.00    +0.000 C 
BRANCH  11  12
ATOM     12  C   UNL     1       6.642   4.652  14.335  0.00  0.00    +0.000 C 
ATOM     13  C   UNL     1       6.047   3.766  13.250  0.00  0.00    +0.000 C 
ENDBRANCH  11  12
ENDBRANCH   8  11
ENDBRANCH   4   8
TORSDOF 4
ENDMDL
MODEL 2
REMARK VINA RESULT:      -5.6      2.439      4.985
REMARK  Name = 
REMARK  5 active torsions:
REMARK  status: ('A' for Active; 'I' for Inactive)
REMARK    1  A    between atoms: C_4  and  C_5
REMARK    2  A    between atoms: C_5  and  O_6
REMARK    3  A    between atoms: C_5  and  C_7
REMARK    4  A    between atoms: C_7  and  C_8
REMARK    5  A    between atoms: C_8  and  C_9
REMARK                            x       y       z     vdW  Elec       q    Type
REMARK                         _______ _______ _______ _____ _____    ______ ____
ROOT
ATOM      1  C   UNL     1       4.510   6.324  17.355  0.00  0.00    +0.000 C 
ATOM      2  C   UNL     1       4.561   5.068  17.810  0.00  0.00    +0.000 C 
ATOM      3  C   UNL     1       3.946   3.853  17.230  0.00  0.00    +0.000 C 
ATOM      4  C   UNL     1       4.016   2.877  18.399  0.00  0.00    +0.000 C 
ATOM      5  O   UNL     1       5.067   3.360  19.245  0.00  0.00    +0.000 OA
ATOM      6  C   UNL     1       5.295   4.682  19.030  0.00  0.00    +0.000 C 
ATOM      7  O   UNL     1       6.002   5.400  19.712  0.00  0.00    +0.000 OA
ENDROOT
BRANCH   4   8
ATOM      8  C   UNL     1       2.683   2.736  19.170  0.00  0.00    +0.000 C 
BRANCH   8   9
ATOM      9  O   UNL     1       2.036   1.526  18.751  0.00  0.00    +0.000 OA
ATOM     10  H   UNL     1       2.486   1.198  17.952  0.00  0.00    +0.000 HD
ENDBRANCH   8   9
BRANCH   8  11
ATOM     11  C   UNL     1       2.817   2.681  20.703  0.00  0.00    +0.000 C 
BRANCH  11  12
ATOM     12  C   UNL     1       2.070   3.773  21.465  0.00  0.00    +0.000 C 
ATOM     13  C   UNL     1       1.861   5.015  20.610  0.00  0.00    +0.000 C 
ENDBRANCH  11  12
ENDBRANCH   8  11
ENDBRANCH   4   8
TORSDOF 4
ENDMDL
MODEL 3
REMARK VINA RESULT:      -5.6      2.501      3.518
REMARK  Name = 
REMARK  5 active torsions:
REMARK  status: ('A' for Active; 'I' for Inactive)
REMARK    1  A    between atoms: C_4  and  C_5
REMARK    2  A    between atoms: C_5  and  O_6
REMARK    3  A    between atoms: C_5  and  C_7
REMARK    4  A    between atoms: C_7  and  C_8
REMARK    5  A    between atoms: C_8  and  C_9
REMARK                            x       y       z     vdW  Elec       q    Type
REMARK                         _______ _______ _______ _____ _____    ______ ____
ROOT
ATOM      1  C   UNL     1       1.207   3.031  21.234  0.00  0.00    +0.000 C 
ATOM      2  C   UNL     1       2.005   2.615  20.245  0.00  0.00    +0.000 C 
ATOM      3  C   UNL     1       3.467   2.386  20.277  0.00  0.00    +0.000 C 
ATOM      4  C   UNL     1       3.811   2.339  18.793  0.00  0.00    +0.000 C 
ATOM      5  O   UNL     1       2.592   1.993  18.123  0.00  0.00    +0.000 OA
ATOM      6  C   UNL     1       1.512   2.295  18.892  0.00  0.00    +0.000 C 
ATOM      7  O   UNL     1       0.352   2.274  18.526  0.00  0.00    +0.000 OA
ENDROOT
BRANCH   4   8
ATOM      8  C   UNL     1       4.403   3.661  18.252  0.00  0.00    +0.000 C 
BRANCH   8   9
ATOM      9  O   UNL     1       5.781   3.741  18.645  0.00  0.00    +0.000 OA
ATOM     10  H   UNL     1       6.260   2.995  18.239  0.00  0.00    +0.000 HD
ENDBRANCH   8   9
BRANCH   8  11
ATOM     11  C   UNL     1       4.349   3.823  16.721  0.00  0.00    +0.000 C 
BRANCH  11  12
ATOM     12  C   UNL     1       5.698   4.046  16.041  0.00  0.00    +0.000 C 
ATOM     13  C   UNL     1       5.620   5.132  14.977  0.00  0.00    +0.000 C 
ENDBRANCH  11  12
ENDBRANCH   8  11
ENDBRANCH   4   8
TORSDOF 4
ENDMDL
MODEL 4
REMARK VINA RESULT:      -5.5      3.011      5.434
REMARK  Name = 
REMARK  5 active torsions:
REMARK  status: ('A' for Active; 'I' for Inactive)
REMARK    1  A    between atoms: C_4  and  C_5
REMARK    2  A    between atoms: C_5  and  O_6
REMARK    3  A    between atoms: C_5  and  C_7
REMARK    4  A    between atoms: C_7  and  C_8
REMARK    5  A    between atoms: C_8  and  C_9
REMARK                            x       y       z     vdW  Elec       q    Type
REMARK                         _______ _______ _______ _____ _____    ______ ____
ROOT
ATOM      1  C   UNL     1       2.986   6.435  19.270  0.00  0.00    +0.000 C 
ATOM      2  C   UNL     1       2.935   5.303  18.560  0.00  0.00    +0.000 C 
ATOM      3  C   UNL     1       1.831   4.796  17.716  0.00  0.00    +0.000 C 
ATOM      4  C   UNL     1       2.216   3.331  17.541  0.00  0.00    +0.000 C 
ATOM      5  O   UNL     1       3.630   3.272  17.770  0.00  0.00    +0.000 OA
ATOM      6  C   UNL     1       4.049   4.338  18.502  0.00  0.00    +0.000 C 
ATOM      7  O   UNL     1       5.154   4.471  18.993  0.00  0.00    +0.000 OA
ENDROOT
BRANCH   4   8
ATOM      8  C   UNL     1       1.448   2.372  18.480  0.00  0.00    +0.000 C 
BRANCH   8   9
ATOM      9  O   UNL     1       2.353   1.359  18.942  0.00  0.00    +0.000 OA
ATOM     10  H   UNL     1       3.153   1.796  19.287  0.00  0.00    +0.000 HD
ENDBRANCH   8   9
BRANCH   8  11
ATOM     11  C   UNL     1       0.823   3.035  19.722  0.00  0.00    +0.000 C 
BRANCH  11  12
ATOM     12  C   UNL     1       1.391   2.573  21.063  0.00  0.00    +0.000 C 
ATOM     13  C   UNL     1       2.258   3.646  21.707  0.00  0.00    +0.000 C 
ENDBRANCH  11  12
ENDBRANCH   8  11
ENDBRANCH   4   8
TORSDOF 4
ENDMDL
MODEL 5
REMARK VINA RESULT:      -5.5      2.527      4.887
REMARK  Name = 
REMARK  5 active torsions:
REMARK  status: ('A' for Active; 'I' for Inactive)
REMARK    1  A    between atoms: C_4  and  C_5
REMARK    2  A    between atoms: C_5  and  O_6
REMARK    3  A    between atoms: C_5  and  C_7
REMARK    4  A    between atoms: C_7  and  C_8
REMARK    5  A    between atoms: C_8  and  C_9
REMARK                            x       y       z     vdW  Elec       q    Type
REMARK                         _______ _______ _______ _____ _____    ______ ____
ROOT
ATOM      1  C   UNL     1       5.884   3.469  12.559  0.00  0.00    +0.000 C 
ATOM      2  C   UNL     1       6.357   4.004  13.689  0.00  0.00    +0.000 C 
ATOM      3  C   UNL     1       6.010   3.659  15.085  0.00  0.00    +0.000 C 
ATOM      4  C   UNL     1       6.546   4.865  15.849  0.00  0.00    +0.000 C 
ATOM      5  O   UNL     1       7.552   5.442  15.007  0.00  0.00    +0.000 OA
ATOM      6  C   UNL     1       7.367   5.079  13.710  0.00  0.00    +0.000 C 
ATOM      7  O   UNL     1       7.954   5.545  12.752  0.00  0.00    +0.000 OA
ENDROOT
BRANCH   4   8
ATOM      8  C   UNL     1       5.456   5.897  16.222  0.00  0.00    +0.000 C 
BRANCH   8   9
ATOM      9  O   UNL     1       4.447   5.237  17.000  0.00  0.00    +0.000 OA
ATOM     10  H   UNL     1       3.643   5.788  16.993  0.00  0.00    +0.000 HD
ENDBRANCH   8   9
BRANCH   8  11
ATOM     11  C   UNL     1       5.952   7.105  17.039  0.00  0.00    +0.000 C 
BRANCH  11  12
ATOM     12  C   UNL     1       7.250   6.881  17.813  0.00  0.00    +0.000 C 
ATOM     13  C   UNL     1       8.067   8.160  17.925  0.00  0.00    +0.000 C 
ENDBRANCH  11  12
ENDBRANCH   8  11
ENDBRANCH   4   8
TORSDOF 4
ENDMDL
MODEL 6
REMARK VINA RESULT:      -5.5      2.361      3.685
REMARK  Name = 
REMARK  5 active torsions:
REMARK  status: ('A' for Active; 'I' for Inactive)
REMARK    1  A    between atoms: C_4  and  C_5
REMARK    2  A    between atoms: C_5  and  O_6
REMARK    3  A    between atoms: C_5  and  C_7
REMARK    4  A    between atoms: C_7  and  C_8
REMARK    5  A    between atoms: C_8  and  C_9
REMARK                            x       y       z     vdW  Elec       q    Type
REMARK                         _______ _______ _______ _____ _____    ______ ____
ROOT
ATOM      1  C   UNL     1       1.041   4.043  20.348  0.00  0.00    +0.000 C 
ATOM      2  C   UNL     1       2.003   3.615  19.524  0.00  0.00    +0.000 C 
ATOM      3  C   UNL     1       3.338   3.078  19.869  0.00  0.00    +0.000 C 
ATOM      4  C   UNL     1       4.069   3.172  18.535  0.00  0.00    +0.000 C 
ATOM      5  O   UNL     1       3.045   3.193  17.532  0.00  0.00    +0.000 OA
ATOM      6  C   UNL     1       1.860   3.603  18.056  0.00  0.00    +0.000 C 
ATOM      7  O   UNL     1       0.861   3.881  17.420  0.00  0.00    +0.000 OA
ENDROOT
BRANCH   4   8
ATOM      8  C   UNL     1       5.000   4.402  18.424  0.00  0.00    +0.000 C 
BRANCH   8   9
ATOM      9  O   UNL     1       6.361   3.958  18.516  0.00  0.00    +0.000 OA
ATOM     10  H   UNL     1       6.829   4.232  17.706  0.00  0.00    +0.000 HD
ENDBRANCH   8   9
BRANCH   8  11
ATOM     11  C   UNL     1       4.864   5.208  17.118  0.00  0.00    +0.000 C 
BRANCH  11  12
ATOM     12  C   UNL     1       4.630   6.707  17.297  0.00  0.00    +0.000 C 
ATOM     13  C   UNL     1       3.296   6.992  17.973  0.00  0.00    +0.000 C 
ENDBRANCH  11  12
ENDBRANCH   8  11
ENDBRANCH   4   8
TORSDOF 4
ENDMDL
MODEL 7
REMARK VINA RESULT:      -5.4      1.801      4.557
REMARK  Name = 
REMARK  5 active torsions:
REMARK  status: ('A' for Active; 'I' for Inactive)
REMARK    1  A    between atoms: C_4  and  C_5
REMARK    2  A    between atoms: C_5  and  O_6
REMARK    3  A    between atoms: C_5  and  C_7
REMARK    4  A    between atoms: C_7  and  C_8
REMARK    5  A    between atoms: C_8  and  C_9
REMARK                            x       y       z     vdW  Elec       q    Type
REMARK                         _______ _______ _______ _____ _____    ______ ____
ROOT
ATOM      1  C   UNL     1       7.552   6.967  17.863  0.00  0.00    +0.000 C 
ATOM      2  C   UNL     1       6.651   6.063  17.462  0.00  0.00    +0.000 C 
ATOM      3  C   UNL     1       5.186   6.222  17.330  0.00  0.00    +0.000 C 
ATOM      4  C   UNL     1       4.719   4.773  17.247  0.00  0.00    +0.000 C 
ATOM      5  O   UNL     1       5.856   4.025  16.796  0.00  0.00    +0.000 OA
ATOM      6  C   UNL     1       7.011   4.691  17.056  0.00  0.00    +0.000 C 
ATOM      7  O   UNL     1       8.134   4.236  16.945  0.00  0.00    +0.000 OA
ENDROOT
BRANCH   4   8
ATOM      8  C   UNL     1       4.168   4.222  18.583  0.00  0.00    +0.000 C 
BRANCH   8   9
ATOM      9  O   UNL     1       5.122   3.298  19.126  0.00  0.00    +0.000 OA
ATOM     10  H   UNL     1       4.676   2.443  19.269  0.00  0.00    +0.000 HD
ENDBRANCH   8   9
BRANCH   8  11
ATOM     11  C   UNL     1       3.888   5.284  19.662  0.00  0.00    +0.000 C 
BRANCH  11  12
ATOM     12  C   UNL     1       2.414   5.502  19.998  0.00  0.00    +0.000 C 
ATOM     13  C   UNL     1       1.620   4.206  19.917  0.00  0.00    +0.000 C 
ENDBRANCH  11  12
ENDBRANCH   8  11
ENDBRANCH   4   8
TORSDOF 4
ENDMDL
MODEL 8
REMARK VINA RESULT:      -5.4      2.019      4.218
REMARK  Name = 
REMARK  5 active torsions:
REMARK  status: ('A' for Active; 'I' for Inactive)
REMARK    1  A    between atoms: C_4  and  C_5
REMARK    2  A    between atoms: C_5  and  O_6
REMARK    3  A    between atoms: C_5  and  C_7
REMARK    4  A    between atoms: C_7  and  C_8
REMARK    5  A    between atoms: C_8  and  C_9
REMARK                            x       y       z     vdW  Elec       q    Type
REMARK                         _______ _______ _______ _____ _____    ______ ____
ROOT
ATOM      1  C   UNL     1       7.578   6.969  17.840  0.00  0.00    +0.000 C 
ATOM      2  C   UNL     1       6.739   6.108  17.255  0.00  0.00    +0.000 C 
ATOM      3  C   UNL     1       5.367   6.355  16.758  0.00  0.00    +0.000 C 
ATOM      4  C   UNL     1       4.828   4.938  16.606  0.00  0.00    +0.000 C 
ATOM      5  O   UNL     1       5.981   4.097  16.474  0.00  0.00    +0.000 OA
ATOM      6  C   UNL     1       7.084   4.698  16.994  0.00  0.00    +0.000 C 
ATOM      7  O   UNL     1       8.162   4.166  17.179  0.00  0.00    +0.000 OA
ENDROOT
BRANCH   4   8
ATOM      8  C   UNL     1       3.926   4.488  17.778  0.00  0.00    +0.000 C 
BRANCH   8   9
ATOM      9  O   UNL     1       3.682   5.618  18.629  0.00  0.00    +0.000 OA
ATOM     10  H   UNL     1       3.014   5.365  19.292  0.00  0.00    +0.000 HD
ENDBRANCH   8   9
BRANCH   8  11
ATOM     11  C   UNL     1       2.556   3.917  17.367  0.00  0.00    +0.000 C 
BRANCH  11  12
ATOM     12  C   UNL     1       2.238   2.526  17.912  0.00  0.00    +0.000 C 
ATOM     13  C   UNL     1       3.498   1.698  18.114  0.00  0.00    +0.000 C 
ENDBRANCH  11  12
ENDBRANCH   8  11
ENDBRANCH   4   8
TORSDOF 4
ENDMDL
MODEL 9
REMARK VINA RESULT:      -5.4      1.925      4.230
REMARK  Name = 
REMARK  5 active torsions:
REMARK  status: ('A' for Active; 'I' for Inactive)
REMARK    1  A    between atoms: C_4  and  C_5
REMARK    2  A    between atoms: C_5  and  O_6
REMARK    3  A    between atoms: C_5  and  C_7
REMARK    4  A    between atoms: C_7  and  C_8
REMARK    5  A    between atoms: C_8  and  C_9
REMARK                            x       y       z     vdW  Elec       q    Type
REMARK                         _______ _______ _______ _____ _____    ______ ____
ROOT
ATOM      1  C   UNL     1       6.538   4.458  14.486  0.00  0.00    +0.000 C 
ATOM      2  C   UNL     1       6.360   4.932  15.724  0.00  0.00    +0.000 C 
ATOM      3  C   UNL     1       6.886   4.395  16.999  0.00  0.00    +0.000 C 
ATOM      4  C   UNL     1       6.012   5.107  18.024  0.00  0.00    +0.000 C 
ATOM      5  O   UNL     1       5.527   6.285  17.369  0.00  0.00    +0.000 OA
ATOM      6  C   UNL     1       5.572   6.144  16.018  0.00  0.00    +0.000 C 
ATOM      7  O   UNL     1       5.073   6.901  15.208  0.00  0.00    +0.000 OA
ENDROOT
BRANCH   4   8
ATOM      8  C   UNL     1       4.853   4.236  18.562  0.00  0.00    +0.000 C 
BRANCH   8   9
ATOM      9  O   UNL     1       5.403   3.202  19.391  0.00  0.00    +0.000 OA
ATOM     10  H   UNL     1       5.053   2.344  19.086  0.00  0.00    +0.000 HD
ENDBRANCH   8   9
BRANCH   8  11
ATOM     11  C   UNL     1       3.803   4.990  19.400  0.00  0.00    +0.000 C 
BRANCH  11  12
ATOM     12  C   UNL     1       2.501   5.319  18.673  0.00  0.00    +0.000 C 
ATOM     13  C   UNL     1       2.110   4.222  17.693  0.00  0.00    +0.000 C 
ENDBRANCH  11  12
ENDBRANCH   8  11
ENDBRANCH   4   8
TORSDOF 4
ENDMDL
