MODEL 1
REMARK VINA RESULT:      -6.1      0.000      0.000
REMARK  Name = 
REMARK  9 active torsions:
REMARK  status: ('A' for Active; 'I' for Inactive)
REMARK    1  A    between atoms: C_1  and  C_2
REMARK    2  A    between atoms: C_8  and  C_9
REMARK    3  A    between atoms: C_9  and  N_10
REMARK    4  A    between atoms: N_10  and  C_11
REMARK    5  A    between atoms: C_11  and  C_12
REMARK    6  A    between atoms: C_11  and  C_13
REMARK    7  A    between atoms: C_13  and  C_14
REMARK    8  A    between atoms: N_16  and  C_17
REMARK    9  A    between atoms: N_16  and  C_18
REMARK                            x       y       z     vdW  Elec       q    Type
REMARK                         _______ _______ _______ _____ _____    ______ ____
ROOT
ATOM      1  N   UNL     1       4.929   3.659  18.169  0.00  0.00    +0.000 NA
ATOM      2  H   UNL     1       4.555   4.595  18.370  0.00  0.00    +0.000 HD
ENDROOT
BRANCH   1   3
ATOM      3  C   UNL     1       3.840   2.886  17.544  0.00  0.00    +0.000 C 
ATOM      4  C   UNL     1       3.525   1.619  18.349  0.00  0.00    +0.000 C 
BRANCH   3   5
ATOM      5  C   UNL     1       2.566   3.761  17.469  0.00  0.00    +0.000 C 
BRANCH   5   6
ATOM      6  C   UNL     1       2.508   4.820  18.559  0.00  0.00    +0.000 C 
ATOM      7  O   UNL     1       3.166   5.859  18.470  0.00  0.00    +0.000 OA
ATOM      8  N   UNL     1       1.693   4.563  19.659  0.00  0.00    +0.000 N 
ATOM      9  C   UNL     1       0.839   3.396  19.822  0.00  0.00    +0.000 C 
ATOM     10  C   UNL     1       1.733   5.481  20.786  0.00  0.00    +0.000 C 
ENDBRANCH   5   6
ENDBRANCH   3   5
ENDBRANCH   1   3
BRANCH   1  11
ATOM     11  C   UNL     1       6.087   3.860  17.300  0.00  0.00    +0.000 C 
BRANCH  11  19
ATOM     12  C   UNL     1       5.227   6.268  15.651  0.00  0.00    +0.000 C 
ATOM     13  C   UNL     1       6.260   6.371  16.740  0.00  0.00    +0.000 A 
ATOM     14  C   UNL     1       6.846   7.624  16.998  0.00  0.00    +0.000 A 
ATOM     15  C   UNL     1       7.795   7.770  18.008  0.00  0.00    +0.000 A 
ATOM     16 BR   UNL     1       8.567   9.464  18.333  0.00  0.00    +0.000 Br
ATOM     17  C   UNL     1       8.172   6.681  18.784  0.00  0.00    +0.000 A 
ATOM     18  C   UNL     1       7.602   5.432  18.532  0.00  0.00    +0.000 A 
ATOM     19  C   UNL     1       6.660   5.251  17.503  0.00  0.00    +0.000 A 
ENDBRANCH  11  19
ENDBRANCH   1  11
TORSDOF 5
ENDMDL
MODEL 2
REMARK VINA RESULT:      -6.0      3.241      5.633
REMARK  Name = 
REMARK  9 active torsions:
REMARK  status: ('A' for Active; 'I' for Inactive)
REMARK    1  A    between atoms: C_1  and  C_2
REMARK    2  A    between atoms: C_8  and  C_9
REMARK    3  A    between atoms: C_9  and  N_10
REMARK    4  A    between atoms: N_10  and  C_11
REMARK    5  A    between atoms: C_11  and  C_12
REMARK    6  A    between atoms: C_11  and  C_13
REMARK    7  A    between atoms: C_13  and  C_14
REMARK    8  A    between atoms: N_16  and  C_17
REMARK    9  A    between atoms: N_16  and  C_18
REMARK                            x       y       z     vdW  Elec       q    Type
REMARK                         _______ _______ _______ _____ _____    ______ ____
ROOT
ATOM      1  N   UNL     1       4.724   4.033  15.685  0.00  0.00    +0.000 NA
ATOM      2  H   UNL     1       4.153   4.222  14.852  0.00  0.00    +0.000 HD
ENDROOT
BRANCH   1   3
ATOM      3  C   UNL     1       6.128   3.967  15.238  0.00  0.00    +0.000 C 
ATOM      4  C   UNL     1       6.221   3.815  13.716  0.00  0.00    +0.000 C 
BRANCH   3   5
ATOM      5  C   UNL     1       6.862   5.264  15.658  0.00  0.00    +0.000 C 
BRANCH   5   6
ATOM      6  C   UNL     1       7.559   5.143  17.003  0.00  0.00    +0.000 C 
ATOM      7  O   UNL     1       8.107   4.090  17.342  0.00  0.00    +0.000 OA
ATOM      8  N   UNL     1       7.545   6.260  17.835  0.00  0.00    +0.000 N 
ATOM      9  C   UNL     1       6.977   7.556  17.498  0.00  0.00    +0.000 C 
ATOM     10  C   UNL     1       8.067   6.130  19.186  0.00  0.00    +0.000 C 
ENDBRANCH   5   6
ENDBRANCH   3   5
ENDBRANCH   1   3
BRANCH   1  11
ATOM     11  C   UNL     1       4.452   5.121  16.623  0.00  0.00    +0.000 C 
BRANCH  11  19
ATOM     12  C   UNL     1       2.505   6.778  18.273  0.00  0.00    +0.000 C 
ATOM     13  C   UNL     1       2.837   5.353  18.619  0.00  0.00    +0.000 A 
ATOM     14  C   UNL     1       2.226   4.774  19.748  0.00  0.00    +0.000 A 
ATOM     15  C   UNL     1       2.491   3.451  20.098  0.00  0.00    +0.000 A 
ATOM     16 BR   UNL     1       1.658   2.697  21.618  0.00  0.00    +0.000 Br
ATOM     17  C   UNL     1       3.357   2.679  19.333  0.00  0.00    +0.000 A 
ATOM     18  C   UNL     1       3.973   3.245  18.217  0.00  0.00    +0.000 A 
ATOM     19  C   UNL     1       3.743   4.585  17.854  0.00  0.00    +0.000 A 
ENDBRANCH  11  19
ENDBRANCH   1  11
TORSDOF 5
ENDMDL
MODEL 3
REMARK VINA RESULT:      -5.9      3.489      5.052
REMARK  Name = 
REMARK  9 active torsions:
REMARK  status: ('A' for Active; 'I' for Inactive)
REMARK    1  A    between atoms: C_1  and  C_2
REMARK    2  A    between atoms: C_8  and  C_9
REMARK    3  A    between atoms: C_9  and  N_10
REMARK    4  A    between atoms: N_10  and  C_11
REMARK    5  A    between atoms: C_11  and  C_12
REMARK    6  A    between atoms: C_11  and  C_13
REMARK    7  A    between atoms: C_13  and  C_14
REMARK    8  A    between atoms: N_16  and  C_17
REMARK    9  A    between atoms: N_16  and  C_18
REMARK                            x       y       z     vdW  Elec       q    Type
REMARK                         _______ _______ _______ _____ _____    ______ ____
ROOT
ATOM      1  N   UNL     1       3.827   6.011  18.248  0.00  0.00    +0.000 NA
ATOM      2  H   UNL     1       3.176   5.503  18.859  0.00  0.00    +0.000 HD
ENDROOT
BRANCH   1   3
ATOM      3  C   UNL     1       4.175   5.103  17.139  0.00  0.00    +0.000 C 
ATOM      4  C   UNL     1       5.693   5.021  16.944  0.00  0.00    +0.000 C 
BRANCH   3   5
ATOM      5  C   UNL     1       3.632   3.687  17.446  0.00  0.00    +0.000 C 
BRANCH   5   6
ATOM      6  C   UNL     1       2.250   3.705  18.080  0.00  0.00    +0.000 C 
ATOM      7  O   UNL     1       1.271   4.120  17.454  0.00  0.00    +0.000 OA
ATOM      8  N   UNL     1       2.139   3.245  19.389  0.00  0.00    +0.000 N 
ATOM      9  C   UNL     1       3.224   2.685  20.182  0.00  0.00    +0.000 C 
ATOM     10  C   UNL     1       0.865   3.392  20.075  0.00  0.00    +0.000 C 
ENDBRANCH   5   6
ENDBRANCH   3   5
ENDBRANCH   1   3
BRANCH   1  11
ATOM     11  C   UNL     1       3.126   7.223  17.823  0.00  0.00    +0.000 C 
BRANCH  11  19
ATOM     12  C   UNL     1       1.830   9.974  17.765  0.00  0.00    +0.000 C 
ATOM     13  C   UNL     1       1.677   9.042  18.935  0.00  0.00    +0.000 A 
ATOM     14  C   UNL     1       0.910   9.463  20.037  0.00  0.00    +0.000 A 
ATOM     15  C   UNL     1       0.727   8.626  21.136  0.00  0.00    +0.000 A 
ATOM     16 BR   UNL     1      -0.307   9.217  22.605  0.00  0.00    +0.000 Br
ATOM     17  C   UNL     1       1.292   7.357  21.159  0.00  0.00    +0.000 A 
ATOM     18  C   UNL     1       2.060   6.932  20.074  0.00  0.00    +0.000 A 
ATOM     19  C   UNL     1       2.281   7.765  18.961  0.00  0.00    +0.000 A 
ENDBRANCH  11  19
ENDBRANCH   1  11
TORSDOF 5
ENDMDL
MODEL 4
REMARK VINA RESULT:      -5.9      3.786      6.025
REMARK  Name = 
REMARK  9 active torsions:
REMARK  status: ('A' for Active; 'I' for Inactive)
REMARK    1  A    between atoms: C_1  and  C_2
REMARK    2  A    between atoms: C_8  and  C_9
REMARK    3  A    between atoms: C_9  and  N_10
REMARK    4  A    between atoms: N_10  and  C_11
REMARK    5  A    between atoms: C_11  and  C_12
REMARK    6  A    between atoms: C_11  and  C_13
REMARK    7  A    between atoms: C_13  and  C_14
REMARK    8  A    between atoms: N_16  and  C_17
REMARK    9  A    between atoms: N_16  and  C_18
REMARK                            x       y       z     vdW  Elec       q    Type
REMARK                         _______ _______ _______ _____ _____    ______ ____
ROOT
ATOM      1  N   UNL     1       2.354   5.937  20.729  0.00  0.00    +0.000 NA
ATOM      2  H   UNL     1       1.422   5.944  21.162  0.00  0.00    +0.000 HD
ENDROOT
BRANCH   1   3
ATOM      3  C   UNL     1       2.584   4.570  20.226  0.00  0.00    +0.000 C 
ATOM      4  C   UNL     1       1.284   3.759  20.202  0.00  0.00    +0.000 C 
BRANCH   3   5
ATOM      5  C   UNL     1       3.157   4.641  18.790  0.00  0.00    +0.000 C 
BRANCH   5   6
ATOM      6  C   UNL     1       4.627   4.258  18.717  0.00  0.00    +0.000 C 
ATOM      7  O   UNL     1       5.111   3.444  19.508  0.00  0.00    +0.000 OA
ATOM      8  N   UNL     1       5.400   4.867  17.732  0.00  0.00    +0.000 N 
ATOM      9  C   UNL     1       4.905   5.791  16.723  0.00  0.00    +0.000 C 
ATOM     10  C   UNL     1       6.836   4.641  17.733  0.00  0.00    +0.000 C 
ENDBRANCH   5   6
ENDBRANCH   3   5
ENDBRANCH   1   3
BRANCH   1  11
ATOM     11  C   UNL     1       2.325   6.956  19.681  0.00  0.00    +0.000 C 
BRANCH  11  19
ATOM     12  C   UNL     1       1.601   9.290  17.868  0.00  0.00    +0.000 C 
ATOM     13  C   UNL     1       1.256   9.276  19.332  0.00  0.00    +0.000 A 
ATOM     14  C   UNL     1       0.578  10.383  19.876  0.00  0.00    +0.000 A 
ATOM     15  C   UNL     1       0.224  10.407  21.223  0.00  0.00    +0.000 A 
ATOM     16 BR   UNL     1      -0.685  11.907  21.928  0.00  0.00    +0.000 Br
ATOM     17  C   UNL     1       0.526   9.333  22.051  0.00  0.00    +0.000 A 
ATOM     18  C   UNL     1       1.203   8.233  21.524  0.00  0.00    +0.000 A 
ATOM     19  C   UNL     1       1.595   8.192  20.173  0.00  0.00    +0.000 A 
ENDBRANCH  11  19
ENDBRANCH   1  11
TORSDOF 5
ENDMDL
MODEL 5
REMARK VINA RESULT:      -5.9      3.774      6.171
REMARK  Name = 
REMARK  9 active torsions:
REMARK  status: ('A' for Active; 'I' for Inactive)
REMARK    1  A    between atoms: C_1  and  C_2
REMARK    2  A    between atoms: C_8  and  C_9
REMARK    3  A    between atoms: C_9  and  N_10
REMARK    4  A    between atoms: N_10  and  C_11
REMARK    5  A    between atoms: C_11  and  C_12
REMARK    6  A    between atoms: C_11  and  C_13
REMARK    7  A    between atoms: C_13  and  C_14
REMARK    8  A    between atoms: N_16  and  C_17
REMARK    9  A    between atoms: N_16  and  C_18
REMARK                            x       y       z     vdW  Elec       q    Type
REMARK                         _______ _______ _______ _____ _____    ______ ____
ROOT
ATOM      1  N   UNL     1       5.884   6.441  16.959  0.00  0.00    +0.000 NA
ATOM      2  H   UNL     1       5.897   6.449  17.987  0.00  0.00    +0.000 HD
ENDROOT
BRANCH   1   3
ATOM      3  C   UNL     1       7.053   5.657  16.520  0.00  0.00    +0.000 C 
ATOM      4  C   UNL     1       7.664   4.868  17.685  0.00  0.00    +0.000 C 
BRANCH   3   5
ATOM      5  C   UNL     1       6.618   4.663  15.416  0.00  0.00    +0.000 C 
BRANCH   5   6
ATOM      6  C   UNL     1       7.290   4.930  14.079  0.00  0.00    +0.000 C 
ATOM      7  O   UNL     1       8.276   5.667  14.000  0.00  0.00    +0.000 OA
ATOM      8  N   UNL     1       6.742   4.319  12.954  0.00  0.00    +0.000 N 
ATOM      9  C   UNL     1       5.621   3.392  12.958  0.00  0.00    +0.000 C 
ATOM     10  C   UNL     1       7.264   4.675  11.643  0.00  0.00    +0.000 C 
ENDBRANCH   5   6
ENDBRANCH   3   5
ENDBRANCH   1   3
BRANCH   1  11
ATOM     11  C   UNL     1       4.600   5.860  16.571  0.00  0.00    +0.000 C 
BRANCH  11  19
ATOM     12  C   UNL     1       2.753   7.433  18.407  0.00  0.00    +0.000 C 
ATOM     13  C   UNL     1       3.056   5.977  18.632  0.00  0.00    +0.000 A 
ATOM     14  C   UNL     1       2.464   5.327  19.732  0.00  0.00    +0.000 A 
ATOM     15  C   UNL     1       2.702   3.975  19.970  0.00  0.00    +0.000 A 
ATOM     16 BR   UNL     1       1.896   3.127  21.454  0.00  0.00    +0.000 Br
ATOM     17  C   UNL     1       3.522   3.243  19.120  0.00  0.00    +0.000 A 
ATOM     18  C   UNL     1       4.119   3.878  18.031  0.00  0.00    +0.000 A 
ATOM     19  C   UNL     1       3.916   5.248  17.780  0.00  0.00    +0.000 A 
ENDBRANCH  11  19
ENDBRANCH   1  11
TORSDOF 5
ENDMDL
MODEL 6
REMARK VINA RESULT:      -5.8      3.455      4.838
REMARK  Name = 
REMARK  9 active torsions:
REMARK  status: ('A' for Active; 'I' for Inactive)
REMARK    1  A    between atoms: C_1  and  C_2
REMARK    2  A    between atoms: C_8  and  C_9
REMARK    3  A    between atoms: C_9  and  N_10
REMARK    4  A    between atoms: N_10  and  C_11
REMARK    5  A    between atoms: C_11  and  C_12
REMARK    6  A    between atoms: C_11  and  C_13
REMARK    7  A    between atoms: C_13  and  C_14
REMARK    8  A    between atoms: N_16  and  C_17
REMARK    9  A    between atoms: N_16  and  C_18
REMARK                            x       y       z     vdW  Elec       q    Type
REMARK                         _______ _______ _______ _____ _____    ______ ____
ROOT
ATOM      1  N   UNL     1       3.688   5.270  18.278  0.00  0.00    +0.000 NA
ATOM      2  H   UNL     1       3.038   4.987  19.022  0.00  0.00    +0.000 HD
ENDROOT
BRANCH   1   3
ATOM      3  C   UNL     1       3.594   4.254  17.214  0.00  0.00    +0.000 C 
ATOM      4  C   UNL     1       4.874   4.211  16.371  0.00  0.00    +0.000 C 
BRANCH   3   5
ATOM      5  C   UNL     1       3.368   2.862  17.851  0.00  0.00    +0.000 C 
BRANCH   5   6
ATOM      6  C   UNL     1       3.558   2.862  19.360  0.00  0.00    +0.000 C 
ATOM      7  O   UNL     1       4.687   2.885  19.857  0.00  0.00    +0.000 OA
ATOM      8  N   UNL     1       2.412   2.825  20.150  0.00  0.00    +0.000 N 
ATOM      9  C   UNL     1       1.044   2.853  19.654  0.00  0.00    +0.000 C 
ATOM     10  C   UNL     1       2.561   2.668  21.588  0.00  0.00    +0.000 C 
ENDBRANCH   5   6
ENDBRANCH   3   5
ENDBRANCH   1   3
BRANCH   1  11
ATOM     11  C   UNL     1       3.272   6.608  17.859  0.00  0.00    +0.000 C 
BRANCH  11  19
ATOM     12  C   UNL     1       2.151   9.426  17.623  0.00  0.00    +0.000 C 
ATOM     13  C   UNL     1       1.917   8.570  18.837  0.00  0.00    +0.000 A 
ATOM     14  C   UNL     1       1.155   9.097  19.898  0.00  0.00    +0.000 A 
ATOM     15  C   UNL     1       0.898   8.334  21.035  0.00  0.00    +0.000 A 
ATOM     16 BR   UNL     1      -0.126   9.066  22.445  0.00  0.00    +0.000 Br
ATOM     17  C   UNL     1       1.383   7.036  21.138  0.00  0.00    +0.000 A 
ATOM     18  C   UNL     1       2.144   6.506  20.096  0.00  0.00    +0.000 A 
ATOM     19  C   UNL     1       2.440   7.262  18.946  0.00  0.00    +0.000 A 
ENDBRANCH  11  19
ENDBRANCH   1  11
TORSDOF 5
ENDMDL
MODEL 7
REMARK VINA RESULT:      -5.8      2.814      3.871
REMARK  Name = 
REMARK  9 active torsions:
REMARK  status: ('A' for Active; 'I' for Inactive)
REMARK    1  A    between atoms: C_1  and  C_2
REMARK    2  A    between atoms: C_8  and  C_9
REMARK    3  A    between atoms: C_9  and  N_10
REMARK    4  A    between atoms: N_10  and  C_11
REMARK    5  A    between atoms: C_11  and  C_12
REMARK    6  A    between atoms: C_11  and  C_13
REMARK    7  A    between atoms: C_13  and  C_14
REMARK    8  A    between atoms: N_16  and  C_17
REMARK    9  A    between atoms: N_16  and  C_18
REMARK                            x       y       z     vdW  Elec       q    Type
REMARK                         _______ _______ _______ _____ _____    ______ ____
ROOT
ATOM      1  N   UNL     1       4.031   5.244  19.957  0.00  0.00    +0.000 NA
ATOM      2  H   UNL     1       4.305   5.959  19.271  0.00  0.00    +0.000 HD
ENDROOT
BRANCH   1   3
ATOM      3  C   UNL     1       2.558   5.254  20.024  0.00  0.00    +0.000 C 
ATOM      4  C   UNL     1       2.048   4.395  21.187  0.00  0.00    +0.000 C 
BRANCH   3   5
ATOM      5  C   UNL     1       2.063   6.707  20.220  0.00  0.00    +0.000 C 
BRANCH   5   6
ATOM      6  C   UNL     1       2.233   7.566  18.977  0.00  0.00    +0.000 C 
ATOM      7  O   UNL     1       2.859   7.149  17.999  0.00  0.00    +0.000 OA
ATOM      8  N   UNL     1       1.665   8.837  18.994  0.00  0.00    +0.000 N 
ATOM      9  C   UNL     1       0.864   9.389  20.076  0.00  0.00    +0.000 C 
ATOM     10  C   UNL     1       1.940   9.738  17.886  0.00  0.00    +0.000 C 
ENDBRANCH   5   6
ENDBRANCH   3   5
ENDBRANCH   1   3
BRANCH   1  11
ATOM     11  C   UNL     1       4.594   3.983  19.478  0.00  0.00    +0.000 C 
BRANCH  11  19
ATOM     12  C   UNL     1       2.992   3.500  16.937  0.00  0.00    +0.000 C 
ATOM     13  C   UNL     1       4.429   3.941  16.906  0.00  0.00    +0.000 A 
ATOM     14  C   UNL     1       5.049   4.131  15.656  0.00  0.00    +0.000 A 
ATOM     15  C   UNL     1       6.375   4.555  15.579  0.00  0.00    +0.000 A 
ATOM     16 BR   UNL     1       7.184   4.802  13.888  0.00  0.00    +0.000 Br
ATOM     17  C   UNL     1       7.104   4.804  16.734  0.00  0.00    +0.000 A 
ATOM     18  C   UNL     1       6.502   4.612  17.978  0.00  0.00    +0.000 A 
ATOM     19  C   UNL     1       5.173   4.162  18.087  0.00  0.00    +0.000 A 
ENDBRANCH  11  19
ENDBRANCH   1  11
TORSDOF 5
ENDMDL
MODEL 8
REMARK VINA RESULT:      -5.8      2.591      3.764
REMARK  Name = 
REMARK  9 active torsions:
REMARK  status: ('A' for Active; 'I' for Inactive)
REMARK    1  A    between atoms: C_1  and  C_2
REMARK    2  A    between atoms: C_8  and  C_9
REMARK    3  A    between atoms: C_9  and  N_10
REMARK    4  A    between atoms: N_10  and  C_11
REMARK    5  A    between atoms: C_11  and  C_12
REMARK    6  A    between atoms: C_11  and  C_13
REMARK    7  A    between atoms: C_13  and  C_14
REMARK    8  A    between atoms: N_16  and  C_17
REMARK    9  A    between atoms: N_16  and  C_18
REMARK                            x       y       z     vdW  Elec       q    Type
REMARK                         _______ _______ _______ _____ _____    ______ ____
ROOT
ATOM      1  N   UNL     1       3.990   5.261  19.628  0.00  0.00    +0.000 NA
ATOM      2  H   UNL     1       4.192   4.776  20.511  0.00  0.00    +0.000 HD
ENDROOT
BRANCH   1   3
ATOM      3  C   UNL     1       2.955   6.271  19.919  0.00  0.00    +0.000 C 
ATOM      4  C   UNL     1       2.638   7.115  18.679  0.00  0.00    +0.000 C 
BRANCH   3   5
ATOM      5  C   UNL     1       1.661   5.561  20.385  0.00  0.00    +0.000 C 
BRANCH   5   6
ATOM      6  C   UNL     1       1.832   4.058  20.541  0.00  0.00    +0.000 C 
ATOM      7  O   UNL     1       2.155   3.565  21.624  0.00  0.00    +0.000 OA
ATOM      8  N   UNL     1       1.618   3.269  19.414  0.00  0.00    +0.000 N 
ATOM      9  C   UNL     1       1.179   3.755  18.114  0.00  0.00    +0.000 C 
ATOM     10  C   UNL     1       1.921   1.849  19.489  0.00  0.00    +0.000 C 
ENDBRANCH   5   6
ENDBRANCH   3   5
ENDBRANCH   1   3
BRANCH   1  11
ATOM     11  C   UNL     1       5.258   5.827  19.172  0.00  0.00    +0.000 C 
BRANCH  11  19
ATOM     12  C   UNL     1       7.508   7.000  17.493  0.00  0.00    +0.000 C 
ATOM     13  C   UNL     1       6.594   5.926  16.969  0.00  0.00    +0.000 A 
ATOM     14  C   UNL     1       6.789   5.455  15.657  0.00  0.00    +0.000 A 
ATOM     15  C   UNL     1       5.977   4.450  15.136  0.00  0.00    +0.000 A 
ATOM     16 BR   UNL     1       6.259   3.835  13.371  0.00  0.00    +0.000 Br
ATOM     17  C   UNL     1       4.966   3.889  15.906  0.00  0.00    +0.000 A 
ATOM     18  C   UNL     1       4.759   4.354  17.206  0.00  0.00    +0.000 A 
ATOM     19  C   UNL     1       5.548   5.384  17.750  0.00  0.00    +0.000 A 
ENDBRANCH  11  19
ENDBRANCH   1  11
TORSDOF 5
ENDMDL
MODEL 9
REMARK VINA RESULT:      -5.8      3.563      6.128
REMARK  Name = 
REMARK  9 active torsions:
REMARK  status: ('A' for Active; 'I' for Inactive)
REMARK    1  A    between atoms: C_1  and  C_2
REMARK    2  A    between atoms: C_8  and  C_9
REMARK    3  A    between atoms: C_9  and  N_10
REMARK    4  A    between atoms: N_10  and  C_11
REMARK    5  A    between atoms: C_11  and  C_12
REMARK    6  A    between atoms: C_11  and  C_13
REMARK    7  A    between atoms: C_13  and  C_14
REMARK    8  A    between atoms: N_16  and  C_17
REMARK    9  A    between atoms: N_16  and  C_18
REMARK                            x       y       z     vdW  Elec       q    Type
REMARK                         _______ _______ _______ _____ _____    ______ ____
ROOT
ATOM      1  N   UNL     1       6.983   4.905  18.324  0.00  0.00    +0.000 NA
ATOM      2  H   UNL     1       6.727   3.938  18.088  0.00  0.00    +0.000 HD
ENDROOT
BRANCH   1   3
ATOM      3  C   UNL     1       6.870   5.695  17.084  0.00  0.00    +0.000 C 
ATOM      4  C   UNL     1       7.548   7.062  17.231  0.00  0.00    +0.000 C 
BRANCH   3   5
ATOM      5  C   UNL     1       7.544   4.925  15.922  0.00  0.00    +0.000 C 
BRANCH   5   6
ATOM      6  C   UNL     1       6.551   4.157  15.064  0.00  0.00    +0.000 C 
ATOM      7  O   UNL     1       5.673   3.460  15.580  0.00  0.00    +0.000 OA
ATOM      8  N   UNL     1       6.680   4.265  13.682  0.00  0.00    +0.000 N 
ATOM      9  C   UNL     1       7.645   5.105  12.988  0.00  0.00    +0.000 C 
ATOM     10  C   UNL     1       5.848   3.425  12.836  0.00  0.00    +0.000 C 
ENDBRANCH   5   6
ENDBRANCH   3   5
ENDBRANCH   1   3
BRANCH   1  11
ATOM     11  C   UNL     1       6.063   5.326  19.380  0.00  0.00    +0.000 C 
BRANCH  11  19
ATOM     12  C   UNL     1       3.607   6.732  18.265  0.00  0.00    +0.000 C 
ATOM     13  C   UNL     1       3.580   5.290  18.689  0.00  0.00    +0.000 A 
ATOM     14  C   UNL     1       2.374   4.573  18.567  0.00  0.00    +0.000 A 
ATOM     15  C   UNL     1       2.307   3.230  18.932  0.00  0.00    +0.000 A 
ATOM     16 BR   UNL     1       0.675   2.290  18.758  0.00  0.00    +0.000 Br
ATOM     17  C   UNL     1       3.431   2.573  19.415  0.00  0.00    +0.000 A 
ATOM     18  C   UNL     1       4.630   3.275  19.547  0.00  0.00    +0.000 A 
ATOM     19  C   UNL     1       4.721   4.638  19.209  0.00  0.00    +0.000 A 
ENDBRANCH  11  19
ENDBRANCH   1  11
TORSDOF 5
ENDMDL
