MODEL 1
REMARK VINA RESULT:      -6.7      0.000      0.000
REMARK  Name = 
REMARK  11 active torsions:
REMARK  status: ('A' for Active; 'I' for Inactive)
REMARK    1  A    between atoms: C_1  and  O_2
REMARK    2  A    between atoms: O_2  and  C_3
REMARK    3  A    between atoms: C_5  and  C_6
REMARK    4  A    between atoms: C_10  and  C_11
REMARK    5  A    between atoms: C_13  and  S_14
REMARK    6  A    between atoms: N_15  and  C_16
REMARK    7  A    between atoms: C_19  and  C_20
REMARK    8  A    between atoms: C_25  and  O_26
REMARK    9  A    between atoms: O_26  and  C_27
REMARK   10  A    between atoms: C_27  and  C_28
REMARK   11  A    between atoms: C_27  and  C_29
REMARK                            x       y       z     vdW  Elec       q    Type
REMARK                         _______ _______ _______ _____ _____    ______ ____
ROOT
ATOM      1  C   UNL     1       0.218  11.299  18.903  0.00  0.00    +0.000 C 
ATOM      2  N   UNL     1       1.023  10.539  17.980  0.00  0.00    +0.000 N 
ATOM      3  C   UNL     1       1.418   9.257  18.161  0.00  0.00    +0.000 C 
ATOM      4  O   UNL     1       1.816   8.585  17.217  0.00  0.00    +0.000 OA
ATOM      5  C   UNL     1       1.451   8.769  19.538  0.00  0.00    +0.000 C 
ATOM      6  C   UNL     1       1.001   9.555  20.552  0.00  0.00    +0.000 C 
ATOM      7  N   UNL     1       0.345  10.786  20.288  0.00  0.00    +0.000 N 
ATOM      8  H   UNL     1       1.001  10.826  17.011  0.00  0.00    +0.000 HD
ENDROOT
BRANCH   7   9
ATOM      9  C   UNL     1      -0.340  11.558  21.290  0.00  0.00    +0.000 A 
ATOM     10  C   UNL     1      -1.373  11.021  22.076  0.00  0.00    +0.000 A 
ATOM     11  C   UNL     1      -2.072  11.798  23.015  0.00  0.00    +0.000 A 
ATOM     12  C   UNL     1      -1.784  13.152  23.183  0.00  0.00    +0.000 A 
ATOM     13  C   UNL     1      -2.548  14.007  24.149  0.00  0.00    +0.000 C 
ATOM     14  C   UNL     1      -0.745  13.702  22.438  0.00  0.00    +0.000 A 
ATOM     15  C   UNL     1      -0.018  12.907  21.541  0.00  0.00    +0.000 A 
ENDBRANCH   7   9
BRANCH   1  18
ATOM     16  C   UNL     1      -2.937  10.455  16.892  0.00  0.00    +0.000 A 
ATOM     17  C   UNL     1      -1.596  10.560  17.280  0.00  0.00    +0.000 A 
ATOM     18  C   UNL     1      -1.216  11.317  18.398  0.00  0.00    +0.000 A 
ATOM     19  C   UNL     1      -2.188  12.097  19.034  0.00  0.00    +0.000 A 
ATOM     20  C   UNL     1      -3.512  12.054  18.604  0.00  0.00    +0.000 A 
ATOM     21  C   UNL     1      -3.909  11.225  17.545  0.00  0.00    +0.000 A 
BRANCH  16  23
ATOM     22  C   UNL     1      -3.248  10.165  14.574  0.00  0.00    +0.000 C 
ATOM     23  O   UNL     1      -3.281   9.597  15.887  0.00  0.00    +0.000 OA
ENDBRANCH  16  23
BRANCH  21  24
ATOM     24  O   UNL     1      -5.266  11.227  17.353  0.00  0.00    +0.000 OA
BRANCH  24  25
ATOM     25  C   UNL     1      -6.130  11.604  18.429  0.00  0.00    +0.000 C 
ATOM     26  C   UNL     1      -7.237  12.528  17.925  0.00  0.00    +0.000 C 
ATOM     27  C   UNL     1      -6.781  10.318  18.948  0.00  0.00    +0.000 C 
ENDBRANCH  24  25
ENDBRANCH  21  24
ENDBRANCH   1  18
BRANCH   5  28
ATOM     28  C   UNL     1       2.147   7.457  19.865  0.00  0.00    +0.000 C 
ATOM     29  N   UNL     1       2.723   6.369  20.135  0.00  0.00    +0.000 NA
ENDBRANCH   5  28
BRANCH   6  30
ATOM     30  S   UNL     1       1.406   9.037  22.246  0.00  0.00    +0.000 S 
ATOM     31  H   UNL     1       2.724   8.787  22.187  0.00  0.00    +0.000 HD
ENDBRANCH   6  30
TORSDOF 7
ENDMDL
MODEL 2
REMARK VINA RESULT:      -6.4      3.218      5.718
REMARK  Name = 
REMARK  11 active torsions:
REMARK  status: ('A' for Active; 'I' for Inactive)
REMARK    1  A    between atoms: C_1  and  O_2
REMARK    2  A    between atoms: O_2  and  C_3
REMARK    3  A    between atoms: C_5  and  C_6
REMARK    4  A    between atoms: C_10  and  C_11
REMARK    5  A    between atoms: C_13  and  S_14
REMARK    6  A    between atoms: N_15  and  C_16
REMARK    7  A    between atoms: C_19  and  C_20
REMARK    8  A    between atoms: C_25  and  O_26
REMARK    9  A    between atoms: O_26  and  C_27
REMARK   10  A    between atoms: C_27  and  C_28
REMARK   11  A    between atoms: C_27  and  C_29
REMARK                            x       y       z     vdW  Elec       q    Type
REMARK                         _______ _______ _______ _____ _____    ______ ____
ROOT
ATOM      1  C   UNL     1      -0.071  12.077  21.649  0.00  0.00    +0.000 C 
ATOM      2  N   UNL     1      -0.996  11.677  22.680  0.00  0.00    +0.000 N 
ATOM      3  C   UNL     1      -1.935  12.476  23.238  0.00  0.00    +0.000 C 
ATOM      4  O   UNL     1      -2.876  11.997  23.860  0.00  0.00    +0.000 OA
ATOM      5  C   UNL     1      -1.704  13.918  23.158  0.00  0.00    +0.000 C 
ATOM      6  C   UNL     1      -0.642  14.400  22.458  0.00  0.00    +0.000 C 
ATOM      7  N   UNL     1       0.161  13.541  21.662  0.00  0.00    +0.000 N 
ATOM      8  H   UNL     1      -1.207  10.692  22.746  0.00  0.00    +0.000 HD
ENDROOT
BRANCH   7   9
ATOM      9  C   UNL     1       1.158  14.010  20.737  0.00  0.00    +0.000 A 
ATOM     10  C   UNL     1       2.534  13.852  20.970  0.00  0.00    +0.000 A 
ATOM     11  C   UNL     1       3.500  14.361  20.087  0.00  0.00    +0.000 A 
ATOM     12  C   UNL     1       3.127  15.075  18.948  0.00  0.00    +0.000 A 
ATOM     13  C   UNL     1       4.143  15.663  18.017  0.00  0.00    +0.000 C 
ATOM     14  C   UNL     1       1.769  15.221  18.678  0.00  0.00    +0.000 A 
ATOM     15  C   UNL     1       0.812  14.664  19.537  0.00  0.00    +0.000 A 
ENDBRANCH   7   9
BRANCH   1  18
ATOM     16  C   UNL     1      -0.254  10.197  18.311  0.00  0.00    +0.000 A 
ATOM     17  C   UNL     1       0.244  10.796  19.474  0.00  0.00    +0.000 A 
ATOM     18  C   UNL     1      -0.580  11.562  20.312  0.00  0.00    +0.000 A 
ATOM     19  C   UNL     1      -1.881  11.848  19.883  0.00  0.00    +0.000 A 
ATOM     20  C   UNL     1      -2.358  11.315  18.688  0.00  0.00    +0.000 A 
ATOM     21  C   UNL     1      -1.565  10.472  17.898  0.00  0.00    +0.000 A 
BRANCH  16  23
ATOM     22  C   UNL     1       1.748   8.956  18.261  0.00  0.00    +0.000 C 
ATOM     23  O   UNL     1       0.541   9.345  17.599  0.00  0.00    +0.000 OA
ENDBRANCH  16  23
BRANCH  21  24
ATOM     24  O   UNL     1      -2.249   9.951  16.830  0.00  0.00    +0.000 OA
BRANCH  24  25
ATOM     25  C   UNL     1      -2.818  10.833  15.858  0.00  0.00    +0.000 C 
ATOM     26  C   UNL     1      -2.905  10.144  14.498  0.00  0.00    +0.000 C 
ATOM     27  C   UNL     1      -4.243  11.149  16.327  0.00  0.00    +0.000 C 
ENDBRANCH  24  25
ENDBRANCH  21  24
ENDBRANCH   1  18
BRANCH   5  28
ATOM     28  C   UNL     1      -2.540  14.871  23.995  0.00  0.00    +0.000 C 
ATOM     29  N   UNL     1      -3.234  15.662  24.690  0.00  0.00    +0.000 NA
ENDBRANCH   5  28
BRANCH   6  30
ATOM     30  S   UNL     1      -0.214  16.149  22.702  0.00  0.00    +0.000 S 
ATOM     31  H   UNL     1      -1.006  16.523  23.720  0.00  0.00    +0.000 HD
ENDBRANCH   6  30
TORSDOF 7
ENDMDL
MODEL 3
REMARK VINA RESULT:      -6.3      3.286      7.070
REMARK  Name = 
REMARK  11 active torsions:
REMARK  status: ('A' for Active; 'I' for Inactive)
REMARK    1  A    between atoms: C_1  and  O_2
REMARK    2  A    between atoms: O_2  and  C_3
REMARK    3  A    between atoms: C_5  and  C_6
REMARK    4  A    between atoms: C_10  and  C_11
REMARK    5  A    between atoms: C_13  and  S_14
REMARK    6  A    between atoms: N_15  and  C_16
REMARK    7  A    between atoms: C_19  and  C_20
REMARK    8  A    between atoms: C_25  and  O_26
REMARK    9  A    between atoms: O_26  and  C_27
REMARK   10  A    between atoms: C_27  and  C_28
REMARK   11  A    between atoms: C_27  and  C_29
REMARK                            x       y       z     vdW  Elec       q    Type
REMARK                         _______ _______ _______ _____ _____    ______ ____
ROOT
ATOM      1  C   UNL     1      -0.333  11.817  20.230  0.00  0.00    +0.000 C 
ATOM      2  N   UNL     1      -0.039  12.522  21.452  0.00  0.00    +0.000 N 
ATOM      3  C   UNL     1      -0.930  12.781  22.437  0.00  0.00    +0.000 C 
ATOM      4  O   UNL     1      -0.551  13.090  23.561  0.00  0.00    +0.000 OA
ATOM      5  C   UNL     1      -2.343  12.784  22.060  0.00  0.00    +0.000 C 
ATOM      6  C   UNL     1      -2.713  12.436  20.799  0.00  0.00    +0.000 C 
ATOM      7  N   UNL     1      -1.770  11.910  19.878  0.00  0.00    +0.000 N 
ATOM      8  H   UNL     1       0.922  12.515  21.764  0.00  0.00    +0.000 HD
ENDROOT
BRANCH   7   9
ATOM      9  C   UNL     1      -2.128  11.327  18.613  0.00  0.00    +0.000 A 
ATOM     10  C   UNL     1      -1.867  11.967  17.389  0.00  0.00    +0.000 A 
ATOM     11  C   UNL     1      -2.268  11.415  16.162  0.00  0.00    +0.000 A 
ATOM     12  C   UNL     1      -2.974  10.213  16.112  0.00  0.00    +0.000 A 
ATOM     13  C   UNL     1      -3.450   9.630  14.815  0.00  0.00    +0.000 C 
ATOM     14  C   UNL     1      -3.221   9.543  17.307  0.00  0.00    +0.000 A 
ATOM     15  C   UNL     1      -2.770  10.075  18.523  0.00  0.00    +0.000 A 
ENDBRANCH   7   9
BRANCH   1  18
ATOM     16  C   UNL     1       1.572   8.555  19.568  0.00  0.00    +0.000 A 
ATOM     17  C   UNL     1       0.995   9.818  19.388  0.00  0.00    +0.000 A 
ATOM     18  C   UNL     1       0.162  10.385  20.362  0.00  0.00    +0.000 A 
ATOM     19  C   UNL     1      -0.211   9.599  21.458  0.00  0.00    +0.000 A 
ATOM     20  C   UNL     1       0.301   8.312  21.604  0.00  0.00    +0.000 A 
ATOM     21  C   UNL     1       1.209   7.779  20.677  0.00  0.00    +0.000 A 
BRANCH  16  23
ATOM     22  C   UNL     1       2.556   8.847  17.447  0.00  0.00    +0.000 C 
ATOM     23  O   UNL     1       2.488   8.098  18.663  0.00  0.00    +0.000 OA
ENDBRANCH  16  23
BRANCH  21  24
ATOM     24  O   UNL     1       1.694   6.555  21.057  0.00  0.00    +0.000 OA
BRANCH  24  25
ATOM     25  C   UNL     1       1.850   5.524  20.078  0.00  0.00    +0.000 C 
ATOM     26  C   UNL     1       3.324   5.150  19.927  0.00  0.00    +0.000 C 
ATOM     27  C   UNL     1       1.097   4.296  20.602  0.00  0.00    +0.000 C 
ENDBRANCH  24  25
ENDBRANCH  21  24
ENDBRANCH   1  18
BRANCH   5  28
ATOM     28  C   UNL     1      -3.385  13.341  23.017  0.00  0.00    +0.000 C 
ATOM     29  N   UNL     1      -4.249  13.803  23.810  0.00  0.00    +0.000 NA
ENDBRANCH   5  28
BRANCH   6  30
ATOM     30  S   UNL     1      -4.421  12.810  20.304  0.00  0.00    +0.000 S 
ATOM     31  H   UNL     1      -4.375  14.115  19.990  0.00  0.00    +0.000 HD
ENDBRANCH   6  30
TORSDOF 7
ENDMDL
MODEL 4
REMARK VINA RESULT:      -6.3      3.341      6.991
REMARK  Name = 
REMARK  11 active torsions:
REMARK  status: ('A' for Active; 'I' for Inactive)
REMARK    1  A    between atoms: C_1  and  O_2
REMARK    2  A    between atoms: O_2  and  C_3
REMARK    3  A    between atoms: C_5  and  C_6
REMARK    4  A    between atoms: C_10  and  C_11
REMARK    5  A    between atoms: C_13  and  S_14
REMARK    6  A    between atoms: N_15  and  C_16
REMARK    7  A    between atoms: C_19  and  C_20
REMARK    8  A    between atoms: C_25  and  O_26
REMARK    9  A    between atoms: O_26  and  C_27
REMARK   10  A    between atoms: C_27  and  C_28
REMARK   11  A    between atoms: C_27  and  C_29
REMARK                            x       y       z     vdW  Elec       q    Type
REMARK                         _______ _______ _______ _____ _____    ______ ____
ROOT
ATOM      1  C   UNL     1       1.085  11.928  18.765  0.00  0.00    +0.000 C 
ATOM      2  N   UNL     1       1.978  12.705  19.588  0.00  0.00    +0.000 N 
ATOM      3  C   UNL     1       1.682  13.193  20.815  0.00  0.00    +0.000 C 
ATOM      4  O   UNL     1       2.572  13.558  21.575  0.00  0.00    +0.000 OA
ATOM      5  C   UNL     1       0.265  13.364  21.130  0.00  0.00    +0.000 C 
ATOM      6  C   UNL     1      -0.684  12.945  20.251  0.00  0.00    +0.000 C 
ATOM      7  N   UNL     1      -0.334  12.193  19.098  0.00  0.00    +0.000 N 
ATOM      8  H   UNL     1       2.968  12.589  19.423  0.00  0.00    +0.000 HD
ENDROOT
BRANCH   7   9
ATOM      9  C   UNL     1      -1.294  11.541  18.248  0.00  0.00    +0.000 A 
ATOM     10  C   UNL     1      -1.919  10.335  18.607  0.00  0.00    +0.000 A 
ATOM     11  C   UNL     1      -2.814   9.678  17.748  0.00  0.00    +0.000 A 
ATOM     12  C   UNL     1      -3.097  10.187  16.480  0.00  0.00    +0.000 A 
ATOM     13  C   UNL     1      -4.015   9.478  15.531  0.00  0.00    +0.000 C 
ATOM     14  C   UNL     1      -2.514  11.396  16.111  0.00  0.00    +0.000 A 
ATOM     15  C   UNL     1      -1.663  12.072  16.996  0.00  0.00    +0.000 A 
ENDBRANCH   7   9
BRANCH   1  18
ATOM     16  C   UNL     1       1.417   8.360  20.136  0.00  0.00    +0.000 A 
ATOM     17  C   UNL     1       1.204   9.743  20.062  0.00  0.00    +0.000 A 
ATOM     18  C   UNL     1       1.466  10.460  18.886  0.00  0.00    +0.000 A 
ATOM     19  C   UNL     1       2.093   9.794  17.827  0.00  0.00    +0.000 A 
ATOM     20  C   UNL     1       2.376   8.434  17.924  0.00  0.00    +0.000 A 
ATOM     21  C   UNL     1       2.029   7.697  19.064  0.00  0.00    +0.000 A 
BRANCH  16  23
ATOM     22  C   UNL     1      -0.078   8.265  21.955  0.00  0.00    +0.000 C 
ATOM     23  O   UNL     1       1.018   7.676  21.249  0.00  0.00    +0.000 OA
ENDBRANCH  16  23
BRANCH  21  24
ATOM     24  O   UNL     1       2.275   6.356  18.920  0.00  0.00    +0.000 OA
BRANCH  24  25
ATOM     25  C   UNL     1       3.495   5.924  18.312  0.00  0.00    +0.000 C 
ATOM     26  C   UNL     1       4.521   5.550  19.380  0.00  0.00    +0.000 C 
ATOM     27  C   UNL     1       3.167   4.664  17.503  0.00  0.00    +0.000 C 
ENDBRANCH  24  25
ENDBRANCH  21  24
ENDBRANCH   1  18
BRANCH   5  28
ATOM     28  C   UNL     1      -0.153  14.165  22.353  0.00  0.00    +0.000 C 
ATOM     29  N   UNL     1      -0.499  14.829  23.367  0.00  0.00    +0.000 NA
ENDBRANCH   5  28
BRANCH   6  30
ATOM     30  S   UNL     1      -2.387  13.513  20.536  0.00  0.00    +0.000 S 
ATOM     31  H   UNL     1      -2.975  13.344  19.341  0.00  0.00    +0.000 HD
ENDBRANCH   6  30
TORSDOF 7
ENDMDL
MODEL 5
REMARK VINA RESULT:      -6.2      3.353      6.774
REMARK  Name = 
REMARK  11 active torsions:
REMARK  status: ('A' for Active; 'I' for Inactive)
REMARK    1  A    between atoms: C_1  and  O_2
REMARK    2  A    between atoms: O_2  and  C_3
REMARK    3  A    between atoms: C_5  and  C_6
REMARK    4  A    between atoms: C_10  and  C_11
REMARK    5  A    between atoms: C_13  and  S_14
REMARK    6  A    between atoms: N_15  and  C_16
REMARK    7  A    between atoms: C_19  and  C_20
REMARK    8  A    between atoms: C_25  and  O_26
REMARK    9  A    between atoms: O_26  and  C_27
REMARK   10  A    between atoms: C_27  and  C_28
REMARK   11  A    between atoms: C_27  and  C_29
REMARK                            x       y       z     vdW  Elec       q    Type
REMARK                         _______ _______ _______ _____ _____    ______ ____
ROOT
ATOM      1  C   UNL     1       1.095  11.762  18.814  0.00  0.00    +0.000 C 
ATOM      2  N   UNL     1       2.004  12.530  19.628  0.00  0.00    +0.000 N 
ATOM      3  C   UNL     1       1.708  13.066  20.835  0.00  0.00    +0.000 C 
ATOM      4  O   UNL     1       2.599  13.421  21.599  0.00  0.00    +0.000 OA
ATOM      5  C   UNL     1       0.293  13.298  21.121  0.00  0.00    +0.000 C 
ATOM      6  C   UNL     1      -0.657  12.889  20.240  0.00  0.00    +0.000 C 
ATOM      7  N   UNL     1      -0.318  12.090  19.116  0.00  0.00    +0.000 N 
ATOM      8  H   UNL     1       2.991  12.373  19.483  0.00  0.00    +0.000 HD
ENDROOT
BRANCH   7   9
ATOM      9  C   UNL     1      -1.288  11.448  18.270  0.00  0.00    +0.000 A 
ATOM     10  C   UNL     1      -1.928  10.251  18.633  0.00  0.00    +0.000 A 
ATOM     11  C   UNL     1      -2.834   9.604  17.777  0.00  0.00    +0.000 A 
ATOM     12  C   UNL     1      -3.113  10.114  16.509  0.00  0.00    +0.000 A 
ATOM     13  C   UNL     1      -4.043   9.414  15.565  0.00  0.00    +0.000 C 
ATOM     14  C   UNL     1      -2.515  11.313  16.135  0.00  0.00    +0.000 A 
ATOM     15  C   UNL     1      -1.653  11.981  17.017  0.00  0.00    +0.000 A 
ENDBRANCH   7   9
BRANCH   1  18
ATOM     16  C   UNL     1       2.405   8.225  18.117  0.00  0.00    +0.000 A 
ATOM     17  C   UNL     1       1.971   9.543  17.931  0.00  0.00    +0.000 A 
ATOM     18  C   UNL     1       1.419  10.286  18.984  0.00  0.00    +0.000 A 
ATOM     19  C   UNL     1       1.166   9.633  20.196  0.00  0.00    +0.000 A 
ATOM     20  C   UNL     1       1.528   8.299  20.362  0.00  0.00    +0.000 A 
ATOM     21  C   UNL     1       2.165   7.583  19.339  0.00  0.00    +0.000 A 
BRANCH  16  23
ATOM     22  C   UNL     1       4.377   7.126  17.441  0.00  0.00    +0.000 C 
ATOM     23  O   UNL     1       3.065   7.585  17.106  0.00  0.00    +0.000 OA
ENDBRANCH  16  23
BRANCH  21  24
ATOM     24  O   UNL     1       2.553   6.329  19.734  0.00  0.00    +0.000 OA
BRANCH  24  25
ATOM     25  C   UNL     1       1.620   5.247  19.662  0.00  0.00    +0.000 C 
ATOM     26  C   UNL     1       1.846   4.432  18.389  0.00  0.00    +0.000 C 
ATOM     27  C   UNL     1       1.898   4.341  20.866  0.00  0.00    +0.000 C 
ENDBRANCH  24  25
ENDBRANCH  21  24
ENDBRANCH   1  18
BRANCH   5  28
ATOM     28  C   UNL     1      -0.113  14.151  22.313  0.00  0.00    +0.000 C 
ATOM     29  N   UNL     1      -0.449  14.857  23.302  0.00  0.00    +0.000 NA
ENDBRANCH   5  28
BRANCH   6  30
ATOM     30  S   UNL     1      -2.342  13.527  20.480  0.00  0.00    +0.000 S 
ATOM     31  H   UNL     1      -3.008  13.054  19.414  0.00  0.00    +0.000 HD
ENDBRANCH   6  30
TORSDOF 7
ENDMDL
MODEL 6
REMARK VINA RESULT:      -6.0      4.231      7.353
REMARK  Name = 
REMARK  11 active torsions:
REMARK  status: ('A' for Active; 'I' for Inactive)
REMARK    1  A    between atoms: C_1  and  O_2
REMARK    2  A    between atoms: O_2  and  C_3
REMARK    3  A    between atoms: C_5  and  C_6
REMARK    4  A    between atoms: C_10  and  C_11
REMARK    5  A    between atoms: C_13  and  S_14
REMARK    6  A    between atoms: N_15  and  C_16
REMARK    7  A    between atoms: C_19  and  C_20
REMARK    8  A    between atoms: C_25  and  O_26
REMARK    9  A    between atoms: O_26  and  C_27
REMARK   10  A    between atoms: C_27  and  C_28
REMARK   11  A    between atoms: C_27  and  C_29
REMARK                            x       y       z     vdW  Elec       q    Type
REMARK                         _______ _______ _______ _____ _____    ______ ____
ROOT
ATOM      1  C   UNL     1      -3.861  12.947  22.946  0.00  0.00    +0.000 C 
ATOM      2  N   UNL     1      -4.955  12.341  22.230  0.00  0.00    +0.000 N 
ATOM      3  C   UNL     1      -5.717  12.961  21.299  0.00  0.00    +0.000 C 
ATOM      4  O   UNL     1      -6.402  12.312  20.517  0.00  0.00    +0.000 OA
ATOM      5  C   UNL     1      -5.764  14.421  21.356  0.00  0.00    +0.000 C 
ATOM      6  C   UNL     1      -4.987  15.095  22.245  0.00  0.00    +0.000 C 
ATOM      7  N   UNL     1      -4.003  14.421  23.015  0.00  0.00    +0.000 N 
ATOM      8  H   UNL     1      -4.941  11.335  22.141  0.00  0.00    +0.000 HD
ENDROOT
BRANCH   7   9
ATOM      9  C   UNL     1      -3.010  15.094  23.808  0.00  0.00    +0.000 A 
ATOM     10  C   UNL     1      -2.025  15.920  23.239  0.00  0.00    +0.000 A 
ATOM     11  C   UNL     1      -1.028  16.530  24.017  0.00  0.00    +0.000 A 
ATOM     12  C   UNL     1      -0.958  16.314  25.393  0.00  0.00    +0.000 A 
ATOM     13  C   UNL     1       0.125  16.921  26.233  0.00  0.00    +0.000 C 
ATOM     14  C   UNL     1      -1.938  15.524  25.987  0.00  0.00    +0.000 A 
ATOM     15  C   UNL     1      -2.961  14.962  25.211  0.00  0.00    +0.000 A 
ENDBRANCH   7   9
BRANCH   1  18
ATOM     16  C   UNL     1      -0.508  11.167  22.400  0.00  0.00    +0.000 A 
ATOM     17  C   UNL     1      -1.643  11.704  23.019  0.00  0.00    +0.000 A 
ATOM     18  C   UNL     1      -2.554  12.499  22.310  0.00  0.00    +0.000 A 
ATOM     19  C   UNL     1      -2.230  12.876  21.002  0.00  0.00    +0.000 A 
ATOM     20  C   UNL     1      -1.063  12.405  20.405  0.00  0.00    +0.000 A 
ATOM     21  C   UNL     1      -0.198  11.534  21.083  0.00  0.00    +0.000 A 
BRANCH  16  23
ATOM     22  C   UNL     1      -0.076   8.909  22.919  0.00  0.00    +0.000 C 
ATOM     23  O   UNL     1       0.279  10.285  23.085  0.00  0.00    +0.000 OA
ENDBRANCH  16  23
BRANCH  21  24
ATOM     24  O   UNL     1       0.826  11.084  20.291  0.00  0.00    +0.000 OA
BRANCH  24  25
ATOM     25  C   UNL     1       0.752  11.264  18.873  0.00  0.00    +0.000 C 
ATOM     26  C   UNL     1       1.998  11.984  18.361  0.00  0.00    +0.000 C 
ATOM     27  C   UNL     1       0.718   9.865  18.249  0.00  0.00    +0.000 C 
ENDBRANCH  24  25
ENDBRANCH  21  24
ENDBRANCH   1  18
BRANCH   5  28
ATOM     28  C   UNL     1      -6.805  15.181  20.549  0.00  0.00    +0.000 C 
ATOM     29  N   UNL     1      -7.668  15.811  19.880  0.00  0.00    +0.000 NA
ENDBRANCH   5  28
BRANCH   6  30
ATOM     30  S   UNL     1      -5.362  16.853  22.508  0.00  0.00    +0.000 S 
ATOM     31  H   UNL     1      -6.617  16.835  22.987  0.00  0.00    +0.000 HD
ENDBRANCH   6  30
TORSDOF 7
ENDMDL
MODEL 7
REMARK VINA RESULT:      -6.0      8.882     11.568
REMARK  Name = 
REMARK  11 active torsions:
REMARK  status: ('A' for Active; 'I' for Inactive)
REMARK    1  A    between atoms: C_1  and  O_2
REMARK    2  A    between atoms: O_2  and  C_3
REMARK    3  A    between atoms: C_5  and  C_6
REMARK    4  A    between atoms: C_10  and  C_11
REMARK    5  A    between atoms: C_13  and  S_14
REMARK    6  A    between atoms: N_15  and  C_16
REMARK    7  A    between atoms: C_19  and  C_20
REMARK    8  A    between atoms: C_25  and  O_26
REMARK    9  A    between atoms: O_26  and  C_27
REMARK   10  A    between atoms: C_27  and  C_28
REMARK   11  A    between atoms: C_27  and  C_29
REMARK                            x       y       z     vdW  Elec       q    Type
REMARK                         _______ _______ _______ _____ _____    ______ ____
ROOT
ATOM      1  C   UNL     1       9.582  13.959  21.583  0.00  0.00    +0.000 C 
ATOM      2  N   UNL     1      10.121  15.162  22.166  0.00  0.00    +0.000 N 
ATOM      3  C   UNL     1      10.449  16.282  21.480  0.00  0.00    +0.000 C 
ATOM      4  O   UNL     1      10.594  17.352  22.060  0.00  0.00    +0.000 OA
ATOM      5  C   UNL     1      10.729  16.121  20.054  0.00  0.00    +0.000 C 
ATOM      6  C   UNL     1      10.556  14.911  19.458  0.00  0.00    +0.000 C 
ATOM      7  N   UNL     1       9.952  13.831  20.154  0.00  0.00    +0.000 N 
ATOM      8  H   UNL     1       9.922  15.326  23.142  0.00  0.00    +0.000 HD
ENDROOT
BRANCH   7   9
ATOM      9  C   UNL     1       9.547  12.603  19.526  0.00  0.00    +0.000 A 
ATOM     10  C   UNL     1       8.760  12.577  18.361  0.00  0.00    +0.000 A 
ATOM     11  C   UNL     1       8.324  11.373  17.786  0.00  0.00    +0.000 A 
ATOM     12  C   UNL     1       8.635  10.144  18.369  0.00  0.00    +0.000 A 
ATOM     13  C   UNL     1       8.143   8.851  17.794  0.00  0.00    +0.000 C 
ATOM     14  C   UNL     1       9.437  10.139  19.506  0.00  0.00    +0.000 A 
ATOM     15  C   UNL     1       9.911  11.344  20.045  0.00  0.00    +0.000 A 
ENDBRANCH   7   9
BRANCH   1  18
ATOM     16  C   UNL     1       6.163  13.241  23.167  0.00  0.00    +0.000 A 
ATOM     17  C   UNL     1       7.524  13.161  22.848  0.00  0.00    +0.000 A 
ATOM     18  C   UNL     1       8.080  13.935  21.819  0.00  0.00    +0.000 A 
ATOM     19  C   UNL     1       7.217  14.682  21.009  0.00  0.00    +0.000 A 
ATOM     20  C   UNL     1       5.850  14.705  21.276  0.00  0.00    +0.000 A 
ATOM     21  C   UNL     1       5.307  14.005  22.363  0.00  0.00    +0.000 A 
BRANCH  16  23
ATOM     22  C   UNL     1       6.440  11.420  24.637  0.00  0.00    +0.000 C 
ATOM     23  O   UNL     1       5.689  12.579  24.264  0.00  0.00    +0.000 OA
ENDBRANCH  16  23
BRANCH  21  24
ATOM     24  O   UNL     1       3.970  14.251  22.534  0.00  0.00    +0.000 OA
BRANCH  24  25
ATOM     25  C   UNL     1       3.337  15.278  21.765  0.00  0.00    +0.000 C 
ATOM     26  C   UNL     1       2.089  14.734  21.073  0.00  0.00    +0.000 C 
ATOM     27  C   UNL     1       2.901  16.367  22.751  0.00  0.00    +0.000 C 
ENDBRANCH  24  25
ENDBRANCH  21  24
ENDBRANCH   1  18
BRANCH   5  28
ATOM     28  C   UNL     1      11.378  17.252  19.272  0.00  0.00    +0.000 C 
ATOM     29  N   UNL     1      11.916  18.190  18.624  0.00  0.00    +0.000 NA
ENDBRANCH   5  28
BRANCH   6  30
ATOM     30  S   UNL     1      11.261  14.698  17.797  0.00  0.00    +0.000 S 
ATOM     31  H   UNL     1      12.575  14.553  18.033  0.00  0.00    +0.000 HD
ENDBRANCH   6  30
TORSDOF 7
ENDMDL
MODEL 8
REMARK VINA RESULT:      -6.0      3.371      7.077
REMARK  Name = 
REMARK  11 active torsions:
REMARK  status: ('A' for Active; 'I' for Inactive)
REMARK    1  A    between atoms: C_1  and  O_2
REMARK    2  A    between atoms: O_2  and  C_3
REMARK    3  A    between atoms: C_5  and  C_6
REMARK    4  A    between atoms: C_10  and  C_11
REMARK    5  A    between atoms: C_13  and  S_14
REMARK    6  A    between atoms: N_15  and  C_16
REMARK    7  A    between atoms: C_19  and  C_20
REMARK    8  A    between atoms: C_25  and  O_26
REMARK    9  A    between atoms: O_26  and  C_27
REMARK   10  A    between atoms: C_27  and  C_28
REMARK   11  A    between atoms: C_27  and  C_29
REMARK                            x       y       z     vdW  Elec       q    Type
REMARK                         _______ _______ _______ _____ _____    ______ ____
ROOT
ATOM      1  C   UNL     1       0.101  12.274  19.219  0.00  0.00    +0.000 C 
ATOM      2  N   UNL     1       0.640  13.124  20.252  0.00  0.00    +0.000 N 
ATOM      3  C   UNL     1       0.022  13.422  21.418  0.00  0.00    +0.000 C 
ATOM      4  O   UNL     1       0.655  13.875  22.365  0.00  0.00    +0.000 OA
ATOM      5  C   UNL     1      -1.434  13.286  21.444  0.00  0.00    +0.000 C 
ATOM      6  C   UNL     1      -2.091  12.782  20.366  0.00  0.00    +0.000 C 
ATOM      7  N   UNL     1      -1.380  12.228  19.268  0.00  0.00    +0.000 N 
ATOM      8  H   UNL     1       1.645  13.217  20.287  0.00  0.00    +0.000 HD
ENDROOT
BRANCH   7   9
ATOM      9  C   UNL     1      -2.004  11.491  18.203  0.00  0.00    +0.000 A 
ATOM     10  C   UNL     1      -2.556  10.213  18.396  0.00  0.00    +0.000 A 
ATOM     11  C   UNL     1      -3.115   9.478  17.337  0.00  0.00    +0.000 A 
ATOM     12  C   UNL     1      -3.117   9.982  16.036  0.00  0.00    +0.000 A 
ATOM     13  C   UNL     1      -3.670   9.194  14.887  0.00  0.00    +0.000 C 
ATOM     14  C   UNL     1      -2.603  11.257  15.822  0.00  0.00    +0.000 A 
ATOM     15  C   UNL     1      -2.095  12.005  16.893  0.00  0.00    +0.000 A 
ENDBRANCH   7   9
BRANCH   1  18
ATOM     16  C   UNL     1       1.279   8.917  20.653  0.00  0.00    +0.000 A 
ATOM     17  C   UNL     1       0.817  10.236  20.562  0.00  0.00    +0.000 A 
ATOM     18  C   UNL     1       0.748  10.903  19.330  0.00  0.00    +0.000 A 
ATOM     19  C   UNL     1       1.297  10.277  18.205  0.00  0.00    +0.000 A 
ATOM     20  C   UNL     1       1.827   8.994  18.305  0.00  0.00    +0.000 A 
ATOM     21  C   UNL     1       1.810   8.290  19.518  0.00  0.00    +0.000 A 
BRANCH  16  23
ATOM     22  C   UNL     1       0.758   9.056  22.947  0.00  0.00    +0.000 C 
ATOM     23  O   UNL     1       1.198   8.256  21.845  0.00  0.00    +0.000 OA
ENDBRANCH  16  23
BRANCH  21  24
ATOM     24  O   UNL     1       2.260   7.002  19.387  0.00  0.00    +0.000 OA
BRANCH  24  25
ATOM     25  C   UNL     1       2.620   6.508  18.093  0.00  0.00    +0.000 C 
ATOM     26  C   UNL     1       4.134   6.343  17.987  0.00  0.00    +0.000 C 
ATOM     27  C   UNL     1       1.976   5.125  17.952  0.00  0.00    +0.000 C 
ENDBRANCH  24  25
ENDBRANCH  21  24
ENDBRANCH   1  18
BRANCH   5  28
ATOM     28  C   UNL     1      -2.232  13.867  22.600  0.00  0.00    +0.000 C 
ATOM     29  N   UNL     1      -2.895  14.349  23.558  0.00  0.00    +0.000 NA
ENDBRANCH   5  28
BRANCH   6  30
ATOM     30  S   UNL     1      -3.896  12.980  20.328  0.00  0.00    +0.000 S 
ATOM     31  H   UNL     1      -4.349  11.718  20.398  0.00  0.00    +0.000 HD
ENDBRANCH   6  30
TORSDOF 7
ENDMDL
MODEL 9
REMARK VINA RESULT:      -5.9      4.218      7.714
REMARK  Name = 
REMARK  11 active torsions:
REMARK  status: ('A' for Active; 'I' for Inactive)
REMARK    1  A    between atoms: C_1  and  O_2
REMARK    2  A    between atoms: O_2  and  C_3
REMARK    3  A    between atoms: C_5  and  C_6
REMARK    4  A    between atoms: C_10  and  C_11
REMARK    5  A    between atoms: C_13  and  S_14
REMARK    6  A    between atoms: N_15  and  C_16
REMARK    7  A    between atoms: C_19  and  C_20
REMARK    8  A    between atoms: C_25  and  O_26
REMARK    9  A    between atoms: O_26  and  C_27
REMARK   10  A    between atoms: C_27  and  C_28
REMARK   11  A    between atoms: C_27  and  C_29
REMARK                            x       y       z     vdW  Elec       q    Type
REMARK                         _______ _______ _______ _____ _____    ______ ____
ROOT
ATOM      1  C   UNL     1       4.350   6.198  18.650  0.00  0.00    +0.000 C 
ATOM      2  N   UNL     1       5.243   6.775  17.677  0.00  0.00    +0.000 N 
ATOM      3  C   UNL     1       5.339   6.393  16.382  0.00  0.00    +0.000 C 
ATOM      4  O   UNL     1       5.871   7.121  15.552  0.00  0.00    +0.000 OA
ATOM      5  C   UNL     1       4.884   5.041  16.061  0.00  0.00    +0.000 C 
ATOM      6  C   UNL     1       4.303   4.271  17.020  0.00  0.00    +0.000 C 
ATOM      7  N   UNL     1       3.976   4.809  18.293  0.00  0.00    +0.000 N 
ATOM      8  H   UNL     1       5.554   7.721  17.847  0.00  0.00    +0.000 HD
ENDROOT
BRANCH   7   9
ATOM      9  C   UNL     1       3.175   4.121  19.269  0.00  0.00    +0.000 A 
ATOM     10  C   UNL     1       1.770   4.137  19.234  0.00  0.00    +0.000 A 
ATOM     11  C   UNL     1       0.996   3.507  20.222  0.00  0.00    +0.000 A 
ATOM     12  C   UNL     1       1.598   2.860  21.302  0.00  0.00    +0.000 A 
ATOM     13  C   UNL     1       0.789   2.220  22.389  0.00  0.00    +0.000 C 
ATOM     14  C   UNL     1       2.988   2.805  21.345  0.00  0.00    +0.000 A 
ATOM     15  C   UNL     1       3.753   3.391  20.327  0.00  0.00    +0.000 A 
ENDBRANCH   7   9
BRANCH   1  18
ATOM     16  C   UNL     1       1.415   8.094  20.233  0.00  0.00    +0.000 A 
ATOM     17  C   UNL     1       2.428   7.152  20.017  0.00  0.00    +0.000 A 
ATOM     18  C   UNL     1       3.151   7.118  18.816  0.00  0.00    +0.000 A 
ATOM     19  C   UNL     1       2.736   7.949  17.768  0.00  0.00    +0.000 A 
ATOM     20  C   UNL     1       1.678   8.836  17.953  0.00  0.00    +0.000 A 
ATOM     21  C   UNL     1       1.017   8.935  19.185  0.00  0.00    +0.000 A 
BRANCH  16  23
ATOM     22  C   UNL     1       1.393   9.184  22.322  0.00  0.00    +0.000 C 
ATOM     23  O   UNL     1       0.833   8.185  21.465  0.00  0.00    +0.000 OA
ENDBRANCH  16  23
BRANCH  21  24
ATOM     24  O   UNL     1       0.093   9.947  19.208  0.00  0.00    +0.000 OA
BRANCH  24  25
ATOM     25  C   UNL     1       0.467  11.254  18.764  0.00  0.00    +0.000 C 
ATOM     26  C   UNL     1      -0.773  12.073  18.410  0.00  0.00    +0.000 C 
ATOM     27  C   UNL     1       1.170  11.938  19.942  0.00  0.00    +0.000 C 
ENDBRANCH  24  25
ENDBRANCH  21  24
ENDBRANCH   1  18
BRANCH   5  28
ATOM     28  C   UNL     1       5.216   4.427  14.710  0.00  0.00    +0.000 C 
ATOM     29  N   UNL     1       5.490   3.918  13.590  0.00  0.00    +0.000 NA
ENDBRANCH   5  28
BRANCH   6  30
ATOM     30  S   UNL     1       4.101   2.503  16.653  0.00  0.00    +0.000 S 
ATOM     31  H   UNL     1       5.305   2.145  16.177  0.00  0.00    +0.000 HD
ENDBRANCH   6  30
TORSDOF 7
ENDMDL
