MODEL 1
REMARK VINA RESULT:      -8.9      0.000      0.000
REMARK  Name = 
REMARK  5 active torsions:
REMARK  status: ('A' for Active; 'I' for Inactive)
REMARK    1  A    between atoms: C_2  and  C_21
REMARK    2  A    between atoms: N_12  and  C_13
REMARK    3  A    between atoms: C_13  and  C_14
REMARK    4  A    between atoms: C_14  and  N_15
REMARK    5  A    between atoms: C_25  and  N_26
REMARK                            x       y       z     vdW  Elec       q    Type
REMARK                         _______ _______ _______ _____ _____    ______ ____
ROOT
ATOM      1  O   UNL     1       2.353   7.042  20.221  0.00  0.00    +0.000 OA
ATOM      2  C   UNL     1       2.032   7.903  19.408  0.00  0.00    +0.000 C 
ATOM      3  N   UNL     1       2.469   7.983  18.099  0.00  0.00    +0.000 N 
ATOM      4  C   UNL     1       3.380   7.052  17.643  0.00  0.00    +0.000 A 
ATOM      5  N   UNL     1       4.518   7.404  17.091  0.00  0.00    +0.000 NA
ATOM      6  C   UNL     1       5.159   6.233  16.783  0.00  0.00    +0.000 A 
ATOM      7  C   UNL     1       6.454   6.050  16.256  0.00  0.00    +0.000 A 
ATOM      8  C   UNL     1       6.905   4.762  15.951  0.00  0.00    +0.000 A 
ATOM      9  C   UNL     1       6.079   3.670  16.156  0.00  0.00    +0.000 A 
ATOM     10  C   UNL     1       4.796   3.832  16.694  0.00  0.00    +0.000 A 
ATOM     11  C   UNL     1       4.345   5.127  17.030  0.00  0.00    +0.000 A 
ATOM     12  N   UNL     1       3.190   5.675  17.588  0.00  0.00    +0.000 N 
ATOM     13  H   UNL     1       2.663   8.920  17.766  0.00  0.00    +0.000 HD
ENDROOT
BRANCH   2  14
ATOM     14  C   UNL     1       1.112   8.983  19.854  0.00  0.00    +0.000 A 
ATOM     15  C   UNL     1       0.710   9.947  18.915  0.00  0.00    +0.000 A 
ATOM     16  C   UNL     1      -0.058  11.046  19.308  0.00  0.00    +0.000 A 
ATOM     17  C   UNL     1      -0.413  11.203  20.646  0.00  0.00    +0.000 A 
ATOM     18  C   UNL     1      -0.006  10.244  21.586  0.00  0.00    +0.000 A 
ATOM     19  C   UNL     1       0.748   9.123  21.198  0.00  0.00    +0.000 A 
BRANCH  18  20
ATOM     20  N   UNL     1      -0.338  10.442  23.003  0.00  0.00    +0.000 N 
ATOM     21  O   UNL     1       0.217   9.712  23.835  0.00  0.00    +0.000 OA
ATOM     22  O   UNL     1      -1.159  11.327  23.279  0.00  0.00    +0.000 OA
ENDBRANCH  18  20
ENDBRANCH   2  14
BRANCH  12  23
ATOM     23  C   UNL     1       1.904   5.017  17.835  0.00  0.00    +0.000 C 
BRANCH  23  24
ATOM     24  C   UNL     1       1.758   4.398  19.224  0.00  0.00    +0.000 C 
BRANCH  24  25
ATOM     25  N   UNL     1       1.618   2.934  19.361  0.00  0.00    +0.000 NA
ATOM     26  C   UNL     1       1.256   2.629  20.778  0.00  0.00    +0.000 C 
ATOM     27  C   UNL     1       2.395   2.901  21.787  0.00  0.00    +0.000 C 
ATOM     28  O   UNL     1       3.581   2.177  21.442  0.00  0.00    +0.000 OA
ATOM     29  C   UNL     1       4.004   2.457  20.102  0.00  0.00    +0.000 C 
ATOM     30  C   UNL     1       2.877   2.203  19.080  0.00  0.00    +0.000 C 
ENDBRANCH  24  25
ENDBRANCH  23  24
ENDBRANCH  12  23
TORSDOF 5
ENDMDL
MODEL 2
REMARK VINA RESULT:      -8.5      1.955      4.143
REMARK  Name = 
REMARK  5 active torsions:
REMARK  status: ('A' for Active; 'I' for Inactive)
REMARK    1  A    between atoms: C_2  and  C_21
REMARK    2  A    between atoms: N_12  and  C_13
REMARK    3  A    between atoms: C_13  and  C_14
REMARK    4  A    between atoms: C_14  and  N_15
REMARK    5  A    between atoms: C_25  and  N_26
REMARK                            x       y       z     vdW  Elec       q    Type
REMARK                         _______ _______ _______ _____ _____    ______ ____
ROOT
ATOM      1  O   UNL     1       1.687   8.172  17.570  0.00  0.00    +0.000 OA
ATOM      2  C   UNL     1       1.750   8.465  18.760  0.00  0.00    +0.000 C 
ATOM      3  N   UNL     1       2.095   7.608  19.788  0.00  0.00    +0.000 N 
ATOM      4  C   UNL     1       2.361   6.286  19.492  0.00  0.00    +0.000 A 
ATOM      5  N   UNL     1       1.736   5.300  20.093  0.00  0.00    +0.000 NA
ATOM      6  C   UNL     1       2.239   4.152  19.541  0.00  0.00    +0.000 A 
ATOM      7  C   UNL     1       1.843   2.818  19.768  0.00  0.00    +0.000 A 
ATOM      8  C   UNL     1       2.531   1.772  19.145  0.00  0.00    +0.000 A 
ATOM      9  C   UNL     1       3.604   2.044  18.314  0.00  0.00    +0.000 A 
ATOM     10  C   UNL     1       4.001   3.364  18.063  0.00  0.00    +0.000 A 
ATOM     11  C   UNL     1       3.293   4.425  18.668  0.00  0.00    +0.000 A 
ATOM     12  N   UNL     1       3.362   5.818  18.647  0.00  0.00    +0.000 N 
ATOM     13  H   UNL     1       1.560   7.721  20.641  0.00  0.00    +0.000 HD
ENDROOT
BRANCH   2  14
ATOM     14  C   UNL     1       1.401   9.855  19.160  0.00  0.00    +0.000 A 
ATOM     15  C   UNL     1       1.868  10.915  18.367  0.00  0.00    +0.000 A 
ATOM     16  C   UNL     1       1.668  12.240  18.761  0.00  0.00    +0.000 A 
ATOM     17  C   UNL     1       1.019  12.518  19.963  0.00  0.00    +0.000 A 
ATOM     18  C   UNL     1       0.559  11.459  20.759  0.00  0.00    +0.000 A 
ATOM     19  C   UNL     1       0.735  10.122  20.362  0.00  0.00    +0.000 A 
BRANCH  18  20
ATOM     20  N   UNL     1      -0.078  11.755  22.049  0.00  0.00    +0.000 N 
ATOM     21  O   UNL     1      -0.125  10.851  22.893  0.00  0.00    +0.000 OA
ATOM     22  O   UNL     1      -0.534  12.895  22.213  0.00  0.00    +0.000 OA
ENDBRANCH  18  20
ENDBRANCH   2  14
BRANCH  12  23
ATOM     23  C   UNL     1       4.418   6.665  18.086  0.00  0.00    +0.000 C 
BRANCH  23  24
ATOM     24  C   UNL     1       4.865   6.281  16.676  0.00  0.00    +0.000 C 
BRANCH  24  25
ATOM     25  N   UNL     1       6.225   6.632  16.218  0.00  0.00    +0.000 NA
ATOM     26  C   UNL     1       6.689   5.572  15.273  0.00  0.00    +0.000 C 
ATOM     27  C   UNL     1       6.961   4.209  15.948  0.00  0.00    +0.000 C 
ATOM     28  O   UNL     1       7.911   4.333  17.013  0.00  0.00    +0.000 OA
ATOM     29  C   UNL     1       7.502   5.311  17.977  0.00  0.00    +0.000 C 
ATOM     30  C   UNL     1       7.214   6.677  17.322  0.00  0.00    +0.000 C 
ENDBRANCH  24  25
ENDBRANCH  23  24
ENDBRANCH  12  23
TORSDOF 5
ENDMDL
MODEL 3
REMARK VINA RESULT:      -8.3      1.509      1.848
REMARK  Name = 
REMARK  5 active torsions:
REMARK  status: ('A' for Active; 'I' for Inactive)
REMARK    1  A    between atoms: C_2  and  C_21
REMARK    2  A    between atoms: N_12  and  C_13
REMARK    3  A    between atoms: C_13  and  C_14
REMARK    4  A    between atoms: C_14  and  N_15
REMARK    5  A    between atoms: C_25  and  N_26
REMARK                            x       y       z     vdW  Elec       q    Type
REMARK                         _______ _______ _______ _____ _____    ______ ____
ROOT
ATOM      1  O   UNL     1       2.455   6.710  20.398  0.00  0.00    +0.000 OA
ATOM      2  C   UNL     1       2.147   7.658  19.682  0.00  0.00    +0.000 C 
ATOM      3  N   UNL     1       2.559   7.856  18.378  0.00  0.00    +0.000 N 
ATOM      4  C   UNL     1       3.428   6.946  17.809  0.00  0.00    +0.000 A 
ATOM      5  N   UNL     1       4.565   7.315  17.268  0.00  0.00    +0.000 NA
ATOM      6  C   UNL     1       5.158   6.161  16.829  0.00  0.00    +0.000 A 
ATOM      7  C   UNL     1       6.435   5.991  16.255  0.00  0.00    +0.000 A 
ATOM      8  C   UNL     1       6.835   4.726  15.812  0.00  0.00    +0.000 A 
ATOM      9  C   UNL     1       5.977   3.646  15.927  0.00  0.00    +0.000 A 
ATOM     10  C   UNL     1       4.711   3.794  16.510  0.00  0.00    +0.000 A 
ATOM     11  C   UNL     1       4.313   5.062  16.984  0.00  0.00    +0.000 A 
ATOM     12  N   UNL     1       3.189   5.588  17.622  0.00  0.00    +0.000 N 
ATOM     13  H   UNL     1       2.778   8.815  18.136  0.00  0.00    +0.000 HD
ENDROOT
BRANCH   2  14
ATOM     14  C   UNL     1       1.274   8.717  20.257  0.00  0.00    +0.000 A 
ATOM     15  C   UNL     1       0.973   8.663  21.627  0.00  0.00    +0.000 A 
ATOM     16  C   UNL     1       0.067   9.564  22.192  0.00  0.00    +0.000 A 
ATOM     17  C   UNL     1      -0.563  10.514  21.389  0.00  0.00    +0.000 A 
ATOM     18  C   UNL     1      -0.266  10.564  20.019  0.00  0.00    +0.000 A 
ATOM     19  C   UNL     1       0.660   9.676  19.443  0.00  0.00    +0.000 A 
BRANCH  18  20
ATOM     20  N   UNL     1      -0.971  11.532  19.167  0.00  0.00    +0.000 N 
ATOM     21  O   UNL     1      -2.162  11.316  18.908  0.00  0.00    +0.000 OA
ATOM     22  O   UNL     1      -0.326  12.506  18.756  0.00  0.00    +0.000 OA
ENDBRANCH  18  20
ENDBRANCH   2  14
BRANCH  12  23
ATOM     23  C   UNL     1       1.886   4.951  17.833  0.00  0.00    +0.000 C 
BRANCH  23  24
ATOM     24  C   UNL     1       1.704   4.306  19.206  0.00  0.00    +0.000 C 
BRANCH  24  25
ATOM     25  N   UNL     1       1.649   2.834  19.321  0.00  0.00    +0.000 NA
ATOM     26  C   UNL     1       1.287   2.488  20.729  0.00  0.00    +0.000 C 
ATOM     27  C   UNL     1       2.396   2.812  21.756  0.00  0.00    +0.000 C 
ATOM     28  O   UNL     1       3.627   2.163  21.418  0.00  0.00    +0.000 OA
ATOM     29  C   UNL     1       4.049   2.487  20.087  0.00  0.00    +0.000 C 
ATOM     30  C   UNL     1       2.952   2.182  19.047  0.00  0.00    +0.000 C 
ENDBRANCH  24  25
ENDBRANCH  23  24
ENDBRANCH  12  23
TORSDOF 5
ENDMDL
MODEL 4
REMARK VINA RESULT:      -8.3      2.609      4.592
REMARK  Name = 
REMARK  5 active torsions:
REMARK  status: ('A' for Active; 'I' for Inactive)
REMARK    1  A    between atoms: C_2  and  C_21
REMARK    2  A    between atoms: N_12  and  C_13
REMARK    3  A    between atoms: C_13  and  C_14
REMARK    4  A    between atoms: C_14  and  N_15
REMARK    5  A    between atoms: C_25  and  N_26
REMARK                            x       y       z     vdW  Elec       q    Type
REMARK                         _______ _______ _______ _____ _____    ______ ____
ROOT
ATOM      1  O   UNL     1       1.676   8.065  17.852  0.00  0.00    +0.000 OA
ATOM      2  C   UNL     1       1.747   8.246  19.064  0.00  0.00    +0.000 C 
ATOM      3  N   UNL     1       2.103   7.297  20.005  0.00  0.00    +0.000 N 
ATOM      4  C   UNL     1       2.371   6.010  19.584  0.00  0.00    +0.000 A 
ATOM      5  N   UNL     1       1.754   4.969  20.095  0.00  0.00    +0.000 NA
ATOM      6  C   UNL     1       2.256   3.880  19.433  0.00  0.00    +0.000 A 
ATOM      7  C   UNL     1       1.866   2.529  19.538  0.00  0.00    +0.000 A 
ATOM      8  C   UNL     1       2.552   1.549  18.814  0.00  0.00    +0.000 A 
ATOM      9  C   UNL     1       3.618   1.902  18.003  0.00  0.00    +0.000 A 
ATOM     10  C   UNL     1       4.008   3.241  17.875  0.00  0.00    +0.000 A 
ATOM     11  C   UNL     1       3.302   4.239  18.581  0.00  0.00    +0.000 A 
ATOM     12  N   UNL     1       3.366   5.628  18.691  0.00  0.00    +0.000 N 
ATOM     13  H   UNL     1       1.575   7.328  20.869  0.00  0.00    +0.000 HD
ENDROOT
BRANCH   2  14
ATOM     14  C   UNL     1       1.397   9.591  19.596  0.00  0.00    +0.000 A 
ATOM     15  C   UNL     1       0.920   9.683  20.913  0.00  0.00    +0.000 A 
ATOM     16  C   UNL     1       0.469  10.903  21.422  0.00  0.00    +0.000 A 
ATOM     17  C   UNL     1       0.470  12.038  20.612  0.00  0.00    +0.000 A 
ATOM     18  C   UNL     1       0.941  11.944  19.295  0.00  0.00    +0.000 A 
ATOM     19  C   UNL     1       1.418  10.726  18.779  0.00  0.00    +0.000 A 
BRANCH  18  20
ATOM     20  N   UNL     1       0.892  13.130  18.429  0.00  0.00    +0.000 N 
ATOM     21  O   UNL     1       1.966  13.602  18.033  0.00  0.00    +0.000 OA
ATOM     22  O   UNL     1      -0.225  13.589  18.152  0.00  0.00    +0.000 OA
ENDBRANCH  18  20
ENDBRANCH   2  14
BRANCH  12  23
ATOM     23  C   UNL     1       4.415   6.527  18.203  0.00  0.00    +0.000 C 
BRANCH  23  24
ATOM     24  C   UNL     1       4.862   6.269  16.765  0.00  0.00    +0.000 C 
BRANCH  24  25
ATOM     25  N   UNL     1       6.223   6.658  16.341  0.00  0.00    +0.000 NA
ATOM     26  C   UNL     1       6.711   5.649  15.353  0.00  0.00    +0.000 C 
ATOM     27  C   UNL     1       6.992   4.259  15.967  0.00  0.00    +0.000 C 
ATOM     28  O   UNL     1       7.928   4.345  17.048  0.00  0.00    +0.000 OA
ATOM     29  C   UNL     1       7.496   5.272  18.052  0.00  0.00    +0.000 C 
ATOM     30  C   UNL     1       7.199   6.663  17.458  0.00  0.00    +0.000 C 
ENDBRANCH  24  25
ENDBRANCH  23  24
ENDBRANCH  12  23
TORSDOF 5
ENDMDL
MODEL 5
REMARK VINA RESULT:      -8.2      2.542      4.630
REMARK  Name = 
REMARK  5 active torsions:
REMARK  status: ('A' for Active; 'I' for Inactive)
REMARK    1  A    between atoms: C_2  and  C_21
REMARK    2  A    between atoms: N_12  and  C_13
REMARK    3  A    between atoms: C_13  and  C_14
REMARK    4  A    between atoms: C_14  and  N_15
REMARK    5  A    between atoms: C_25  and  N_26
REMARK                            x       y       z     vdW  Elec       q    Type
REMARK                         _______ _______ _______ _____ _____    ______ ____
ROOT
ATOM      1  O   UNL     1       1.544   8.154  17.443  0.00  0.00    +0.000 OA
ATOM      2  C   UNL     1       1.603   8.797  18.486  0.00  0.00    +0.000 C 
ATOM      3  N   UNL     1       1.951   8.298  19.727  0.00  0.00    +0.000 N 
ATOM      4  C   UNL     1       2.226   6.951  19.850  0.00  0.00    +0.000 A 
ATOM      5  N   UNL     1       1.606   6.191  20.723  0.00  0.00    +0.000 NA
ATOM      6  C   UNL     1       2.118   4.932  20.548  0.00  0.00    +0.000 A 
ATOM      7  C   UNL     1       1.730   3.729  21.173  0.00  0.00    +0.000 A 
ATOM      8  C   UNL     1       2.426   2.548  20.899  0.00  0.00    +0.000 A 
ATOM      9  C   UNL     1       3.499   2.560  20.024  0.00  0.00    +0.000 A 
ATOM     10  C   UNL     1       3.888   3.743  19.383  0.00  0.00    +0.000 A 
ATOM     11  C   UNL     1       3.172   4.933  19.633  0.00  0.00    +0.000 A 
ATOM     12  N   UNL     1       3.232   6.254  19.188  0.00  0.00    +0.000 N 
ATOM     13  H   UNL     1       1.414   8.663  20.505  0.00  0.00    +0.000 HD
ENDROOT
BRANCH   2  14
ATOM     14  C   UNL     1       1.244  10.241  18.443  0.00  0.00    +0.000 A 
ATOM     15  C   UNL     1       2.268  11.176  18.222  0.00  0.00    +0.000 A 
ATOM     16  C   UNL     1       2.005  12.546  18.288  0.00  0.00    +0.000 A 
ATOM     17  C   UNL     1       0.722  12.995  18.596  0.00  0.00    +0.000 A 
ATOM     18  C   UNL     1      -0.299  12.060  18.823  0.00  0.00    +0.000 A 
ATOM     19  C   UNL     1      -0.052  10.679  18.738  0.00  0.00    +0.000 A 
BRANCH  18  20
ATOM     20  N   UNL     1      -1.637  12.537  19.198  0.00  0.00    +0.000 N 
ATOM     21  O   UNL     1      -2.616  11.980  18.684  0.00  0.00    +0.000 OA
ATOM     22  O   UNL     1      -1.704  13.474  20.006  0.00  0.00    +0.000 OA
ENDBRANCH  18  20
ENDBRANCH   2  14
BRANCH  12  23
ATOM     23  C   UNL     1       4.284   6.895  18.395  0.00  0.00    +0.000 C 
BRANCH  23  24
ATOM     24  C   UNL     1       4.547   6.247  17.037  0.00  0.00    +0.000 C 
BRANCH  24  25
ATOM     25  N   UNL     1       5.762   6.606  16.277  0.00  0.00    +0.000 NA
ATOM     26  C   UNL     1       6.066   5.494  15.327  0.00  0.00    +0.000 C 
ATOM     27  C   UNL     1       6.537   4.194  16.017  0.00  0.00    +0.000 C 
ATOM     28  O   UNL     1       7.683   4.428  16.845  0.00  0.00    +0.000 OA
ATOM     29  C   UNL     1       7.441   5.462  17.807  0.00  0.00    +0.000 C 
ATOM     30  C   UNL     1       6.958   6.765  17.140  0.00  0.00    +0.000 C 
ENDBRANCH  24  25
ENDBRANCH  23  24
ENDBRANCH  12  23
TORSDOF 5
ENDMDL
MODEL 6
REMARK VINA RESULT:      -8.1      0.628      1.270
REMARK  Name = 
REMARK  5 active torsions:
REMARK  status: ('A' for Active; 'I' for Inactive)
REMARK    1  A    between atoms: C_2  and  C_21
REMARK    2  A    between atoms: N_12  and  C_13
REMARK    3  A    between atoms: C_13  and  C_14
REMARK    4  A    between atoms: C_14  and  N_15
REMARK    5  A    between atoms: C_25  and  N_26
REMARK                            x       y       z     vdW  Elec       q    Type
REMARK                         _______ _______ _______ _____ _____    ______ ____
ROOT
ATOM      1  O   UNL     1       2.425   7.234  20.152  0.00  0.00    +0.000 OA
ATOM      2  C   UNL     1       2.004   8.028  19.316  0.00  0.00    +0.000 C 
ATOM      3  N   UNL     1       2.361   8.062  17.981  0.00  0.00    +0.000 N 
ATOM      4  C   UNL     1       3.302   7.163  17.519  0.00  0.00    +0.000 A 
ATOM      5  N   UNL     1       4.382   7.553  16.883  0.00  0.00    +0.000 NA
ATOM      6  C   UNL     1       5.077   6.407  16.598  0.00  0.00    +0.000 A 
ATOM      7  C   UNL     1       6.349   6.274  16.005  0.00  0.00    +0.000 A 
ATOM      8  C   UNL     1       6.862   5.000  15.740  0.00  0.00    +0.000 A 
ATOM      9  C   UNL     1       6.121   3.873  16.051  0.00  0.00    +0.000 A 
ATOM     10  C   UNL     1       4.862   3.988  16.655  0.00  0.00    +0.000 A 
ATOM     11  C   UNL     1       4.350   5.269  16.950  0.00  0.00    +0.000 A 
ATOM     12  N   UNL     1       3.196   5.776  17.548  0.00  0.00    +0.000 N 
ATOM     13  H   UNL     1       2.476   8.989  17.589  0.00  0.00    +0.000 HD
ENDROOT
BRANCH   2  14
ATOM     14  C   UNL     1       1.045   9.074  19.760  0.00  0.00    +0.000 A 
ATOM     15  C   UNL     1       0.618  10.029  18.824  0.00  0.00    +0.000 A 
ATOM     16  C   UNL     1      -0.189  11.099  19.216  0.00  0.00    +0.000 A 
ATOM     17  C   UNL     1      -0.561  11.237  20.552  0.00  0.00    +0.000 A 
ATOM     18  C   UNL     1      -0.130  10.287  21.489  0.00  0.00    +0.000 A 
ATOM     19  C   UNL     1       0.665   9.194  21.102  0.00  0.00    +0.000 A 
BRANCH  18  20
ATOM     20  N   UNL     1      -0.480  10.464  22.905  0.00  0.00    +0.000 N 
ATOM     21  O   UNL     1      -1.413  11.232  23.178  0.00  0.00    +0.000 OA
ATOM     22  O   UNL     1       0.184   9.837  23.741  0.00  0.00    +0.000 OA
ENDBRANCH  18  20
ENDBRANCH   2  14
BRANCH  12  23
ATOM     23  C   UNL     1       1.970   5.058  17.905  0.00  0.00    +0.000 C 
BRANCH  23  24
ATOM     24  C   UNL     1       2.126   4.053  19.045  0.00  0.00    +0.000 C 
BRANCH  24  25
ATOM     25  N   UNL     1       2.878   4.434  20.259  0.00  0.00    +0.000 NA
ATOM     26  C   UNL     1       4.194   3.726  20.236  0.00  0.00    +0.000 C 
ATOM     27  C   UNL     1       4.084   2.198  20.438  0.00  0.00    +0.000 C 
ATOM     28  O   UNL     1       3.404   1.880  21.658  0.00  0.00    +0.000 OA
ATOM     29  C   UNL     1       2.114   2.500  21.723  0.00  0.00    +0.000 C 
ATOM     30  C   UNL     1       2.200   4.025  21.512  0.00  0.00    +0.000 C 
ENDBRANCH  24  25
ENDBRANCH  23  24
ENDBRANCH  12  23
TORSDOF 5
ENDMDL
MODEL 7
REMARK VINA RESULT:      -8.1      0.813      1.182
REMARK  Name = 
REMARK  5 active torsions:
REMARK  status: ('A' for Active; 'I' for Inactive)
REMARK    1  A    between atoms: C_2  and  C_21
REMARK    2  A    between atoms: N_12  and  C_13
REMARK    3  A    between atoms: C_13  and  C_14
REMARK    4  A    between atoms: C_14  and  N_15
REMARK    5  A    between atoms: C_25  and  N_26
REMARK                            x       y       z     vdW  Elec       q    Type
REMARK                         _______ _______ _______ _____ _____    ______ ____
ROOT
ATOM      1  O   UNL     1       2.306   7.421  20.325  0.00  0.00    +0.000 OA
ATOM      2  C   UNL     1       1.852   8.159  19.456  0.00  0.00    +0.000 C 
ATOM      3  N   UNL     1       2.211   8.154  18.121  0.00  0.00    +0.000 N 
ATOM      4  C   UNL     1       3.194   7.281  17.699  0.00  0.00    +0.000 A 
ATOM      5  N   UNL     1       4.257   7.693  17.048  0.00  0.00    +0.000 NA
ATOM      6  C   UNL     1       5.005   6.570  16.812  0.00  0.00    +0.000 A 
ATOM      7  C   UNL     1       6.284   6.470  16.227  0.00  0.00    +0.000 A 
ATOM      8  C   UNL     1       6.856   5.212  16.016  0.00  0.00    +0.000 A 
ATOM      9  C   UNL     1       6.165   4.066  16.373  0.00  0.00    +0.000 A 
ATOM     10  C   UNL     1       4.901   4.147  16.971  0.00  0.00    +0.000 A 
ATOM     11  C   UNL     1       4.330   5.415  17.211  0.00  0.00    +0.000 A 
ATOM     12  N   UNL     1       3.152   5.893  17.785  0.00  0.00    +0.000 N 
ATOM     13  H   UNL     1       2.285   9.068  17.692  0.00  0.00    +0.000 HD
ENDROOT
BRANCH   2  14
ATOM     14  C   UNL     1       0.844   9.178  19.855  0.00  0.00    +0.000 A 
ATOM     15  C   UNL     1       0.377  10.071  18.878  0.00  0.00    +0.000 A 
ATOM     16  C   UNL     1      -0.481  11.118  19.224  0.00  0.00    +0.000 A 
ATOM     17  C   UNL     1      -0.862  11.295  20.553  0.00  0.00    +0.000 A 
ATOM     18  C   UNL     1      -0.389  10.407  21.530  0.00  0.00    +0.000 A 
ATOM     19  C   UNL     1       0.456   9.336  21.190  0.00  0.00    +0.000 A 
BRANCH  18  20
ATOM     20  N   UNL     1      -0.752  10.628  22.937  0.00  0.00    +0.000 N 
ATOM     21  O   UNL     1      -1.701  11.386  23.178  0.00  0.00    +0.000 OA
ATOM     22  O   UNL     1      -0.080  10.044  23.798  0.00  0.00    +0.000 OA
ENDBRANCH  18  20
ENDBRANCH   2  14
BRANCH  12  23
ATOM     23  C   UNL     1       1.959   5.134  18.170  0.00  0.00    +0.000 C 
BRANCH  23  24
ATOM     24  C   UNL     1       1.992   4.565  19.588  0.00  0.00    +0.000 C 
BRANCH  24  25
ATOM     25  N   UNL     1       1.449   3.217  19.848  0.00  0.00    +0.000 NA
ATOM     26  C   UNL     1       2.460   2.450  20.638  0.00  0.00    +0.000 C 
ATOM     27  C   UNL     1       3.735   2.093  19.842  0.00  0.00    +0.000 C 
ATOM     28  O   UNL     1       3.421   1.362  18.652  0.00  0.00    +0.000 OA
ATOM     29  C   UNL     1       2.482   2.065  17.829  0.00  0.00    +0.000 C 
ATOM     30  C   UNL     1       1.205   2.441  18.608  0.00  0.00    +0.000 C 
ENDBRANCH  24  25
ENDBRANCH  23  24
ENDBRANCH  12  23
TORSDOF 5
ENDMDL
MODEL 8
REMARK VINA RESULT:      -8.1      2.899      4.883
REMARK  Name = 
REMARK  5 active torsions:
REMARK  status: ('A' for Active; 'I' for Inactive)
REMARK    1  A    between atoms: C_2  and  C_21
REMARK    2  A    between atoms: N_12  and  C_13
REMARK    3  A    between atoms: C_13  and  C_14
REMARK    4  A    between atoms: C_14  and  N_15
REMARK    5  A    between atoms: C_25  and  N_26
REMARK                            x       y       z     vdW  Elec       q    Type
REMARK                         _______ _______ _______ _____ _____    ______ ____
ROOT
ATOM      1  O   UNL     1       1.213   8.422  17.510  0.00  0.00    +0.000 OA
ATOM      2  C   UNL     1       1.362   9.033  18.563  0.00  0.00    +0.000 C 
ATOM      3  N   UNL     1       1.862   8.507  19.741  0.00  0.00    +0.000 N 
ATOM      4  C   UNL     1       2.197   7.169  19.783  0.00  0.00    +0.000 A 
ATOM      5  N   UNL     1       1.704   6.357  20.690  0.00  0.00    +0.000 NA
ATOM      6  C   UNL     1       2.239   5.126  20.415  0.00  0.00    +0.000 A 
ATOM      7  C   UNL     1       1.965   3.889  21.033  0.00  0.00    +0.000 A 
ATOM      8  C   UNL     1       2.669   2.746  20.643  0.00  0.00    +0.000 A 
ATOM      9  C   UNL     1       3.638   2.829  19.658  0.00  0.00    +0.000 A 
ATOM     10  C   UNL     1       3.911   4.047  19.022  0.00  0.00    +0.000 A 
ATOM     11  C   UNL     1       3.185   5.199  19.392  0.00  0.00    +0.000 A 
ATOM     12  N   UNL     1       3.149   6.534  18.991  0.00  0.00    +0.000 N 
ATOM     13  H   UNL     1       1.400   8.825  20.584  0.00  0.00    +0.000 HD
ENDROOT
BRANCH   2  14
ATOM     14  C   UNL     1       0.949  10.461  18.612  0.00  0.00    +0.000 A 
ATOM     15  C   UNL     1      -0.422  10.761  18.571  0.00  0.00    +0.000 A 
ATOM     16  C   UNL     1      -0.858  12.086  18.497  0.00  0.00    +0.000 A 
ATOM     17  C   UNL     1       0.072  13.123  18.442  0.00  0.00    +0.000 A 
ATOM     18  C   UNL     1       1.442  12.823  18.476  0.00  0.00    +0.000 A 
ATOM     19  C   UNL     1       1.892  11.495  18.573  0.00  0.00    +0.000 A 
BRANCH  18  20
ATOM     20  N   UNL     1       2.419  13.915  18.366  0.00  0.00    +0.000 N 
ATOM     21  O   UNL     1       2.001  15.077  18.461  0.00  0.00    +0.000 OA
ATOM     22  O   UNL     1       3.603  13.605  18.179  0.00  0.00    +0.000 OA
ENDBRANCH  18  20
ENDBRANCH   2  14
BRANCH  12  23
ATOM     23  C   UNL     1       4.084   7.243  18.113  0.00  0.00    +0.000 C 
BRANCH  23  24
ATOM     24  C   UNL     1       4.615   6.415  16.944  0.00  0.00    +0.000 C 
BRANCH  24  25
ATOM     25  N   UNL     1       5.920   6.756  16.340  0.00  0.00    +0.000 NA
ATOM     26  C   UNL     1       6.358   5.605  15.494  0.00  0.00    +0.000 C 
ATOM     27  C   UNL     1       6.740   4.345  16.302  0.00  0.00    +0.000 C 
ATOM     28  O   UNL     1       7.761   4.632  17.265  0.00  0.00    +0.000 OA
ATOM     29  C   UNL     1       7.383   5.706  18.136  0.00  0.00    +0.000 C 
ATOM     30  C   UNL     1       6.986   6.970  17.348  0.00  0.00    +0.000 C 
ENDBRANCH  24  25
ENDBRANCH  23  24
ENDBRANCH  12  23
TORSDOF 5
ENDMDL
MODEL 9
REMARK VINA RESULT:      -8.0      1.977      2.245
REMARK  Name = 
REMARK  5 active torsions:
REMARK  status: ('A' for Active; 'I' for Inactive)
REMARK    1  A    between atoms: C_2  and  C_21
REMARK    2  A    between atoms: N_12  and  C_13
REMARK    3  A    between atoms: C_13  and  C_14
REMARK    4  A    between atoms: C_14  and  N_15
REMARK    5  A    between atoms: C_25  and  N_26
REMARK                            x       y       z     vdW  Elec       q    Type
REMARK                         _______ _______ _______ _____ _____    ______ ____
ROOT
ATOM      1  O   UNL     1       2.143   7.705  20.122  0.00  0.00    +0.000 OA
ATOM      2  C   UNL     1       1.828   8.425  19.180  0.00  0.00    +0.000 C 
ATOM      3  N   UNL     1       2.333   8.344  17.895  0.00  0.00    +0.000 N 
ATOM      4  C   UNL     1       3.309   7.407  17.621  0.00  0.00    +0.000 A 
ATOM      5  N   UNL     1       4.458   7.738  17.080  0.00  0.00    +0.000 NA
ATOM      6  C   UNL     1       5.167   6.570  16.973  0.00  0.00    +0.000 A 
ATOM      7  C   UNL     1       6.496   6.383  16.541  0.00  0.00    +0.000 A 
ATOM      8  C   UNL     1       7.021   5.091  16.445  0.00  0.00    +0.000 A 
ATOM      9  C   UNL     1       6.236   3.996  16.764  0.00  0.00    +0.000 A 
ATOM     10  C   UNL     1       4.919   4.165  17.211  0.00  0.00    +0.000 A 
ATOM     11  C   UNL     1       4.392   5.468  17.337  0.00  0.00    +0.000 A 
ATOM     12  N   UNL     1       3.185   6.027  17.755  0.00  0.00    +0.000 N 
ATOM     13  H   UNL     1       2.502   9.233  17.442  0.00  0.00    +0.000 HD
ENDROOT
BRANCH   2  14
ATOM     14  C   UNL     1       0.837   9.508  19.422  0.00  0.00    +0.000 A 
ATOM     15  C   UNL     1       0.830  10.136  20.677  0.00  0.00    +0.000 A 
ATOM     16  C   UNL     1      -0.152  11.076  20.997  0.00  0.00    +0.000 A 
ATOM     17  C   UNL     1      -1.150  11.381  20.072  0.00  0.00    +0.000 A 
ATOM     18  C   UNL     1      -1.147  10.748  18.820  0.00  0.00    +0.000 A 
ATOM     19  C   UNL     1      -0.150   9.817  18.480  0.00  0.00    +0.000 A 
BRANCH  18  20
ATOM     20  N   UNL     1      -2.229  11.034  17.869  0.00  0.00    +0.000 N 
ATOM     21  O   UNL     1      -2.022  10.804  16.670  0.00  0.00    +0.000 OA
ATOM     22  O   UNL     1      -3.285  11.493  18.326  0.00  0.00    +0.000 OA
ENDBRANCH  18  20
ENDBRANCH   2  14
BRANCH  12  23
ATOM     23  C   UNL     1       1.918   5.344  18.031  0.00  0.00    +0.000 C 
BRANCH  23  24
ATOM     24  C   UNL     1       1.848   4.650  19.390  0.00  0.00    +0.000 C 
BRANCH  24  25
ATOM     25  N   UNL     1       1.561   3.203  19.459  0.00  0.00    +0.000 NA
ATOM     26  C   UNL     1       1.101   2.882  20.844  0.00  0.00    +0.000 C 
ATOM     27  C   UNL     1       2.208   3.003  21.914  0.00  0.00    +0.000 C 
ATOM     28  O   UNL     1       3.335   2.179  21.595  0.00  0.00    +0.000 OA
ATOM     29  C   UNL     1       3.850   2.466  20.288  0.00  0.00    +0.000 C 
ATOM     30  C   UNL     1       2.757   2.363  19.206  0.00  0.00    +0.000 C 
ENDBRANCH  24  25
ENDBRANCH  23  24
ENDBRANCH  12  23
TORSDOF 5
ENDMDL
