MODEL 1
REMARK VINA RESULT:      -8.1      0.000      0.000
REMARK  Name = 
REMARK  5 active torsions:
REMARK  status: ('A' for Active; 'I' for Inactive)
REMARK    1  A    between atoms: C_1  and  O_2
REMARK    2  A    between atoms: O_2  and  C_3
REMARK    3  A    between atoms: C_3  and  C_5
REMARK    4  A    between atoms: C_5  and  C_6
REMARK    5  A    between atoms: C_6  and  C_7
REMARK                            x       y       z     vdW  Elec       q    Type
REMARK                         _______ _______ _______ _____ _____    ______ ____
ROOT
ATOM      1  C   UNL     1       4.959   5.030  17.863  0.00  0.00    +0.000 C 
ATOM      2  C   UNL     1       4.278   5.233  19.266  0.00  0.00    +0.000 C 
ATOM      3  C   UNL     1       3.414   6.458  19.113  0.00  0.00    +0.000 A 
ATOM      4  C   UNL     1       2.560   7.011  20.059  0.00  0.00    +0.000 A 
ATOM      5  C   UNL     1       1.859   8.156  19.687  0.00  0.00    +0.000 A 
ATOM      6  C   UNL     1       2.009   8.733  18.411  0.00  0.00    +0.000 A 
ATOM      7  C   UNL     1       2.876   8.193  17.473  0.00  0.00    +0.000 A 
ATOM      8  C   UNL     1       3.563   7.050  17.862  0.00  0.00    +0.000 A 
ATOM      9  C   UNL     1       4.506   6.260  17.078  0.00  0.00    +0.000 C 
ATOM     10  O   UNL     1       4.853   6.575  15.958  0.00  0.00    +0.000 OA
ATOM     11  C   UNL     1       1.170   9.965  18.280  0.00  0.00    +0.000 C 
ATOM     12  C   UNL     1       0.204   9.809  19.464  0.00  0.00    +0.000 C 
ATOM     13  C   UNL     1       0.932   8.976  20.530  0.00  0.00    +0.000 C 
ENDROOT
BRANCH   1  14
ATOM     14  C   UNL     1       6.472   5.043  17.966  0.00  0.00    +0.000 C 
ATOM     15  O   UNL     1       7.222   4.378  17.277  0.00  0.00    +0.000 OA
BRANCH  14  17
ATOM     16  C   UNL     1       7.938   6.780  18.594  0.00  0.00    +0.000 C 
ATOM     17  O   UNL     1       6.902   5.876  18.962  0.00  0.00    +0.000 OA
ENDBRANCH  14  17
ENDBRANCH   1  14
BRANCH   1  18
ATOM     18  C   UNL     1       4.463   3.747  17.136  0.00  0.00    +0.000 C 
BRANCH  18  19
ATOM     19  C   UNL     1       3.179   3.143  17.689  0.00  0.00    +0.000 A 
ATOM     20  C   UNL     1       1.949   3.766  17.476  0.00  0.00    +0.000 A 
ATOM     21  C   UNL     1       0.804   3.311  18.129  0.00  0.00    +0.000 A 
ATOM     22  C   UNL     1       0.856   2.197  18.960  0.00  0.00    +0.000 A 
ATOM     23  C   UNL     1       2.050   1.508  19.106  0.00  0.00    +0.000 A 
ATOM     24  C   UNL     1       3.202   1.976  18.470  0.00  0.00    +0.000 A 
ENDBRANCH  18  19
ENDBRANCH   1  18
TORSDOF 4
ENDMDL
MODEL 2
REMARK VINA RESULT:      -8.1      2.729      5.016
REMARK  Name = 
REMARK  5 active torsions:
REMARK  status: ('A' for Active; 'I' for Inactive)
REMARK    1  A    between atoms: C_1  and  O_2
REMARK    2  A    between atoms: O_2  and  C_3
REMARK    3  A    between atoms: C_3  and  C_5
REMARK    4  A    between atoms: C_5  and  C_6
REMARK    5  A    between atoms: C_6  and  C_7
REMARK                            x       y       z     vdW  Elec       q    Type
REMARK                         _______ _______ _______ _____ _____    ______ ____
ROOT
ATOM      1  C   UNL     1       5.773   5.595  16.510  0.00  0.00    +0.000 C 
ATOM      2  C   UNL     1       5.554   4.056  16.751  0.00  0.00    +0.000 C 
ATOM      3  C   UNL     1       4.335   3.964  17.632  0.00  0.00    +0.000 A 
ATOM      4  C   UNL     1       3.700   2.810  18.074  0.00  0.00    +0.000 A 
ATOM      5  C   UNL     1       2.582   2.975  18.889  0.00  0.00    +0.000 A 
ATOM      6  C   UNL     1       2.115   4.253  19.254  0.00  0.00    +0.000 A 
ATOM      7  C   UNL     1       2.761   5.405  18.831  0.00  0.00    +0.000 A 
ATOM      8  C   UNL     1       3.871   5.219  18.016  0.00  0.00    +0.000 A 
ATOM      9  C   UNL     1       4.715   6.239  17.404  0.00  0.00    +0.000 C 
ATOM     10  O   UNL     1       4.560   7.426  17.606  0.00  0.00    +0.000 OA
ATOM     11  C   UNL     1       0.924   4.149  20.155  0.00  0.00    +0.000 C 
ATOM     12  C   UNL     1       0.499   2.689  19.937  0.00  0.00    +0.000 C 
ATOM     13  C   UNL     1       1.761   1.908  19.545  0.00  0.00    +0.000 C 
ENDROOT
BRANCH   1  14
ATOM     14  C   UNL     1       7.146   6.045  16.971  0.00  0.00    +0.000 C 
ATOM     15  O   UNL     1       7.737   7.020  16.548  0.00  0.00    +0.000 OA
BRANCH  14  17
ATOM     16  C   UNL     1       7.804   5.742  19.215  0.00  0.00    +0.000 C 
ATOM     17  O   UNL     1       7.666   5.195  17.909  0.00  0.00    +0.000 OA
ENDBRANCH  14  17
ENDBRANCH   1  14
BRANCH   1  18
ATOM     18  C   UNL     1       5.520   6.013  15.033  0.00  0.00    +0.000 C 
BRANCH  18  19
ATOM     19  C   UNL     1       5.977   5.005  13.987  0.00  0.00    +0.000 A 
ATOM     20  C   UNL     1       7.255   5.083  13.432  0.00  0.00    +0.000 A 
ATOM     21  C   UNL     1       7.608   4.275  12.352  0.00  0.00    +0.000 A 
ATOM     22  C   UNL     1       6.714   3.339  11.844  0.00  0.00    +0.000 A 
ATOM     23  C   UNL     1       5.474   3.180  12.446  0.00  0.00    +0.000 A 
ATOM     24  C   UNL     1       5.113   4.005  13.513  0.00  0.00    +0.000 A 
ENDBRANCH  18  19
ENDBRANCH   1  18
TORSDOF 4
ENDMDL
MODEL 3
REMARK VINA RESULT:      -8.0      2.100      4.520
REMARK  Name = 
REMARK  5 active torsions:
REMARK  status: ('A' for Active; 'I' for Inactive)
REMARK    1  A    between atoms: C_1  and  O_2
REMARK    2  A    between atoms: O_2  and  C_3
REMARK    3  A    between atoms: C_3  and  C_5
REMARK    4  A    between atoms: C_5  and  C_6
REMARK    5  A    between atoms: C_6  and  C_7
REMARK                            x       y       z     vdW  Elec       q    Type
REMARK                         _______ _______ _______ _____ _____    ______ ____
ROOT
ATOM      1  C   UNL     1       3.472   4.088  18.795  0.00  0.00    +0.000 C 
ATOM      2  C   UNL     1       3.300   5.208  17.705  0.00  0.00    +0.000 C 
ATOM      3  C   UNL     1       2.659   6.366  18.425  0.00  0.00    +0.000 A 
ATOM      4  C   UNL     1       2.359   7.620  17.907  0.00  0.00    +0.000 A 
ATOM      5  C   UNL     1       1.760   8.534  18.770  0.00  0.00    +0.000 A 
ATOM      6  C   UNL     1       1.466   8.206  20.109  0.00  0.00    +0.000 A 
ATOM      7  C   UNL     1       1.746   6.948  20.620  0.00  0.00    +0.000 A 
ATOM      8  C   UNL     1       2.347   6.051  19.745  0.00  0.00    +0.000 A 
ATOM      9  C   UNL     1       2.777   4.685  20.016  0.00  0.00    +0.000 C 
ATOM     10  O   UNL     1       2.588   4.138  21.084  0.00  0.00    +0.000 OA
ATOM     11  C   UNL     1       0.802   9.352  20.806  0.00  0.00    +0.000 C 
ATOM     12  C   UNL     1       1.117  10.517  19.856  0.00  0.00    +0.000 C 
ATOM     13  C   UNL     1       1.283   9.918  18.451  0.00  0.00    +0.000 C 
ENDROOT
BRANCH   1  14
ATOM     14  C   UNL     1       2.760   2.808  18.401  0.00  0.00    +0.000 C 
ATOM     15  O   UNL     1       3.267   1.702  18.398  0.00  0.00    +0.000 OA
BRANCH  14  17
ATOM     16  C   UNL     1       0.471   2.380  18.770  0.00  0.00    +0.000 C 
ATOM     17  O   UNL     1       1.471   3.048  18.010  0.00  0.00    +0.000 OA
ENDBRANCH  14  17
ENDBRANCH   1  14
BRANCH   1  18
ATOM     18  C   UNL     1       4.964   3.809  19.138  0.00  0.00    +0.000 C 
BRANCH  18  19
ATOM     19  C   UNL     1       5.973   4.678  18.399  0.00  0.00    +0.000 A 
ATOM     20  C   UNL     1       6.708   5.651  19.079  0.00  0.00    +0.000 A 
ATOM     21  C   UNL     1       7.496   6.561  18.375  0.00  0.00    +0.000 A 
ATOM     22  C   UNL     1       7.608   6.482  16.991  0.00  0.00    +0.000 A 
ATOM     23  C   UNL     1       6.962   5.461  16.310  0.00  0.00    +0.000 A 
ATOM     24  C   UNL     1       6.155   4.563  17.012  0.00  0.00    +0.000 A 
ENDBRANCH  18  19
ENDBRANCH   1  18
TORSDOF 4
ENDMDL
MODEL 4
REMARK VINA RESULT:      -8.0      2.142      4.365
REMARK  Name = 
REMARK  5 active torsions:
REMARK  status: ('A' for Active; 'I' for Inactive)
REMARK    1  A    between atoms: C_1  and  O_2
REMARK    2  A    between atoms: O_2  and  C_3
REMARK    3  A    between atoms: C_3  and  C_5
REMARK    4  A    between atoms: C_5  and  C_6
REMARK    5  A    between atoms: C_6  and  C_7
REMARK                            x       y       z     vdW  Elec       q    Type
REMARK                         _______ _______ _______ _____ _____    ______ ____
ROOT
ATOM      1  C   UNL     1       2.938   5.251  18.781  0.00  0.00    +0.000 C 
ATOM      2  C   UNL     1       2.838   6.457  17.777  0.00  0.00    +0.000 C 
ATOM      3  C   UNL     1       2.237   7.586  18.573  0.00  0.00    +0.000 A 
ATOM      4  C   UNL     1       2.004   8.888  18.148  0.00  0.00    +0.000 A 
ATOM      5  C   UNL     1       1.431   9.762  19.069  0.00  0.00    +0.000 A 
ATOM      6  C   UNL     1       1.099   9.349  20.374  0.00  0.00    +0.000 A 
ATOM      7  C   UNL     1       1.311   8.045  20.793  0.00  0.00    +0.000 A 
ATOM      8  C   UNL     1       1.886   7.189  19.861  0.00  0.00    +0.000 A 
ATOM      9  C   UNL     1       2.249   5.787  20.034  0.00  0.00    +0.000 C 
ATOM     10  O   UNL     1       2.016   5.171  21.055  0.00  0.00    +0.000 OA
ATOM     11  C   UNL     1       0.474  10.469  21.145  0.00  0.00    +0.000 C 
ATOM     12  C   UNL     1       0.859  11.686  20.292  0.00  0.00    +0.000 C 
ATOM     13  C   UNL     1       1.024  11.187  18.848  0.00  0.00    +0.000 C 
ENDROOT
BRANCH   1  14
ATOM     14  C   UNL     1       2.176   4.039  18.281  0.00  0.00    +0.000 C 
ATOM     15  O   UNL     1       1.261   4.074  17.481  0.00  0.00    +0.000 OA
BRANCH  14  17
ATOM     16  C   UNL     1       1.603   2.009  19.334  0.00  0.00    +0.000 C 
ATOM     17  O   UNL     1       2.621   2.887  18.868  0.00  0.00    +0.000 OA
ENDBRANCH  14  17
ENDBRANCH   1  14
BRANCH   1  18
ATOM     18  C   UNL     1       4.409   4.878  19.125  0.00  0.00    +0.000 C 
BRANCH  18  19
ATOM     19  C   UNL     1       5.381   4.924  17.953  0.00  0.00    +0.000 A 
ATOM     20  C   UNL     1       6.383   5.894  17.895  0.00  0.00    +0.000 A 
ATOM     21  C   UNL     1       7.154   6.046  16.743  0.00  0.00    +0.000 A 
ATOM     22  C   UNL     1       6.978   5.199  15.654  0.00  0.00    +0.000 A 
ATOM     23  C   UNL     1       6.053   4.167  15.732  0.00  0.00    +0.000 A 
ATOM     24  C   UNL     1       5.265   4.030  16.877  0.00  0.00    +0.000 A 
ENDBRANCH  18  19
ENDBRANCH   1  18
TORSDOF 4
ENDMDL
MODEL 5
REMARK VINA RESULT:      -7.9      2.183      4.356
REMARK  Name = 
REMARK  5 active torsions:
REMARK  status: ('A' for Active; 'I' for Inactive)
REMARK    1  A    between atoms: C_1  and  O_2
REMARK    2  A    between atoms: O_2  and  C_3
REMARK    3  A    between atoms: C_3  and  C_5
REMARK    4  A    between atoms: C_5  and  C_6
REMARK    5  A    between atoms: C_6  and  C_7
REMARK                            x       y       z     vdW  Elec       q    Type
REMARK                         _______ _______ _______ _____ _____    ______ ____
ROOT
ATOM      1  C   UNL     1       2.938   5.014  18.895  0.00  0.00    +0.000 C 
ATOM      2  C   UNL     1       2.726   6.173  17.854  0.00  0.00    +0.000 C 
ATOM      3  C   UNL     1       2.152   7.318  18.648  0.00  0.00    +0.000 A 
ATOM      4  C   UNL     1       1.848   8.593  18.189  0.00  0.00    +0.000 A 
ATOM      5  C   UNL     1       1.320   9.490  19.116  0.00  0.00    +0.000 A 
ATOM      6  C   UNL     1       1.100   9.123  20.458  0.00  0.00    +0.000 A 
ATOM      7  C   UNL     1       1.383   7.844  20.911  0.00  0.00    +0.000 A 
ATOM      8  C   UNL     1       1.912   6.966  19.973  0.00  0.00    +0.000 A 
ATOM      9  C   UNL     1       2.329   5.583  20.175  0.00  0.00    +0.000 C 
ATOM     10  O   UNL     1       2.192   5.004  21.233  0.00  0.00    +0.000 OA
ATOM     11  C   UNL     1       0.501  10.257  21.230  0.00  0.00    +0.000 C 
ATOM     12  C   UNL     1       0.784  11.447  20.301  0.00  0.00    +0.000 C 
ATOM     13  C   UNL     1       0.855  10.892  18.870  0.00  0.00    +0.000 C 
ENDROOT
BRANCH   1  14
ATOM     14  C   UNL     1       2.178   3.761  18.503  0.00  0.00    +0.000 C 
ATOM     15  O   UNL     1       1.229   3.732  17.743  0.00  0.00    +0.000 OA
BRANCH  14  17
ATOM     16  C   UNL     1       3.097   1.601  18.284  0.00  0.00    +0.000 C 
ATOM     17  O   UNL     1       2.669   2.654  19.140  0.00  0.00    +0.000 OA
ENDBRANCH  14  17
ENDBRANCH   1  14
BRANCH   1  18
ATOM     18  C   UNL     1       4.441   4.696  19.140  0.00  0.00    +0.000 C 
BRANCH  18  19
ATOM     19  C   UNL     1       5.360   4.948  17.951  0.00  0.00    +0.000 A 
ATOM     20  C   UNL     1       5.340   4.101  16.842  0.00  0.00    +0.000 A 
ATOM     21  C   UNL     1       6.299   4.228  15.839  0.00  0.00    +0.000 A 
ATOM     22  C   UNL     1       7.258   5.233  15.896  0.00  0.00    +0.000 A 
ATOM     23  C   UNL     1       7.232   6.144  16.942  0.00  0.00    +0.000 A 
ATOM     24  C   UNL     1       6.285   6.004  17.958  0.00  0.00    +0.000 A 
ENDBRANCH  18  19
ENDBRANCH   1  18
TORSDOF 4
ENDMDL
MODEL 6
REMARK VINA RESULT:      -7.9      0.631      1.017
REMARK  Name = 
REMARK  5 active torsions:
REMARK  status: ('A' for Active; 'I' for Inactive)
REMARK    1  A    between atoms: C_1  and  O_2
REMARK    2  A    between atoms: O_2  and  C_3
REMARK    3  A    between atoms: C_3  and  C_5
REMARK    4  A    between atoms: C_5  and  C_6
REMARK    5  A    between atoms: C_6  and  C_7
REMARK                            x       y       z     vdW  Elec       q    Type
REMARK                         _______ _______ _______ _____ _____    ______ ____
ROOT
ATOM      1  C   UNL     1       4.654   5.370  17.918  0.00  0.00    +0.000 C 
ATOM      2  C   UNL     1       3.969   5.509  19.327  0.00  0.00    +0.000 C 
ATOM      3  C   UNL     1       3.091   6.728  19.220  0.00  0.00    +0.000 A 
ATOM      4  C   UNL     1       2.229   7.234  20.186  0.00  0.00    +0.000 A 
ATOM      5  C   UNL     1       1.516   8.384  19.858  0.00  0.00    +0.000 A 
ATOM      6  C   UNL     1       1.660   9.013  18.606  0.00  0.00    +0.000 A 
ATOM      7  C   UNL     1       2.535   8.521  17.649  0.00  0.00    +0.000 A 
ATOM      8  C   UNL     1       3.235   7.371  17.994  0.00  0.00    +0.000 A 
ATOM      9  C   UNL     1       4.188   6.624  17.182  0.00  0.00    +0.000 C 
ATOM     10  O   UNL     1       4.534   6.987  16.076  0.00  0.00    +0.000 OA
ATOM     11  C   UNL     1       0.807  10.240  18.522  0.00  0.00    +0.000 C 
ATOM     12  C   UNL     1      -0.158  10.026  19.697  0.00  0.00    +0.000 C 
ATOM     13  C   UNL     1       0.578   9.160  20.731  0.00  0.00    +0.000 C 
ENDROOT
BRANCH   1  14
ATOM     14  C   UNL     1       6.167   5.396  18.025  0.00  0.00    +0.000 C 
ATOM     15  O   UNL     1       6.807   6.223  18.645  0.00  0.00    +0.000 OA
BRANCH  14  17
ATOM     16  C   UNL     1       7.354   4.780  16.082  0.00  0.00    +0.000 C 
ATOM     17  O   UNL     1       6.740   4.384  17.303  0.00  0.00    +0.000 OA
ENDBRANCH  14  17
ENDBRANCH   1  14
BRANCH   1  18
ATOM     18  C   UNL     1       4.175   4.110  17.141  0.00  0.00    +0.000 C 
BRANCH  18  19
ATOM     19  C   UNL     1       2.977   3.391  17.746  0.00  0.00    +0.000 A 
ATOM     20  C   UNL     1       1.693   3.927  17.636  0.00  0.00    +0.000 A 
ATOM     21  C   UNL     1       0.629   3.363  18.338  0.00  0.00    +0.000 A 
ATOM     22  C   UNL     1       0.816   2.226  19.117  0.00  0.00    +0.000 A 
ATOM     23  C   UNL     1       2.065   1.623  19.160  0.00  0.00    +0.000 A 
ATOM     24  C   UNL     1       3.135   2.201  18.474  0.00  0.00    +0.000 A 
ENDBRANCH  18  19
ENDBRANCH   1  18
TORSDOF 4
ENDMDL
MODEL 7
REMARK VINA RESULT:      -7.9      3.067      5.165
REMARK  Name = 
REMARK  5 active torsions:
REMARK  status: ('A' for Active; 'I' for Inactive)
REMARK    1  A    between atoms: C_1  and  O_2
REMARK    2  A    between atoms: O_2  and  C_3
REMARK    3  A    between atoms: C_3  and  C_5
REMARK    4  A    between atoms: C_5  and  C_6
REMARK    5  A    between atoms: C_6  and  C_7
REMARK                            x       y       z     vdW  Elec       q    Type
REMARK                         _______ _______ _______ _____ _____    ______ ____
ROOT
ATOM      1  C   UNL     1       5.709   4.843  15.611  0.00  0.00    +0.000 C 
ATOM      2  C   UNL     1       5.328   3.383  16.053  0.00  0.00    +0.000 C 
ATOM      3  C   UNL     1       4.246   3.552  17.087  0.00  0.00    +0.000 A 
ATOM      4  C   UNL     1       3.537   2.549  17.737  0.00  0.00    +0.000 A 
ATOM      5  C   UNL     1       2.578   2.952  18.664  0.00  0.00    +0.000 A 
ATOM      6  C   UNL     1       2.337   4.313  18.936  0.00  0.00    +0.000 A 
ATOM      7  C   UNL     1       3.059   5.313  18.304  0.00  0.00    +0.000 A 
ATOM      8  C   UNL     1       4.009   4.892  17.380  0.00  0.00    +0.000 A 
ATOM      9  C   UNL     1       4.882   5.716  16.553  0.00  0.00    +0.000 C 
ATOM     10  O   UNL     1       4.912   6.927  16.635  0.00  0.00    +0.000 OA
ATOM     11  C   UNL     1       1.283   4.469  19.988  0.00  0.00    +0.000 C 
ATOM     12  C   UNL     1       0.645   3.072  19.996  0.00  0.00    +0.000 C 
ATOM     13  C   UNL     1       1.727   2.082  19.537  0.00  0.00    +0.000 C 
ENDROOT
BRANCH   1  14
ATOM     14  C   UNL     1       7.180   5.133  15.837  0.00  0.00    +0.000 C 
ATOM     15  O   UNL     1       7.822   5.980  15.246  0.00  0.00    +0.000 OA
BRANCH  14  17
ATOM     16  C   UNL     1       7.815   4.831  18.088  0.00  0.00    +0.000 C 
ATOM     17  O   UNL     1       7.720   4.294  16.774  0.00  0.00    +0.000 OA
ENDBRANCH  14  17
ENDBRANCH   1  14
BRANCH   1  18
ATOM     18  C   UNL     1       5.304   5.149  14.140  0.00  0.00    +0.000 C 
BRANCH  18  19
ATOM     19  C   UNL     1       5.606   4.040  13.140  0.00  0.00    +0.000 A 
ATOM     20  C   UNL     1       6.923   3.720  12.807  0.00  0.00    +0.000 A 
ATOM     21  C   UNL     1       7.193   2.833  11.766  0.00  0.00    +0.000 A 
ATOM     22  C   UNL     1       6.158   2.210  11.078  0.00  0.00    +0.000 A 
ATOM     23  C   UNL     1       4.845   2.442  11.460  0.00  0.00    +0.000 A 
ATOM     24  C   UNL     1       4.574   3.348  12.488  0.00  0.00    +0.000 A 
ENDBRANCH  18  19
ENDBRANCH   1  18
TORSDOF 4
ENDMDL
MODEL 8
REMARK VINA RESULT:      -7.6      2.059      4.548
REMARK  Name = 
REMARK  5 active torsions:
REMARK  status: ('A' for Active; 'I' for Inactive)
REMARK    1  A    between atoms: C_1  and  O_2
REMARK    2  A    between atoms: O_2  and  C_3
REMARK    3  A    between atoms: C_3  and  C_5
REMARK    4  A    between atoms: C_5  and  C_6
REMARK    5  A    between atoms: C_6  and  C_7
REMARK                            x       y       z     vdW  Elec       q    Type
REMARK                         _______ _______ _______ _____ _____    ______ ____
ROOT
ATOM      1  C   UNL     1       3.497   4.187  18.609  0.00  0.00    +0.000 C 
ATOM      2  C   UNL     1       3.215   5.387  17.633  0.00  0.00    +0.000 C 
ATOM      3  C   UNL     1       2.589   6.456  18.490  0.00  0.00    +0.000 A 
ATOM      4  C   UNL     1       2.215   7.736  18.102  0.00  0.00    +0.000 A 
ATOM      5  C   UNL     1       1.648   8.553  19.079  0.00  0.00    +0.000 A 
ATOM      6  C   UNL     1       1.458   8.104  20.400  0.00  0.00    +0.000 A 
ATOM      7  C   UNL     1       1.812   6.819  20.783  0.00  0.00    +0.000 A 
ATOM      8  C   UNL     1       2.379   6.021  19.796  0.00  0.00    +0.000 A 
ATOM      9  C   UNL     1       2.869   4.654  19.921  0.00  0.00    +0.000 C 
ATOM     10  O   UNL     1       2.772   4.013  20.948  0.00  0.00    +0.000 OA
ATOM     11  C   UNL     1       0.807   9.162  21.235  0.00  0.00    +0.000 C 
ATOM     12  C   UNL     1       1.019  10.413  20.370  0.00  0.00    +0.000 C 
ATOM     13  C   UNL     1       1.107   9.940  18.911  0.00  0.00    +0.000 C 
ENDROOT
BRANCH   1  14
ATOM     14  C   UNL     1       2.800   2.918  18.155  0.00  0.00    +0.000 C 
ATOM     15  O   UNL     1       3.348   1.846  17.986  0.00  0.00    +0.000 OA
BRANCH  14  17
ATOM     16  C   UNL     1       0.581   2.308  18.669  0.00  0.00    +0.000 C 
ATOM     17  O   UNL     1       1.469   3.131  17.921  0.00  0.00    +0.000 OA
ENDBRANCH  14  17
ENDBRANCH   1  14
BRANCH   1  18
ATOM     18  C   UNL     1       5.017   3.936  18.828  0.00  0.00    +0.000 C 
BRANCH  18  19
ATOM     19  C   UNL     1       5.926   5.103  18.465  0.00  0.00    +0.000 A 
ATOM     20  C   UNL     1       5.803   5.745  17.232  0.00  0.00    +0.000 A 
ATOM     21  C   UNL     1       6.746   6.690  16.830  0.00  0.00    +0.000 A 
ATOM     22  C   UNL     1       7.793   7.050  17.672  0.00  0.00    +0.000 A 
ATOM     23  C   UNL     1       7.874   6.493  18.940  0.00  0.00    +0.000 A 
ATOM     24  C   UNL     1       6.942   5.530  19.333  0.00  0.00    +0.000 A 
ENDBRANCH  18  19
ENDBRANCH   1  18
TORSDOF 4
ENDMDL
MODEL 9
REMARK VINA RESULT:      -7.5      1.649      2.787
REMARK  Name = 
REMARK  5 active torsions:
REMARK  status: ('A' for Active; 'I' for Inactive)
REMARK    1  A    between atoms: C_1  and  O_2
REMARK    2  A    between atoms: O_2  and  C_3
REMARK    3  A    between atoms: C_3  and  C_5
REMARK    4  A    between atoms: C_5  and  C_6
REMARK    5  A    between atoms: C_6  and  C_7
REMARK                            x       y       z     vdW  Elec       q    Type
REMARK                         _______ _______ _______ _____ _____    ______ ____
ROOT
ATOM      1  C   UNL     1       2.620   6.679  18.584  0.00  0.00    +0.000 C 
ATOM      2  C   UNL     1       2.241   6.513  20.101  0.00  0.00    +0.000 C 
ATOM      3  C   UNL     1       1.549   7.797  20.479  0.00  0.00    +0.000 A 
ATOM      4  C   UNL     1       0.969   8.115  21.701  0.00  0.00    +0.000 A 
ATOM      5  C   UNL     1       0.385   9.375  21.816  0.00  0.00    +0.000 A 
ATOM      6  C   UNL     1       0.382  10.290  20.745  0.00  0.00    +0.000 A 
ATOM      7  C   UNL     1       0.978   9.981  19.531  0.00  0.00    +0.000 A 
ATOM      8  C   UNL     1       1.553   8.719  19.435  0.00  0.00    +0.000 A 
ATOM      9  C   UNL     1       2.214   8.120  18.282  0.00  0.00    +0.000 C 
ATOM     10  O   UNL     1       2.394   8.723  17.244  0.00  0.00    +0.000 OA
ATOM     11  C   UNL     1      -0.280  11.572  21.140  0.00  0.00    +0.000 C 
ATOM     12  C   UNL     1      -1.028  11.154  22.415  0.00  0.00    +0.000 C 
ATOM     13  C   UNL     1      -0.246   9.984  23.030  0.00  0.00    +0.000 C 
ENDROOT
BRANCH   1  14
ATOM     14  C   UNL     1       4.113   6.531  18.359  0.00  0.00    +0.000 C 
ATOM     15  O   UNL     1       4.710   6.921  17.374  0.00  0.00    +0.000 OA
BRANCH  14  17
ATOM     16  C   UNL     1       5.885   5.136  19.047  0.00  0.00    +0.000 C 
ATOM     17  O   UNL     1       4.715   5.868  19.393  0.00  0.00    +0.000 OA
ENDBRANCH  14  17
ENDBRANCH   1  14
BRANCH   1  18
ATOM     18  C   UNL     1       1.822   5.717  17.659  0.00  0.00    +0.000 C 
BRANCH  18  19
ATOM     19  C   UNL     1       1.985   4.234  17.968  0.00  0.00    +0.000 A 
ATOM     20  C   UNL     1       1.183   3.614  18.927  0.00  0.00    +0.000 A 
ATOM     21  C   UNL     1       1.452   2.308  19.335  0.00  0.00    +0.000 A 
ATOM     22  C   UNL     1       2.487   1.582  18.756  0.00  0.00    +0.000 A 
ATOM     23  C   UNL     1       3.232   2.150  17.733  0.00  0.00    +0.000 A 
ATOM     24  C   UNL     1       2.977   3.465  17.340  0.00  0.00    +0.000 A 
ENDBRANCH  18  19
ENDBRANCH   1  18
TORSDOF 4
ENDMDL
