MODEL 1
REMARK VINA RESULT:      -8.7      0.000      0.000
REMARK  Name = 
REMARK  3 active torsions:
REMARK  status: ('A' for Active; 'I' for Inactive)
REMARK    1  A    between atoms: C_2  and  C_4
REMARK    2  A    between atoms: C_8  and  C_9
REMARK    3  A    between atoms: C_16  and  C_17
REMARK                            x       y       z     vdW  Elec       q    Type
REMARK                         _______ _______ _______ _____ _____    ______ ____
ROOT
ATOM      1  C   UNL     1       6.077   4.239  17.905  0.00  0.00    +0.000 C 
ATOM      2  C   UNL     1       7.320   4.694  17.145  0.00  0.00    +0.000 C 
ATOM      3  O   UNL     1       8.455   4.453  17.569  0.00  0.00    +0.000 OA
ATOM      4  N   UNL     1       7.176   5.429  16.008  0.00  0.00    +0.000 N 
ATOM      5  C   UNL     1       5.990   5.486  15.177  0.00  0.00    +0.000 C 
ATOM      6  C   UNL     1       4.776   5.005  15.909  0.00  0.00    +0.000 C 
ATOM      7  C   UNL     1       4.804   4.424  17.121  0.00  0.00    +0.000 C 
ATOM      8  H   UNL     1       8.051   5.681  15.570  0.00  0.00    +0.000 HD
ENDROOT
BRANCH   5   9
ATOM      9  C   UNL     1       6.225   4.697  13.899  0.00  0.00    +0.000 A 
ATOM     10  C   UNL     1       7.367   4.924  13.108  0.00  0.00    +0.000 A 
ATOM     11  C   UNL     1       7.570   4.217  11.925  0.00  0.00    +0.000 A 
ATOM     12  C   UNL     1       6.636   3.268  11.514  0.00  0.00    +0.000 A 
ATOM     13  C   UNL     1       5.504   3.025  12.287  0.00  0.00    +0.000 A 
ATOM     14  C   UNL     1       5.297   3.733  13.474  0.00  0.00    +0.000 A 
ENDBRANCH   5   9
BRANCH   7  15
ATOM     15  C   UNL     1       3.557   3.860  17.660  0.00  0.00    +0.000 A 
ATOM     16  C   UNL     1       3.509   2.521  18.072  0.00  0.00    +0.000 A 
ATOM     17  C   UNL     1       2.312   1.963  18.529  0.00  0.00    +0.000 A 
ATOM     18  C   UNL     1       1.156   2.740  18.578  0.00  0.00    +0.000 A 
ATOM     19  C   UNL     1       1.196   4.075  18.176  0.00  0.00    +0.000 A 
ATOM     20  C   UNL     1       2.391   4.631  17.715  0.00  0.00    +0.000 A 
ENDBRANCH   7  15
BRANCH   1  22
ATOM     21  N   UNL     1       7.255   5.229  19.816  0.00  0.00    +0.000 N 
ATOM     22  C   UNL     1       6.035   4.984  19.241  0.00  0.00    +0.000 C 
ATOM     23  O   UNL     1       5.011   5.380  19.792  0.00  0.00    +0.000 OA
ATOM     24  H   UNL     1       7.236   5.838  20.625  0.00  0.00    +0.000 HD
ATOM     25  H   UNL     1       8.082   5.282  19.232  0.00  0.00    +0.000 HD
ENDBRANCH   1  22
TORSDOF 3
ENDMDL
MODEL 2
REMARK VINA RESULT:      -8.7      3.135      4.464
REMARK  Name = 
REMARK  3 active torsions:
REMARK  status: ('A' for Active; 'I' for Inactive)
REMARK    1  A    between atoms: C_2  and  C_4
REMARK    2  A    between atoms: C_8  and  C_9
REMARK    3  A    between atoms: C_16  and  C_17
REMARK                            x       y       z     vdW  Elec       q    Type
REMARK                         _______ _______ _______ _____ _____    ______ ____
ROOT
ATOM      1  C   UNL     1       2.347   4.250  19.034  0.00  0.00    +0.000 C 
ATOM      2  C   UNL     1       3.176   3.033  18.631  0.00  0.00    +0.000 C 
ATOM      3  O   UNL     1       2.646   1.937  18.422  0.00  0.00    +0.000 OA
ATOM      4  N   UNL     1       4.531   3.143  18.556  0.00  0.00    +0.000 N 
ATOM      5  C   UNL     1       5.276   4.375  18.396  0.00  0.00    +0.000 C 
ATOM      6  C   UNL     1       4.453   5.573  18.755  0.00  0.00    +0.000 C 
ATOM      7  C   UNL     1       3.136   5.533  19.020  0.00  0.00    +0.000 C 
ATOM      8  H   UNL     1       4.996   2.291  18.278  0.00  0.00    +0.000 HD
ENDROOT
BRANCH   5   9
ATOM      9  C   UNL     1       5.811   4.466  16.974  0.00  0.00    +0.000 A 
ATOM     10  C   UNL     1       7.144   4.844  16.726  0.00  0.00    +0.000 A 
ATOM     11  C   UNL     1       7.626   4.950  15.423  0.00  0.00    +0.000 A 
ATOM     12  C   UNL     1       6.785   4.677  14.347  0.00  0.00    +0.000 A 
ATOM     13  C   UNL     1       5.465   4.296  14.574  0.00  0.00    +0.000 A 
ATOM     14  C   UNL     1       4.978   4.189  15.879  0.00  0.00    +0.000 A 
ENDBRANCH   5   9
BRANCH   7  15
ATOM     15  C   UNL     1       2.418   6.804  19.210  0.00  0.00    +0.000 A 
ATOM     16  C   UNL     1       2.285   7.703  18.143  0.00  0.00    +0.000 A 
ATOM     17  C   UNL     1       1.657   8.937  18.334  0.00  0.00    +0.000 A 
ATOM     18  C   UNL     1       1.156   9.278  19.588  0.00  0.00    +0.000 A 
ATOM     19  C   UNL     1       1.278   8.386  20.653  0.00  0.00    +0.000 A 
ATOM     20  C   UNL     1       1.911   7.155  20.465  0.00  0.00    +0.000 A 
ENDBRANCH   7  15
BRANCH   1  22
ATOM     21  N   UNL     1       0.462   3.462  20.392  0.00  0.00    +0.000 N 
ATOM     22  C   UNL     1       1.732   3.975  20.408  0.00  0.00    +0.000 C 
ATOM     23  O   UNL     1       2.303   4.158  21.481  0.00  0.00    +0.000 OA
ATOM     24  H   UNL     1       0.110   3.153  21.290  0.00  0.00    +0.000 HD
ATOM     25  H   UNL     1       0.141   2.945  19.581  0.00  0.00    +0.000 HD
ENDBRANCH   1  22
TORSDOF 3
ENDMDL
MODEL 3
REMARK VINA RESULT:      -8.7      0.039      1.030
REMARK  Name = 
REMARK  3 active torsions:
REMARK  status: ('A' for Active; 'I' for Inactive)
REMARK    1  A    between atoms: C_2  and  C_4
REMARK    2  A    between atoms: C_8  and  C_9
REMARK    3  A    between atoms: C_16  and  C_17
REMARK                            x       y       z     vdW  Elec       q    Type
REMARK                         _______ _______ _______ _____ _____    ______ ____
ROOT
ATOM      1  C   UNL     1       6.067   4.238  17.883  0.00  0.00    +0.000 C 
ATOM      2  C   UNL     1       7.312   4.689  17.123  0.00  0.00    +0.000 C 
ATOM      3  O   UNL     1       8.446   4.439  17.544  0.00  0.00    +0.000 OA
ATOM      4  N   UNL     1       7.171   5.430  15.990  0.00  0.00    +0.000 N 
ATOM      5  C   UNL     1       5.984   5.499  15.161  0.00  0.00    +0.000 C 
ATOM      6  C   UNL     1       4.768   5.022  15.893  0.00  0.00    +0.000 C 
ATOM      7  C   UNL     1       4.794   4.435  17.102  0.00  0.00    +0.000 C 
ATOM      8  H   UNL     1       8.047   5.678  15.551  0.00  0.00    +0.000 HD
ENDROOT
BRANCH   5   9
ATOM      9  C   UNL     1       6.212   4.714  13.879  0.00  0.00    +0.000 A 
ATOM     10  C   UNL     1       5.287   3.742  13.452  0.00  0.00    +0.000 A 
ATOM     11  C   UNL     1       5.507   3.006  12.289  0.00  0.00    +0.000 A 
ATOM     12  C   UNL     1       6.653   3.233  11.531  0.00  0.00    +0.000 A 
ATOM     13  C   UNL     1       7.576   4.196  11.934  0.00  0.00    +0.000 A 
ATOM     14  C   UNL     1       7.358   4.935  13.100  0.00  0.00    +0.000 A 
ENDBRANCH   5   9
BRANCH   7  15
ATOM     15  C   UNL     1       3.544   3.876  17.641  0.00  0.00    +0.000 A 
ATOM     16  C   UNL     1       3.474   2.522  17.997  0.00  0.00    +0.000 A 
ATOM     17  C   UNL     1       2.273   1.972  18.452  0.00  0.00    +0.000 A 
ATOM     18  C   UNL     1       1.136   2.771  18.556  0.00  0.00    +0.000 A 
ATOM     19  C   UNL     1       1.199   4.121  18.209  0.00  0.00    +0.000 A 
ATOM     20  C   UNL     1       2.398   4.670  17.749  0.00  0.00    +0.000 A 
ENDBRANCH   7  15
BRANCH   1  22
ATOM     21  N   UNL     1       7.255   5.203  19.801  0.00  0.00    +0.000 N 
ATOM     22  C   UNL     1       6.033   4.977  19.223  0.00  0.00    +0.000 C 
ATOM     23  O   UNL     1       5.012   5.383  19.774  0.00  0.00    +0.000 OA
ATOM     24  H   UNL     1       7.241   5.809  20.612  0.00  0.00    +0.000 HD
ATOM     25  H   UNL     1       8.083   5.249  19.219  0.00  0.00    +0.000 HD
ENDBRANCH   1  22
TORSDOF 3
ENDMDL
MODEL 4
REMARK VINA RESULT:      -8.7      3.144      4.564
REMARK  Name = 
REMARK  3 active torsions:
REMARK  status: ('A' for Active; 'I' for Inactive)
REMARK    1  A    between atoms: C_2  and  C_4
REMARK    2  A    between atoms: C_8  and  C_9
REMARK    3  A    between atoms: C_16  and  C_17
REMARK                            x       y       z     vdW  Elec       q    Type
REMARK                         _______ _______ _______ _____ _____    ______ ____
ROOT
ATOM      1  C   UNL     1       2.338   4.276  19.018  0.00  0.00    +0.000 C 
ATOM      2  C   UNL     1       3.166   3.063  18.602  0.00  0.00    +0.000 C 
ATOM      3  O   UNL     1       2.636   1.969  18.384  0.00  0.00    +0.000 OA
ATOM      4  N   UNL     1       4.521   3.174  18.524  0.00  0.00    +0.000 N 
ATOM      5  C   UNL     1       5.266   4.407  18.373  0.00  0.00    +0.000 C 
ATOM      6  C   UNL     1       4.444   5.602  18.746  0.00  0.00    +0.000 C 
ATOM      7  C   UNL     1       3.127   5.559  19.014  0.00  0.00    +0.000 C 
ATOM      8  H   UNL     1       4.986   2.324  18.237  0.00  0.00    +0.000 HD
ENDROOT
BRANCH   5   9
ATOM      9  C   UNL     1       5.796   4.512  16.951  0.00  0.00    +0.000 A 
ATOM     10  C   UNL     1       4.965   4.240  15.848  0.00  0.00    +0.000 A 
ATOM     11  C   UNL     1       5.457   4.314  14.547  0.00  0.00    +0.000 A 
ATOM     12  C   UNL     1       6.786   4.664  14.326  0.00  0.00    +0.000 A 
ATOM     13  C   UNL     1       7.622   4.944  15.405  0.00  0.00    +0.000 A 
ATOM     14  C   UNL     1       7.131   4.870  16.712  0.00  0.00    +0.000 A 
ENDBRANCH   5   9
BRANCH   7  15
ATOM     15  C   UNL     1       2.409   6.827  19.218  0.00  0.00    +0.000 A 
ATOM     16  C   UNL     1       2.268   7.735  18.159  0.00  0.00    +0.000 A 
ATOM     17  C   UNL     1       1.640   8.966  18.362  0.00  0.00    +0.000 A 
ATOM     18  C   UNL     1       1.147   9.298  19.622  0.00  0.00    +0.000 A 
ATOM     19  C   UNL     1       1.278   8.399  20.680  0.00  0.00    +0.000 A 
ATOM     20  C   UNL     1       1.910   7.170  20.479  0.00  0.00    +0.000 A 
ENDBRANCH   7  15
BRANCH   1  22
ATOM     21  N   UNL     1       0.459   3.471  20.374  0.00  0.00    +0.000 N 
ATOM     22  C   UNL     1       1.728   3.987  20.392  0.00  0.00    +0.000 C 
ATOM     23  O   UNL     1       2.300   4.164  21.465  0.00  0.00    +0.000 OA
ATOM     24  H   UNL     1       0.111   3.153  21.271  0.00  0.00    +0.000 HD
ATOM     25  H   UNL     1       0.138   2.959  19.560  0.00  0.00    +0.000 HD
ENDBRANCH   1  22
TORSDOF 3
ENDMDL
MODEL 5
REMARK VINA RESULT:      -8.7      0.084      1.032
REMARK  Name = 
REMARK  3 active torsions:
REMARK  status: ('A' for Active; 'I' for Inactive)
REMARK    1  A    between atoms: C_2  and  C_4
REMARK    2  A    between atoms: C_8  and  C_9
REMARK    3  A    between atoms: C_16  and  C_17
REMARK                            x       y       z     vdW  Elec       q    Type
REMARK                         _______ _______ _______ _____ _____    ______ ____
ROOT
ATOM      1  C   UNL     1       6.063   4.178  17.868  0.00  0.00    +0.000 C 
ATOM      2  C   UNL     1       7.324   4.618  17.128  0.00  0.00    +0.000 C 
ATOM      3  O   UNL     1       8.449   4.347  17.561  0.00  0.00    +0.000 OA
ATOM      4  N   UNL     1       7.208   5.371  16.000  0.00  0.00    +0.000 N 
ATOM      5  C   UNL     1       6.033   5.465  15.158  0.00  0.00    +0.000 C 
ATOM      6  C   UNL     1       4.801   5.000  15.869  0.00  0.00    +0.000 C 
ATOM      7  C   UNL     1       4.804   4.401  17.073  0.00  0.00    +0.000 C 
ATOM      8  H   UNL     1       8.093   5.611  15.575  0.00  0.00    +0.000 HD
ENDROOT
BRANCH   5   9
ATOM      9  C   UNL     1       6.266   4.688  13.870  0.00  0.00    +0.000 A 
ATOM     10  C   UNL     1       7.396   4.938  13.069  0.00  0.00    +0.000 A 
ATOM     11  C   UNL     1       7.596   4.243  11.879  0.00  0.00    +0.000 A 
ATOM     12  C   UNL     1       6.672   3.284  11.470  0.00  0.00    +0.000 A 
ATOM     13  C   UNL     1       5.552   3.019  12.254  0.00  0.00    +0.000 A 
ATOM     14  C   UNL     1       5.348   3.714  13.449  0.00  0.00    +0.000 A 
ENDBRANCH   5   9
BRANCH   7  15
ATOM     15  C   UNL     1       3.539   3.856  17.591  0.00  0.00    +0.000 A 
ATOM     16  C   UNL     1       2.420   4.688  17.736  0.00  0.00    +0.000 A 
ATOM     17  C   UNL     1       1.235   4.190  18.283  0.00  0.00    +0.000 A 
ATOM     18  C   UNL     1       1.159   2.858  18.687  0.00  0.00    +0.000 A 
ATOM     19  C   UNL     1       2.266   2.022  18.541  0.00  0.00    +0.000 A 
ATOM     20  C   UNL     1       3.453   2.520  17.999  0.00  0.00    +0.000 A 
ENDBRANCH   7  15
BRANCH   1  22
ATOM     21  N   UNL     1       7.245   5.189  19.766  0.00  0.00    +0.000 N 
ATOM     22  C   UNL     1       6.023   4.906  19.214  0.00  0.00    +0.000 C 
ATOM     23  O   UNL     1       4.996   5.256  19.791  0.00  0.00    +0.000 OA
ATOM     24  H   UNL     1       7.220   5.788  20.583  0.00  0.00    +0.000 HD
ATOM     25  H   UNL     1       8.056   5.280  19.166  0.00  0.00    +0.000 HD
ENDBRANCH   1  22
TORSDOF 3
ENDMDL
MODEL 6
REMARK VINA RESULT:      -8.7      0.065      1.457
REMARK  Name = 
REMARK  3 active torsions:
REMARK  status: ('A' for Active; 'I' for Inactive)
REMARK    1  A    between atoms: C_2  and  C_4
REMARK    2  A    between atoms: C_8  and  C_9
REMARK    3  A    between atoms: C_16  and  C_17
REMARK                            x       y       z     vdW  Elec       q    Type
REMARK                         _______ _______ _______ _____ _____    ______ ____
ROOT
ATOM      1  C   UNL     1       6.039   4.222  17.866  0.00  0.00    +0.000 C 
ATOM      2  C   UNL     1       7.289   4.687  17.122  0.00  0.00    +0.000 C 
ATOM      3  O   UNL     1       8.420   4.444  17.555  0.00  0.00    +0.000 OA
ATOM      4  N   UNL     1       7.154   5.433  15.991  0.00  0.00    +0.000 N 
ATOM      5  C   UNL     1       5.976   5.497  15.150  0.00  0.00    +0.000 C 
ATOM      6  C   UNL     1       4.756   5.007  15.865  0.00  0.00    +0.000 C 
ATOM      7  C   UNL     1       4.773   4.413  17.071  0.00  0.00    +0.000 C 
ATOM      8  H   UNL     1       8.032   5.691  15.564  0.00  0.00    +0.000 HD
ENDROOT
BRANCH   5   9
ATOM      9  C   UNL     1       6.224   4.721  13.865  0.00  0.00    +0.000 A 
ATOM     10  C   UNL     1       5.320   3.733  13.432  0.00  0.00    +0.000 A 
ATOM     11  C   UNL     1       5.559   3.006  12.267  0.00  0.00    +0.000 A 
ATOM     12  C   UNL     1       6.704   3.256  11.515  0.00  0.00    +0.000 A 
ATOM     13  C   UNL     1       7.606   4.235  11.925  0.00  0.00    +0.000 A 
ATOM     14  C   UNL     1       7.370   4.965  13.093  0.00  0.00    +0.000 A 
ENDBRANCH   5   9
BRANCH   7  15
ATOM     15  C   UNL     1       3.522   3.841  17.593  0.00  0.00    +0.000 A 
ATOM     16  C   UNL     1       2.385   4.648  17.736  0.00  0.00    +0.000 A 
ATOM     17  C   UNL     1       1.212   4.126  18.287  0.00  0.00    +0.000 A 
ATOM     18  C   UNL     1       1.167   2.795  18.697  0.00  0.00    +0.000 A 
ATOM     19  C   UNL     1       2.292   1.983  18.553  0.00  0.00    +0.000 A 
ATOM     20  C   UNL     1       3.467   2.506  18.007  0.00  0.00    +0.000 A 
ENDBRANCH   7  15
BRANCH   1  22
ATOM     21  N   UNL     1       7.198   5.208  19.790  0.00  0.00    +0.000 N 
ATOM     22  C   UNL     1       5.984   4.954  19.209  0.00  0.00    +0.000 C 
ATOM     23  O   UNL     1       4.952   5.331  19.760  0.00  0.00    +0.000 OA
ATOM     24  H   UNL     1       7.169   5.809  20.604  0.00  0.00    +0.000 HD
ATOM     25  H   UNL     1       8.026   5.278  19.209  0.00  0.00    +0.000 HD
ENDBRANCH   1  22
TORSDOF 3
ENDMDL
MODEL 7
REMARK VINA RESULT:      -8.7      3.130      4.390
REMARK  Name = 
REMARK  3 active torsions:
REMARK  status: ('A' for Active; 'I' for Inactive)
REMARK    1  A    between atoms: C_2  and  C_4
REMARK    2  A    between atoms: C_8  and  C_9
REMARK    3  A    between atoms: C_16  and  C_17
REMARK                            x       y       z     vdW  Elec       q    Type
REMARK                         _______ _______ _______ _____ _____    ______ ____
ROOT
ATOM      1  C   UNL     1       2.335   4.356  18.886  0.00  0.00    +0.000 C 
ATOM      2  C   UNL     1       3.117   3.113  18.466  0.00  0.00    +0.000 C 
ATOM      3  O   UNL     1       2.545   2.041  18.243  0.00  0.00    +0.000 OA
ATOM      4  N   UNL     1       4.475   3.173  18.390  0.00  0.00    +0.000 N 
ATOM      5  C   UNL     1       5.266   4.378  18.244  0.00  0.00    +0.000 C 
ATOM      6  C   UNL     1       4.490   5.601  18.621  0.00  0.00    +0.000 C 
ATOM      7  C   UNL     1       3.172   5.608  18.888  0.00  0.00    +0.000 C 
ATOM      8  H   UNL     1       4.907   2.307  18.099  0.00  0.00    +0.000 HD
ENDROOT
BRANCH   5   9
ATOM      9  C   UNL     1       5.801   4.468  16.823  0.00  0.00    +0.000 A 
ATOM     10  C   UNL     1       7.116   4.904  16.572  0.00  0.00    +0.000 A 
ATOM     11  C   UNL     1       7.598   5.008  15.269  0.00  0.00    +0.000 A 
ATOM     12  C   UNL     1       6.776   4.675  14.196  0.00  0.00    +0.000 A 
ATOM     13  C   UNL     1       5.475   4.235  14.425  0.00  0.00    +0.000 A 
ATOM     14  C   UNL     1       4.988   4.130  15.731  0.00  0.00    +0.000 A 
ENDBRANCH   5   9
BRANCH   7  15
ATOM     15  C   UNL     1       2.503   6.902  19.096  0.00  0.00    +0.000 A 
ATOM     16  C   UNL     1       2.000   7.239  20.360  0.00  0.00    +0.000 A 
ATOM     17  C   UNL     1       1.310   8.440  20.548  0.00  0.00    +0.000 A 
ATOM     18  C   UNL     1       1.121   9.311  19.477  0.00  0.00    +0.000 A 
ATOM     19  C   UNL     1       1.623   8.985  18.217  0.00  0.00    +0.000 A 
ATOM     20  C   UNL     1       2.308   7.783  18.027  0.00  0.00    +0.000 A 
ENDBRANCH   7  15
BRANCH   1  22
ATOM     21  N   UNL     1       0.433   3.595  20.237  0.00  0.00    +0.000 N 
ATOM     22  C   UNL     1       1.713   4.085  20.258  0.00  0.00    +0.000 C 
ATOM     23  O   UNL     1       2.284   4.254  21.333  0.00  0.00    +0.000 OA
ATOM     24  H   UNL     1       0.074   3.288  21.133  0.00  0.00    +0.000 HD
ATOM     25  H   UNL     1       0.105   3.087  19.423  0.00  0.00    +0.000 HD
ENDBRANCH   1  22
TORSDOF 3
ENDMDL
MODEL 8
REMARK VINA RESULT:      -8.6      3.132      4.491
REMARK  Name = 
REMARK  3 active torsions:
REMARK  status: ('A' for Active; 'I' for Inactive)
REMARK    1  A    between atoms: C_2  and  C_4
REMARK    2  A    between atoms: C_8  and  C_9
REMARK    3  A    between atoms: C_16  and  C_17
REMARK                            x       y       z     vdW  Elec       q    Type
REMARK                         _______ _______ _______ _____ _____    ______ ____
ROOT
ATOM      1  C   UNL     1       2.347   4.348  18.913  0.00  0.00    +0.000 C 
ATOM      2  C   UNL     1       3.134   3.113  18.483  0.00  0.00    +0.000 C 
ATOM      3  O   UNL     1       2.568   2.038  18.258  0.00  0.00    +0.000 OA
ATOM      4  N   UNL     1       4.491   3.181  18.402  0.00  0.00    +0.000 N 
ATOM      5  C   UNL     1       5.275   4.391  18.258  0.00  0.00    +0.000 C 
ATOM      6  C   UNL     1       4.493   5.608  18.644  0.00  0.00    +0.000 C 
ATOM      7  C   UNL     1       3.176   5.605  18.917  0.00  0.00    +0.000 C 
ATOM      8  H   UNL     1       4.927   2.319  18.105  0.00  0.00    +0.000 HD
ENDROOT
BRANCH   5   9
ATOM      9  C   UNL     1       5.803   4.491  16.835  0.00  0.00    +0.000 A 
ATOM     10  C   UNL     1       4.991   4.150  15.737  0.00  0.00    +0.000 A 
ATOM     11  C   UNL     1       5.482   4.220  14.435  0.00  0.00    +0.000 A 
ATOM     12  C   UNL     1       6.792   4.635  14.208  0.00  0.00    +0.000 A 
ATOM     13  C   UNL     1       7.608   4.984  15.282  0.00  0.00    +0.000 A 
ATOM     14  C   UNL     1       7.118   4.914  16.589  0.00  0.00    +0.000 A 
ENDBRANCH   5   9
BRANCH   7  15
ATOM     15  C   UNL     1       2.500   6.894  19.134  0.00  0.00    +0.000 A 
ATOM     16  C   UNL     1       2.005   7.225  20.403  0.00  0.00    +0.000 A 
ATOM     17  C   UNL     1       1.309   8.420  20.601  0.00  0.00    +0.000 A 
ATOM     18  C   UNL     1       1.105   9.293  19.534  0.00  0.00    +0.000 A 
ATOM     19  C   UNL     1       1.600   8.974  18.269  0.00  0.00    +0.000 A 
ATOM     20  C   UNL     1       2.291   7.777  18.069  0.00  0.00    +0.000 A 
ENDBRANCH   7  15
BRANCH   1  22
ATOM     21  N   UNL     1       0.449   3.588  20.269  0.00  0.00    +0.000 N 
ATOM     22  C   UNL     1       1.732   4.067  20.287  0.00  0.00    +0.000 C 
ATOM     23  O   UNL     1       2.313   4.219  21.359  0.00  0.00    +0.000 OA
ATOM     24  H   UNL     1       0.094   3.274  21.165  0.00  0.00    +0.000 HD
ATOM     25  H   UNL     1       0.110   3.092  19.453  0.00  0.00    +0.000 HD
ENDBRANCH   1  22
TORSDOF 3
ENDMDL
MODEL 9
REMARK VINA RESULT:      -7.5      3.161      6.632
REMARK  Name = 
REMARK  3 active torsions:
REMARK  status: ('A' for Active; 'I' for Inactive)
REMARK    1  A    between atoms: C_2  and  C_4
REMARK    2  A    between atoms: C_8  and  C_9
REMARK    3  A    between atoms: C_16  and  C_17
REMARK                            x       y       z     vdW  Elec       q    Type
REMARK                         _______ _______ _______ _____ _____    ______ ____
ROOT
ATOM      1  C   UNL     1       4.006   3.519  19.564  0.00  0.00    +0.000 C 
ATOM      2  C   UNL     1       2.802   3.742  20.476  0.00  0.00    +0.000 C 
ATOM      3  O   UNL     1       2.771   3.279  21.621  0.00  0.00    +0.000 OA
ATOM      4  N   UNL     1       1.718   4.414  19.999  0.00  0.00    +0.000 N 
ATOM      5  C   UNL     1       1.710   5.324  18.872  0.00  0.00    +0.000 C 
ATOM      6  C   UNL     1       2.910   5.132  17.996  0.00  0.00    +0.000 C 
ATOM      7  C   UNL     1       3.955   4.346  18.305  0.00  0.00    +0.000 C 
ATOM      8  H   UNL     1       0.972   4.518  20.673  0.00  0.00    +0.000 HD
ENDROOT
BRANCH   5   9
ATOM      9  C   UNL     1       1.603   6.756  19.373  0.00  0.00    +0.000 A 
ATOM     10  C   UNL     1       1.340   7.030  20.728  0.00  0.00    +0.000 A 
ATOM     11  C   UNL     1       1.220   8.341  21.182  0.00  0.00    +0.000 A 
ATOM     12  C   UNL     1       1.363   9.401  20.290  0.00  0.00    +0.000 A 
ATOM     13  C   UNL     1       1.630   9.149  18.947  0.00  0.00    +0.000 A 
ATOM     14  C   UNL     1       1.752   7.835  18.488  0.00  0.00    +0.000 A 
ENDBRANCH   5   9
BRANCH   7  15
ATOM     15  C   UNL     1       5.136   4.366  17.428  0.00  0.00    +0.000 A 
ATOM     16  C   UNL     1       6.406   4.618  17.963  0.00  0.00    +0.000 A 
ATOM     17  C   UNL     1       7.523   4.699  17.126  0.00  0.00    +0.000 A 
ATOM     18  C   UNL     1       7.377   4.526  15.751  0.00  0.00    +0.000 A 
ATOM     19  C   UNL     1       6.117   4.268  15.211  0.00  0.00    +0.000 A 
ATOM     20  C   UNL     1       5.000   4.193  16.046  0.00  0.00    +0.000 A 
ENDBRANCH   7  15
BRANCH   1  22
ATOM     21  N   UNL     1       5.061   1.340  19.962  0.00  0.00    +0.000 N 
ATOM     22  C   UNL     1       4.103   2.023  19.259  0.00  0.00    +0.000 C 
ATOM     23  O   UNL     1       3.382   1.420  18.467  0.00  0.00    +0.000 OA
ATOM     24  H   UNL     1       5.033   0.333  19.862  0.00  0.00    +0.000 HD
ATOM     25  H   UNL     1       5.370   1.695  20.860  0.00  0.00    +0.000 HD
ENDBRANCH   1  22
TORSDOF 3
ENDMDL
