MODEL 1
REMARK VINA RESULT:      -7.4      0.000      0.000
REMARK  Name = 
REMARK  7 active torsions:
REMARK  status: ('A' for Active; 'I' for Inactive)
REMARK    1  A    between atoms: C_1  and  C_2
REMARK    2  A    between atoms: C_2  and  C_3
REMARK    3  A    between atoms: C_2  and  N_9
REMARK    4  A    between atoms: C_3  and  C_4
REMARK    5  A    between atoms: C_10  and  C_11
REMARK    6  A    between atoms: C_10  and  C_18
REMARK    7  A    between atoms: C_24  and  O_25
REMARK                            x       y       z     vdW  Elec       q    Type
REMARK                         _______ _______ _______ _____ _____    ______ ____
ROOT
ATOM      1  N   UNL     1       4.277   7.476  17.990  0.00  0.00    +0.000 NA
ATOM      2  C   UNL     1       3.147   7.068  18.481  0.00  0.00    +0.000 C 
ENDROOT
BRANCH   2   3
ATOM      3  C   UNL     1       2.755   5.637  18.718  0.00  0.00    +0.000 A 
ATOM      4  C   UNL     1       1.885   5.001  17.830  0.00  0.00    +0.000 A 
ATOM      5  C   UNL     1       1.435   3.696  18.040  0.00  0.00    +0.000 A 
ATOM      6  C   UNL     1       1.964   2.960  19.090  0.00  0.00    +0.000 A 
ATOM      7 CL   UNL     1       1.455   1.333  19.325  0.00  0.00    +0.000 Cl
ATOM      8  C   UNL     1       2.919   3.526  19.930  0.00  0.00    +0.000 A 
ATOM      9  C   UNL     1       3.286   4.872  19.769  0.00  0.00    +0.000 A 
ENDBRANCH   2   3
BRANCH   2  10
ATOM     10  C   UNL     1       2.126   8.147  18.786  0.00  0.00    +0.000 A 
ATOM     11  C   UNL     1       1.669   8.930  17.709  0.00  0.00    +0.000 A 
ATOM     12  C   UNL     1       0.670   9.892  17.894  0.00  0.00    +0.000 A 
ATOM     13  C   UNL     1       0.124  10.084  19.160  0.00  0.00    +0.000 A 
ATOM     14 CL   UNL     1      -1.119  11.253  19.390  0.00  0.00    +0.000 Cl
ATOM     15  C   UNL     1       0.579   9.332  20.248  0.00  0.00    +0.000 A 
ATOM     16  C   UNL     1       1.590   8.384  20.059  0.00  0.00    +0.000 A 
BRANCH  16  17
ATOM     17  O   UNL     1       2.050   7.700  21.150  0.00  0.00    +0.000 OA
ATOM     18  H   UNL     1       2.770   7.103  20.885  0.00  0.00    +0.000 HD
ENDBRANCH  16  17
ENDBRANCH   2  10
BRANCH   1  20
ATOM     19  C   UNL     1       6.709   7.366  17.494  0.00  0.00    +0.000 C 
ATOM     20  C   UNL     1       5.346   6.660  17.386  0.00  0.00    +0.000 C 
BRANCH  20  21
ATOM     21  C   UNL     1       5.071   6.529  15.871  0.00  0.00    +0.000 C 
BRANCH  21  22
ATOM     22  C   UNL     1       5.718   5.378  15.191  0.00  0.00    +0.000 A 
ATOM     23  C   UNL     1       5.440   4.035  15.343  0.00  0.00    +0.000 A 
ATOM     24  N   UNL     1       6.214   3.400  14.418  0.00  0.00    +0.000 N 
ATOM     25  C   UNL     1       6.911   4.358  13.737  0.00  0.00    +0.000 A 
ATOM     26  N   UNL     1       6.628   5.563  14.175  0.00  0.00    +0.000 NA
ATOM     27  H   UNL     1       6.244   2.407  14.238  0.00  0.00    +0.000 HD
ENDBRANCH  21  22
ENDBRANCH  20  21
ENDBRANCH   1  20
TORSDOF 6
ENDMDL
MODEL 2
REMARK VINA RESULT:      -7.1      2.869      4.616
REMARK  Name = 
REMARK  7 active torsions:
REMARK  status: ('A' for Active; 'I' for Inactive)
REMARK    1  A    between atoms: C_1  and  C_2
REMARK    2  A    between atoms: C_2  and  C_3
REMARK    3  A    between atoms: C_2  and  N_9
REMARK    4  A    between atoms: C_3  and  C_4
REMARK    5  A    between atoms: C_10  and  C_11
REMARK    6  A    between atoms: C_10  and  C_18
REMARK    7  A    between atoms: C_24  and  O_25
REMARK                            x       y       z     vdW  Elec       q    Type
REMARK                         _______ _______ _______ _____ _____    ______ ____
ROOT
ATOM      1  N   UNL     1       1.461   5.019  18.838  0.00  0.00    +0.000 NA
ATOM      2  C   UNL     1       2.436   5.864  18.696  0.00  0.00    +0.000 C 
ENDROOT
BRANCH   2   3
ATOM      3  C   UNL     1       3.871   5.515  18.419  0.00  0.00    +0.000 A 
ATOM      4  C   UNL     1       4.263   5.176  17.122  0.00  0.00    +0.000 A 
ATOM      5  C   UNL     1       5.568   4.778  16.823  0.00  0.00    +0.000 A 
ATOM      6  C   UNL     1       6.538   4.841  17.812  0.00  0.00    +0.000 A 
ATOM      7 CL   UNL     1       8.159   4.402  17.439  0.00  0.00    +0.000 Cl
ATOM      8  C   UNL     1       6.205   5.282  19.090  0.00  0.00    +0.000 A 
ATOM      9  C   UNL     1       4.869   5.582  19.404  0.00  0.00    +0.000 A 
ENDBRANCH   2   3
BRANCH   2  10
ATOM     10  C   UNL     1       2.081   7.326  18.884  0.00  0.00    +0.000 A 
ATOM     11  C   UNL     1       2.151   8.161  17.753  0.00  0.00    +0.000 A 
ATOM     12  C   UNL     1       1.763   9.503  17.827  0.00  0.00    +0.000 A 
ATOM     13  C   UNL     1       1.308  10.024  19.035  0.00  0.00    +0.000 A 
ATOM     14 CL   UNL     1       0.812  11.670  19.127  0.00  0.00    +0.000 Cl
ATOM     15  C   UNL     1       1.251   9.218  20.175  0.00  0.00    +0.000 A 
ATOM     16  C   UNL     1       1.656   7.881  20.099  0.00  0.00    +0.000 A 
BRANCH  16  17
ATOM     17  O   UNL     1       1.638   7.131  21.241  0.00  0.00    +0.000 OA
ATOM     18  H   UNL     1       0.730   6.840  21.431  0.00  0.00    +0.000 HD
ENDBRANCH  16  17
ENDBRANCH   2  10
BRANCH   1  20
ATOM     19  C   UNL     1       0.155   2.905  18.837  0.00  0.00    +0.000 C 
ATOM     20  C   UNL     1       1.548   3.551  18.949  0.00  0.00    +0.000 C 
BRANCH  20  21
ATOM     21  C   UNL     1       2.055   3.190  20.363  0.00  0.00    +0.000 C 
BRANCH  21  22
ATOM     22  C   UNL     1       3.299   2.381  20.420  0.00  0.00    +0.000 A 
ATOM     23  C   UNL     1       4.133   2.032  19.378  0.00  0.00    +0.000 A 
ATOM     24  N   UNL     1       5.190   1.397  19.962  0.00  0.00    +0.000 N 
ATOM     25  C   UNL     1       4.975   1.395  21.312  0.00  0.00    +0.000 A 
ATOM     26  N   UNL     1       3.846   1.988  21.620  0.00  0.00    +0.000 NA
ATOM     27  H   UNL     1       6.003   1.026  19.492  0.00  0.00    +0.000 HD
ENDBRANCH  21  22
ENDBRANCH  20  21
ENDBRANCH   1  20
TORSDOF 6
ENDMDL
MODEL 3
REMARK VINA RESULT:      -7.0      0.852      1.293
REMARK  Name = 
REMARK  7 active torsions:
REMARK  status: ('A' for Active; 'I' for Inactive)
REMARK    1  A    between atoms: C_1  and  C_2
REMARK    2  A    between atoms: C_2  and  C_3
REMARK    3  A    between atoms: C_2  and  N_9
REMARK    4  A    between atoms: C_3  and  C_4
REMARK    5  A    between atoms: C_10  and  C_11
REMARK    6  A    between atoms: C_10  and  C_18
REMARK    7  A    between atoms: C_24  and  O_25
REMARK                            x       y       z     vdW  Elec       q    Type
REMARK                         _______ _______ _______ _____ _____    ______ ____
ROOT
ATOM      1  N   UNL     1       4.576   6.738  18.500  0.00  0.00    +0.000 NA
ATOM      2  C   UNL     1       3.315   6.528  18.728  0.00  0.00    +0.000 C 
ENDROOT
BRANCH   2   3
ATOM      3  C   UNL     1       2.644   5.185  18.792  0.00  0.00    +0.000 A 
ATOM      4  C   UNL     1       2.763   4.405  19.944  0.00  0.00    +0.000 A 
ATOM      5  C   UNL     1       2.217   3.122  20.029  0.00  0.00    +0.000 A 
ATOM      6  C   UNL     1       1.423   2.655  18.993  0.00  0.00    +0.000 A 
ATOM      7 CL   UNL     1       0.703   1.097  19.113  0.00  0.00    +0.000 Cl
ATOM      8  C   UNL     1       1.191   3.453  17.876  0.00  0.00    +0.000 A 
ATOM      9  C   UNL     1       1.828   4.698  17.757  0.00  0.00    +0.000 A 
ENDBRANCH   2   3
BRANCH   2  10
ATOM     10  C   UNL     1       2.454   7.765  18.888  0.00  0.00    +0.000 A 
ATOM     11  C   UNL     1       2.305   8.601  17.766  0.00  0.00    +0.000 A 
ATOM     12  C   UNL     1       1.464   9.718  17.810  0.00  0.00    +0.000 A 
ATOM     13  C   UNL     1       0.767  10.012  18.979  0.00  0.00    +0.000 A 
ATOM     14 CL   UNL     1      -0.284  11.374  19.032  0.00  0.00    +0.000 Cl
ATOM     15  C   UNL     1       0.917   9.206  20.111  0.00  0.00    +0.000 A 
ATOM     16  C   UNL     1       1.773   8.101  20.066  0.00  0.00    +0.000 A 
BRANCH  16  17
ATOM     17  O   UNL     1       1.939   7.361  21.204  0.00  0.00    +0.000 OA
ATOM     18  H   UNL     1       1.635   6.450  21.053  0.00  0.00    +0.000 HD
ENDBRANCH  16  17
ENDBRANCH   2  10
BRANCH   1  20
ATOM     19  C   UNL     1       6.685   5.593  19.143  0.00  0.00    +0.000 C 
ATOM     20  C   UNL     1       5.591   5.758  18.073  0.00  0.00    +0.000 C 
BRANCH  20  21
ATOM     21  C   UNL     1       6.318   6.311  16.826  0.00  0.00    +0.000 C 
BRANCH  21  22
ATOM     22  C   UNL     1       6.393   5.395  15.659  0.00  0.00    +0.000 A 
ATOM     23  C   UNL     1       5.459   4.468  15.246  0.00  0.00    +0.000 A 
ATOM     24  N   UNL     1       5.939   3.976  14.068  0.00  0.00    +0.000 N 
ATOM     25  C   UNL     1       7.115   4.618  13.801  0.00  0.00    +0.000 A 
ATOM     26  N   UNL     1       7.413   5.486  14.739  0.00  0.00    +0.000 NA
ATOM     27  H   UNL     1       5.493   3.289  13.477  0.00  0.00    +0.000 HD
ENDBRANCH  21  22
ENDBRANCH  20  21
ENDBRANCH   1  20
TORSDOF 6
ENDMDL
MODEL 4
REMARK VINA RESULT:      -7.0      1.040      1.408
REMARK  Name = 
REMARK  7 active torsions:
REMARK  status: ('A' for Active; 'I' for Inactive)
REMARK    1  A    between atoms: C_1  and  C_2
REMARK    2  A    between atoms: C_2  and  C_3
REMARK    3  A    between atoms: C_2  and  N_9
REMARK    4  A    between atoms: C_3  and  C_4
REMARK    5  A    between atoms: C_10  and  C_11
REMARK    6  A    between atoms: C_10  and  C_18
REMARK    7  A    between atoms: C_24  and  O_25
REMARK                            x       y       z     vdW  Elec       q    Type
REMARK                         _______ _______ _______ _____ _____    ______ ____
ROOT
ATOM      1  N   UNL     1       4.238   7.184  18.284  0.00  0.00    +0.000 NA
ATOM      2  C   UNL     1       3.081   6.829  18.754  0.00  0.00    +0.000 C 
ENDROOT
BRANCH   2   3
ATOM      3  C   UNL     1       2.582   5.418  18.893  0.00  0.00    +0.000 A 
ATOM      4  C   UNL     1       1.885   4.824  17.839  0.00  0.00    +0.000 A 
ATOM      5  C   UNL     1       1.341   3.542  17.940  0.00  0.00    +0.000 A 
ATOM      6  C   UNL     1       1.606   2.782  19.069  0.00  0.00    +0.000 A 
ATOM      7 CL   UNL     1       0.984   1.182  19.181  0.00  0.00    +0.000 Cl
ATOM      8  C   UNL     1       2.393   3.303  20.094  0.00  0.00    +0.000 A 
ATOM      9  C   UNL     1       2.849   4.630  20.023  0.00  0.00    +0.000 A 
ENDBRANCH   2   3
BRANCH   2  10
ATOM     10  C   UNL     1       2.147   7.958  19.143  0.00  0.00    +0.000 A 
ATOM     11  C   UNL     1       1.583   7.918  20.432  0.00  0.00    +0.000 A 
ATOM     12  C   UNL     1       0.775   8.963  20.895  0.00  0.00    +0.000 A 
ATOM     13  C   UNL     1       0.518  10.053  20.069  0.00  0.00    +0.000 A 
ATOM     14 CL   UNL     1      -0.461  11.350  20.639  0.00  0.00    +0.000 Cl
ATOM     15  C   UNL     1       1.051  10.102  18.777  0.00  0.00    +0.000 A 
ATOM     16  C   UNL     1       1.844   9.047  18.315  0.00  0.00    +0.000 A 
BRANCH  16  17
ATOM     17  O   UNL     1       2.309   9.098  17.030  0.00  0.00    +0.000 OA
ATOM     18  H   UNL     1       2.068   9.949  16.626  0.00  0.00    +0.000 HD
ENDBRANCH  16  17
ENDBRANCH   2  10
BRANCH   1  20
ATOM     19  C   UNL     1       6.655   6.916  17.776  0.00  0.00    +0.000 C 
ATOM     20  C   UNL     1       5.239   6.334  17.615  0.00  0.00    +0.000 C 
BRANCH  20  21
ATOM     21  C   UNL     1       4.962   6.347  16.094  0.00  0.00    +0.000 C 
BRANCH  21  22
ATOM     22  C   UNL     1       5.666   5.310  15.297  0.00  0.00    +0.000 A 
ATOM     23  C   UNL     1       5.270   4.011  15.055  0.00  0.00    +0.000 A 
ATOM     24  N   UNL     1       6.188   3.513  14.177  0.00  0.00    +0.000 N 
ATOM     25  C   UNL     1       7.084   4.510  13.909  0.00  0.00    +0.000 A 
ATOM     26  N   UNL     1       6.792   5.609  14.564  0.00  0.00    +0.000 NA
ATOM     27  H   UNL     1       6.191   2.590  13.769  0.00  0.00    +0.000 HD
ENDBRANCH  21  22
ENDBRANCH  20  21
ENDBRANCH   1  20
TORSDOF 6
ENDMDL
MODEL 5
REMARK VINA RESULT:      -6.8      3.142      5.484
REMARK  Name = 
REMARK  7 active torsions:
REMARK  status: ('A' for Active; 'I' for Inactive)
REMARK    1  A    between atoms: C_1  and  C_2
REMARK    2  A    between atoms: C_2  and  C_3
REMARK    3  A    between atoms: C_2  and  N_9
REMARK    4  A    between atoms: C_3  and  C_4
REMARK    5  A    between atoms: C_10  and  C_11
REMARK    6  A    between atoms: C_10  and  C_18
REMARK    7  A    between atoms: C_24  and  O_25
REMARK                            x       y       z     vdW  Elec       q    Type
REMARK                         _______ _______ _______ _____ _____    ______ ____
ROOT
ATOM      1  N   UNL     1       3.700   4.098  18.683  0.00  0.00    +0.000 NA
ATOM      2  C   UNL     1       3.996   5.148  17.981  0.00  0.00    +0.000 C 
ENDROOT
BRANCH   2   3
ATOM      3  C   UNL     1       5.015   5.211  16.877  0.00  0.00    +0.000 A 
ATOM      4  C   UNL     1       4.695   4.716  15.611  0.00  0.00    +0.000 A 
ATOM      5  C   UNL     1       5.625   4.688  14.570  0.00  0.00    +0.000 A 
ATOM      6  C   UNL     1       6.864   5.284  14.754  0.00  0.00    +0.000 A 
ATOM      7 CL   UNL     1       7.998   5.301  13.460  0.00  0.00    +0.000 Cl
ATOM      8  C   UNL     1       7.176   5.887  15.970  0.00  0.00    +0.000 A 
ATOM      9  C   UNL     1       6.270   5.819  17.041  0.00  0.00    +0.000 A 
ENDBRANCH   2   3
BRANCH   2  10
ATOM     10  C   UNL     1       3.277   6.428  18.361  0.00  0.00    +0.000 A 
ATOM     11  C   UNL     1       3.197   7.441  17.388  0.00  0.00    +0.000 A 
ATOM     12  C   UNL     1       2.482   8.618  17.634  0.00  0.00    +0.000 A 
ATOM     13  C   UNL     1       1.845   8.795  18.859  0.00  0.00    +0.000 A 
ATOM     14 CL   UNL     1       0.948  10.233  19.161  0.00  0.00    +0.000 Cl
ATOM     15  C   UNL     1       1.929   7.809  19.848  0.00  0.00    +0.000 A 
ATOM     16  C   UNL     1       2.660   6.642  19.601  0.00  0.00    +0.000 A 
BRANCH  16  17
ATOM     17  O   UNL     1       2.768   5.720  20.604  0.00  0.00    +0.000 OA
ATOM     18  H   UNL     1       2.802   6.170  21.465  0.00  0.00    +0.000 HD
ENDBRANCH  16  17
ENDBRANCH   2  10
BRANCH   1  20
ATOM     19  C   UNL     1       3.872   1.872  17.592  0.00  0.00    +0.000 C 
ATOM     20  C   UNL     1       4.397   2.799  18.703  0.00  0.00    +0.000 C 
BRANCH  20  21
ATOM     21  C   UNL     1       4.064   2.079  20.029  0.00  0.00    +0.000 C 
BRANCH  21  22
ATOM     22  C   UNL     1       2.758   2.425  20.646  0.00  0.00    +0.000 A 
ATOM     23  C   UNL     1       1.512   2.422  20.054  0.00  0.00    +0.000 A 
ATOM     24  N   UNL     1       0.634   2.691  21.062  0.00  0.00    +0.000 N 
ATOM     25  C   UNL     1       1.358   2.830  22.212  0.00  0.00    +0.000 A 
ATOM     26  N   UNL     1       2.642   2.667  21.996  0.00  0.00    +0.000 NA
ATOM     27  H   UNL     1      -0.371   2.744  20.986  0.00  0.00    +0.000 HD
ENDBRANCH  21  22
ENDBRANCH  20  21
ENDBRANCH   1  20
TORSDOF 6
ENDMDL
MODEL 6
REMARK VINA RESULT:      -6.6      2.052      5.290
REMARK  Name = 
REMARK  7 active torsions:
REMARK  status: ('A' for Active; 'I' for Inactive)
REMARK    1  A    between atoms: C_1  and  C_2
REMARK    2  A    between atoms: C_2  and  C_3
REMARK    3  A    between atoms: C_2  and  N_9
REMARK    4  A    between atoms: C_3  and  C_4
REMARK    5  A    between atoms: C_10  and  C_11
REMARK    6  A    between atoms: C_10  and  C_18
REMARK    7  A    between atoms: C_24  and  O_25
REMARK                            x       y       z     vdW  Elec       q    Type
REMARK                         _______ _______ _______ _____ _____    ______ ____
ROOT
ATOM      1  N   UNL     1       3.848   5.914  17.455  0.00  0.00    +0.000 NA
ATOM      2  C   UNL     1       2.933   6.222  18.323  0.00  0.00    +0.000 C 
ENDROOT
BRANCH   2   3
ATOM      3  C   UNL     1       2.344   7.588  18.535  0.00  0.00    +0.000 A 
ATOM      4  C   UNL     1       1.808   7.925  19.779  0.00  0.00    +0.000 A 
ATOM      5  C   UNL     1       1.188   9.155  20.009  0.00  0.00    +0.000 A 
ATOM      6  C   UNL     1       1.216  10.123  19.017  0.00  0.00    +0.000 A 
ATOM      7 CL   UNL     1       0.501  11.660  19.311  0.00  0.00    +0.000 Cl
ATOM      8  C   UNL     1       1.843   9.860  17.801  0.00  0.00    +0.000 A 
ATOM      9  C   UNL     1       2.373   8.585  17.546  0.00  0.00    +0.000 A 
ENDBRANCH   2   3
BRANCH   2  10
ATOM     10  C   UNL     1       2.471   5.097  19.228  0.00  0.00    +0.000 A 
ATOM     11  C   UNL     1       2.929   5.106  20.559  0.00  0.00    +0.000 A 
ATOM     12  C   UNL     1       2.485   4.149  21.478  0.00  0.00    +0.000 A 
ATOM     13  C   UNL     1       1.583   3.170  21.072  0.00  0.00    +0.000 A 
ATOM     14 CL   UNL     1       1.019   2.000  22.202  0.00  0.00    +0.000 Cl
ATOM     15  C   UNL     1       1.132   3.129  19.749  0.00  0.00    +0.000 A 
ATOM     16  C   UNL     1       1.593   4.079  18.831  0.00  0.00    +0.000 A 
BRANCH  16  17
ATOM     17  O   UNL     1       1.174   3.985  17.533  0.00  0.00    +0.000 OA
ATOM     18  H   UNL     1       0.789   3.107  17.374  0.00  0.00    +0.000 HD
ENDBRANCH  16  17
ENDBRANCH   2  10
BRANCH   1  20
ATOM     19  C   UNL     1       5.125   6.134  15.335  0.00  0.00    +0.000 C 
ATOM     20  C   UNL     1       4.646   6.831  16.621  0.00  0.00    +0.000 C 
BRANCH  20  21
ATOM     21  C   UNL     1       5.934   7.204  17.390  0.00  0.00    +0.000 C 
BRANCH  21  22
ATOM     22  C   UNL     1       6.787   6.066  17.819  0.00  0.00    +0.000 A 
ATOM     23  C   UNL     1       7.185   4.975  17.075  0.00  0.00    +0.000 A 
ATOM     24  N   UNL     1       8.049   4.289  17.877  0.00  0.00    +0.000 N 
ATOM     25  C   UNL     1       8.158   4.980  19.051  0.00  0.00    +0.000 A 
ATOM     26  N   UNL     1       7.414   6.061  19.044  0.00  0.00    +0.000 NA
ATOM     27  H   UNL     1       8.548   3.444  17.639  0.00  0.00    +0.000 HD
ENDBRANCH  21  22
ENDBRANCH  20  21
ENDBRANCH   1  20
TORSDOF 6
ENDMDL
MODEL 7
REMARK VINA RESULT:      -6.6      4.351      7.199
REMARK  Name = 
REMARK  7 active torsions:
REMARK  status: ('A' for Active; 'I' for Inactive)
REMARK    1  A    between atoms: C_1  and  C_2
REMARK    2  A    between atoms: C_2  and  C_3
REMARK    3  A    between atoms: C_2  and  N_9
REMARK    4  A    between atoms: C_3  and  C_4
REMARK    5  A    between atoms: C_10  and  C_11
REMARK    6  A    between atoms: C_10  and  C_18
REMARK    7  A    between atoms: C_24  and  O_25
REMARK                            x       y       z     vdW  Elec       q    Type
REMARK                         _______ _______ _______ _____ _____    ______ ____
ROOT
ATOM      1  N   UNL     1       0.748  10.690  20.640  0.00  0.00    +0.000 NA
ATOM      2  C   UNL     1       0.222  11.541  19.813  0.00  0.00    +0.000 C 
ENDROOT
BRANCH   2   3
ATOM      3  C   UNL     1      -1.170  11.477  19.249  0.00  0.00    +0.000 A 
ATOM      4  C   UNL     1      -1.438  10.644  18.162  0.00  0.00    +0.000 A 
ATOM      5  C   UNL     1      -2.696  10.598  17.557  0.00  0.00    +0.000 A 
ATOM      6  C   UNL     1      -3.746  11.301  18.127  0.00  0.00    +0.000 A 
ATOM      7 CL   UNL     1      -5.312  11.209  17.419  0.00  0.00    +0.000 Cl
ATOM      8  C   UNL     1      -3.539  12.055  19.279  0.00  0.00    +0.000 A 
ATOM      9  C   UNL     1      -2.248  12.173  19.818  0.00  0.00    +0.000 A 
ENDBRANCH   2   3
BRANCH   2  10
ATOM     10  C   UNL     1       1.130  12.663  19.347  0.00  0.00    +0.000 A 
ATOM     11  C   UNL     1       0.920  13.939  19.902  0.00  0.00    +0.000 A 
ATOM     12  C   UNL     1       1.766  15.008  19.583  0.00  0.00    +0.000 A 
ATOM     13  C   UNL     1       2.825  14.810  18.702  0.00  0.00    +0.000 A 
ATOM     14 CL   UNL     1       3.880  16.117  18.321  0.00  0.00    +0.000 Cl
ATOM     15  C   UNL     1       3.038  13.555  18.123  0.00  0.00    +0.000 A 
ATOM     16  C   UNL     1       2.179  12.496  18.433  0.00  0.00    +0.000 A 
BRANCH  16  17
ATOM     17  O   UNL     1       2.381  11.294  17.813  0.00  0.00    +0.000 OA
ATOM     18  H   UNL     1       3.306  11.223  17.525  0.00  0.00    +0.000 HD
ENDBRANCH  16  17
ENDBRANCH   2  10
BRANCH   1  20
ATOM     19  C   UNL     1      -0.492   9.508  22.439  0.00  0.00    +0.000 C 
ATOM     20  C   UNL     1       0.199   9.391  21.069  0.00  0.00    +0.000 C 
BRANCH  20  21
ATOM     21  C   UNL     1       1.369   8.405  21.283  0.00  0.00    +0.000 C 
BRANCH  21  22
ATOM     22  C   UNL     1       1.912   7.765  20.057  0.00  0.00    +0.000 A 
ATOM     23  C   UNL     1       2.271   6.445  19.876  0.00  0.00    +0.000 A 
ATOM     24  N   UNL     1       2.590   6.338  18.555  0.00  0.00    +0.000 N 
ATOM     25  C   UNL     1       2.403   7.566  17.984  0.00  0.00    +0.000 A 
ATOM     26  N   UNL     1       1.987   8.447  18.864  0.00  0.00    +0.000 NA
ATOM     27  H   UNL     1       2.877   5.499  18.071  0.00  0.00    +0.000 HD
ENDBRANCH  21  22
ENDBRANCH  20  21
ENDBRANCH   1  20
TORSDOF 6
ENDMDL
MODEL 8
REMARK VINA RESULT:      -6.6      1.473      1.813
REMARK  Name = 
REMARK  7 active torsions:
REMARK  status: ('A' for Active; 'I' for Inactive)
REMARK    1  A    between atoms: C_1  and  C_2
REMARK    2  A    between atoms: C_2  and  C_3
REMARK    3  A    between atoms: C_2  and  N_9
REMARK    4  A    between atoms: C_3  and  C_4
REMARK    5  A    between atoms: C_10  and  C_11
REMARK    6  A    between atoms: C_10  and  C_18
REMARK    7  A    between atoms: C_24  and  O_25
REMARK                            x       y       z     vdW  Elec       q    Type
REMARK                         _______ _______ _______ _____ _____    ______ ____
ROOT
ATOM      1  N   UNL     1       3.648   7.003  18.177  0.00  0.00    +0.000 NA
ATOM      2  C   UNL     1       2.692   6.915  19.049  0.00  0.00    +0.000 C 
ENDROOT
BRANCH   2   3
ATOM      3  C   UNL     1       2.290   5.673  19.794  0.00  0.00    +0.000 A 
ATOM      4  C   UNL     1       1.379   4.785  19.218  0.00  0.00    +0.000 A 
ATOM      5  C   UNL     1       0.921   3.652  19.895  0.00  0.00    +0.000 A 
ATOM      6  C   UNL     1       1.478   3.326  21.122  0.00  0.00    +0.000 A 
ATOM      7 CL   UNL     1       0.957   1.904  21.938  0.00  0.00    +0.000 Cl
ATOM      8  C   UNL     1       2.471   4.130  21.675  0.00  0.00    +0.000 A 
ATOM      9  C   UNL     1       2.850   5.320  21.032  0.00  0.00    +0.000 A 
ENDBRANCH   2   3
BRANCH   2  10
ATOM     10  C   UNL     1       1.886   8.178  19.282  0.00  0.00    +0.000 A 
ATOM     11  C   UNL     1       1.306   8.352  20.552  0.00  0.00    +0.000 A 
ATOM     12  C   UNL     1       0.615   9.527  20.871  0.00  0.00    +0.000 A 
ATOM     13  C   UNL     1       0.494  10.535  19.920  0.00  0.00    +0.000 A 
ATOM     14 CL   UNL     1      -0.339  11.990  20.312  0.00  0.00    +0.000 Cl
ATOM     15  C   UNL     1       1.045  10.374  18.645  0.00  0.00    +0.000 A 
ATOM     16  C   UNL     1       1.719   9.190  18.327  0.00  0.00    +0.000 A 
BRANCH  16  17
ATOM     17  O   UNL     1       2.203   9.039  17.057  0.00  0.00    +0.000 OA
ATOM     18  H   UNL     1       3.079   8.619  17.086  0.00  0.00    +0.000 HD
ENDBRANCH  16  17
ENDBRANCH   2  10
BRANCH   1  20
ATOM     19  C   UNL     1       5.577   5.471  18.507  0.00  0.00    +0.000 C 
ATOM     20  C   UNL     1       4.429   5.904  17.579  0.00  0.00    +0.000 C 
BRANCH  20  21
ATOM     21  C   UNL     1       5.113   6.425  16.295  0.00  0.00    +0.000 C 
BRANCH  21  22
ATOM     22  C   UNL     1       5.812   5.406  15.471  0.00  0.00    +0.000 A 
ATOM     23  C   UNL     1       5.304   4.225  14.971  0.00  0.00    +0.000 A 
ATOM     24  N   UNL     1       6.295   3.712  14.187  0.00  0.00    +0.000 N 
ATOM     25  C   UNL     1       7.344   4.586  14.224  0.00  0.00    +0.000 A 
ATOM     26  N   UNL     1       7.081   5.623  14.984  0.00  0.00    +0.000 NA
ATOM     27  H   UNL     1       6.254   2.860  13.647  0.00  0.00    +0.000 HD
ENDBRANCH  21  22
ENDBRANCH  20  21
ENDBRANCH   1  20
TORSDOF 6
ENDMDL
MODEL 9
REMARK VINA RESULT:      -6.5      4.261      7.061
REMARK  Name = 
REMARK  7 active torsions:
REMARK  status: ('A' for Active; 'I' for Inactive)
REMARK    1  A    between atoms: C_1  and  C_2
REMARK    2  A    between atoms: C_2  and  C_3
REMARK    3  A    between atoms: C_2  and  N_9
REMARK    4  A    between atoms: C_3  and  C_4
REMARK    5  A    between atoms: C_10  and  C_11
REMARK    6  A    between atoms: C_10  and  C_18
REMARK    7  A    between atoms: C_24  and  O_25
REMARK                            x       y       z     vdW  Elec       q    Type
REMARK                         _______ _______ _______ _____ _____    ______ ____
ROOT
ATOM      1  N   UNL     1       0.857  10.568  20.984  0.00  0.00    +0.000 NA
ATOM      2  C   UNL     1       0.477  11.376  20.042  0.00  0.00    +0.000 C 
ENDROOT
BRANCH   2   3
ATOM      3  C   UNL     1      -0.763  11.231  19.205  0.00  0.00    +0.000 A 
ATOM      4  C   UNL     1      -1.869  12.044  19.459  0.00  0.00    +0.000 A 
ATOM      5  C   UNL     1      -3.068  11.904  18.756  0.00  0.00    +0.000 A 
ATOM      6  C   UNL     1      -3.126  11.022  17.688  0.00  0.00    +0.000 A 
ATOM      7 CL   UNL     1      -4.582  10.881  16.783  0.00  0.00    +0.000 Cl
ATOM      8  C   UNL     1      -2.005  10.275  17.335  0.00  0.00    +0.000 A 
ATOM      9  C   UNL     1      -0.838  10.351  18.113  0.00  0.00    +0.000 A 
ENDBRANCH   2   3
BRANCH   2  10
ATOM     10  C   UNL     1       1.409  12.534  19.743  0.00  0.00    +0.000 A 
ATOM     11  C   UNL     1       2.093  12.514  18.513  0.00  0.00    +0.000 A 
ATOM     12  C   UNL     1       2.909  13.583  18.128  0.00  0.00    +0.000 A 
ATOM     13  C   UNL     1       3.055  14.679  18.974  0.00  0.00    +0.000 A 
ATOM     14 CL   UNL     1       4.043  16.005  18.498  0.00  0.00    +0.000 Cl
ATOM     15  C   UNL     1       2.401  14.709  20.209  0.00  0.00    +0.000 A 
ATOM     16  C   UNL     1       1.600  13.629  20.595  0.00  0.00    +0.000 A 
BRANCH  16  17
ATOM     17  O   UNL     1       1.014  13.664  21.830  0.00  0.00    +0.000 OA
ATOM     18  H   UNL     1       1.686  13.849  22.508  0.00  0.00    +0.000 HD
ENDBRANCH  16  17
ENDBRANCH   2  10
BRANCH   1  20
ATOM     19  C   UNL     1      -0.359   9.273  22.721  0.00  0.00    +0.000 C 
ATOM     20  C   UNL     1       0.291   9.251  21.327  0.00  0.00    +0.000 C 
BRANCH  20  21
ATOM     21  C   UNL     1       1.444   8.227  21.429  0.00  0.00    +0.000 C 
BRANCH  21  22
ATOM     22  C   UNL     1       1.843   7.569  20.159  0.00  0.00    +0.000 A 
ATOM     23  C   UNL     1       2.101   8.160  18.939  0.00  0.00    +0.000 A 
ATOM     24  N   UNL     1       2.542   7.150  18.136  0.00  0.00    +0.000 N 
ATOM     25  C   UNL     1       2.552   6.005  18.882  0.00  0.00    +0.000 A 
ATOM     26  N   UNL     1       2.142   6.226  20.109  0.00  0.00    +0.000 NA
ATOM     27  H   UNL     1       2.842   7.233  17.176  0.00  0.00    +0.000 HD
ENDBRANCH  21  22
ENDBRANCH  20  21
ENDBRANCH   1  20
TORSDOF 6
ENDMDL
