MODEL 1
REMARK VINA RESULT:      -6.9      0.000      0.000
REMARK  Name = 
REMARK  5 active torsions:
REMARK  status: ('A' for Active; 'I' for Inactive)
REMARK    1  A    between atoms: C_2  and  C_13
REMARK    2  A    between atoms: N_3  and  C_4
REMARK    3  A    between atoms: C_4  and  C_5
REMARK    4  A    between atoms: C_5  and  O_6
REMARK    5  A    between atoms: O_6  and  C_7
REMARK                            x       y       z     vdW  Elec       q    Type
REMARK                         _______ _______ _______ _____ _____    ______ ____
ROOT
ATOM      1  O   UNL     1       5.728   3.944  18.830  0.00  0.00    +0.000 OA
ATOM      2  C   UNL     1       5.072   4.168  17.820  0.00  0.00    +0.000 C 
ATOM      3  N   UNL     1       3.693   4.207  17.776  0.00  0.00    +0.000 N 
ATOM      4  H   UNL     1       3.243   4.139  16.874  0.00  0.00    +0.000 HD
ENDROOT
BRANCH   2   5
ATOM      5  C   UNL     1       5.794   4.413  16.554  0.00  0.00    +0.000 A 
ATOM      6  C   UNL     1       6.851   5.315  16.565  0.00  0.00    +0.000 A 
ATOM      7  N   UNL     1       7.575   5.641  15.464  0.00  0.00    +0.000 NA
ATOM      8  C   UNL     1       7.209   5.052  14.305  0.00  0.00    +0.000 A 
ATOM      9  C   UNL     1       6.157   4.155  14.199  0.00  0.00    +0.000 A 
ATOM     10 BR   UNL     1       5.699   3.399  12.531  0.00  0.00    +0.000 Br
ATOM     11  C   UNL     1       5.432   3.827  15.340  0.00  0.00    +0.000 A 
ENDBRANCH   2   5
BRANCH   3  12
ATOM     12  C   UNL     1       2.852   3.898  18.929  0.00  0.00    +0.000 C 
BRANCH  12  13
ATOM     13  C   UNL     1       2.424   5.103  19.768  0.00  0.00    +0.000 C 
BRANCH  13  14
ATOM     14  O   UNL     1       3.131   6.270  19.343  0.00  0.00    +0.000 OA
BRANCH  14  15
ATOM     15  C   UNL     1       2.368   7.408  19.293  0.00  0.00    +0.000 A 
ATOM     16  C   UNL     1       2.259   7.991  18.030  0.00  0.00    +0.000 A 
ATOM     17  C   UNL     1       1.530   9.168  17.856  0.00  0.00    +0.000 A 
ATOM     18  C   UNL     1       0.890   9.761  18.942  0.00  0.00    +0.000 A 
ATOM     19  C   UNL     1       0.970   9.169  20.201  0.00  0.00    +0.000 A 
ATOM     20  C   UNL     1       1.706   7.995  20.378  0.00  0.00    +0.000 A 
ENDBRANCH  14  15
ENDBRANCH  13  14
ENDBRANCH  12  13
ENDBRANCH   3  12
TORSDOF 5
ENDMDL
MODEL 2
REMARK VINA RESULT:      -6.9      3.511      6.251
REMARK  Name = 
REMARK  5 active torsions:
REMARK  status: ('A' for Active; 'I' for Inactive)
REMARK    1  A    between atoms: C_2  and  C_13
REMARK    2  A    between atoms: N_3  and  C_4
REMARK    3  A    between atoms: C_4  and  C_5
REMARK    4  A    between atoms: C_5  and  O_6
REMARK    5  A    between atoms: O_6  and  C_7
REMARK                            x       y       z     vdW  Elec       q    Type
REMARK                         _______ _______ _______ _____ _____    ______ ____
ROOT
ATOM      1  O   UNL     1       3.841   5.737  19.811  0.00  0.00    +0.000 OA
ATOM      2  C   UNL     1       3.361   6.173  18.772  0.00  0.00    +0.000 C 
ATOM      3  N   UNL     1       3.521   5.588  17.532  0.00  0.00    +0.000 N 
ATOM      4  H   UNL     1       3.317   6.145  16.713  0.00  0.00    +0.000 HD
ENDROOT
BRANCH   2   5
ATOM      5  C   UNL     1       2.557   7.411  18.836  0.00  0.00    +0.000 A 
ATOM      6  C   UNL     1       2.537   8.239  17.719  0.00  0.00    +0.000 A 
ATOM      7  N   UNL     1       1.856   9.411  17.662  0.00  0.00    +0.000 NA
ATOM      8  C   UNL     1       1.186   9.774  18.778  0.00  0.00    +0.000 A 
ATOM      9  C   UNL     1       1.165   9.020  19.941  0.00  0.00    +0.000 A 
ATOM     10 BR   UNL     1       0.221   9.618  21.462  0.00  0.00    +0.000 Br
ATOM     11  C   UNL     1       1.862   7.816  19.977  0.00  0.00    +0.000 A 
ENDBRANCH   2   5
BRANCH   3  12
ATOM     12  C   UNL     1       4.360   4.415  17.308  0.00  0.00    +0.000 C 
BRANCH  12  13
ATOM     13  C   UNL     1       3.609   3.134  16.943  0.00  0.00    +0.000 C 
BRANCH  13  14
ATOM     14  O   UNL     1       3.733   2.177  17.998  0.00  0.00    +0.000 OA
BRANCH  14  15
ATOM     15  C   UNL     1       2.977   2.456  19.108  0.00  0.00    +0.000 A 
ATOM     16  C   UNL     1       1.639   2.757  18.851  0.00  0.00    +0.000 A 
ATOM     17  C   UNL     1       0.776   3.083  19.897  0.00  0.00    +0.000 A 
ATOM     18  C   UNL     1       1.241   3.093  21.210  0.00  0.00    +0.000 A 
ATOM     19  C   UNL     1       2.569   2.765  21.478  0.00  0.00    +0.000 A 
ATOM     20  C   UNL     1       3.436   2.447  20.430  0.00  0.00    +0.000 A 
ENDBRANCH  14  15
ENDBRANCH  13  14
ENDBRANCH  12  13
ENDBRANCH   3  12
TORSDOF 5
ENDMDL
MODEL 3
REMARK VINA RESULT:      -6.9      3.748      7.097
REMARK  Name = 
REMARK  5 active torsions:
REMARK  status: ('A' for Active; 'I' for Inactive)
REMARK    1  A    between atoms: C_2  and  C_13
REMARK    2  A    between atoms: N_3  and  C_4
REMARK    3  A    between atoms: C_4  and  C_5
REMARK    4  A    between atoms: C_5  and  O_6
REMARK    5  A    between atoms: O_6  and  C_7
REMARK                            x       y       z     vdW  Elec       q    Type
REMARK                         _______ _______ _______ _____ _____    ______ ____
ROOT
ATOM      1  O   UNL     1       4.094   6.488  17.862  0.00  0.00    +0.000 OA
ATOM      2  C   UNL     1       4.313   5.320  18.160  0.00  0.00    +0.000 C 
ATOM      3  N   UNL     1       5.565   4.736  18.163  0.00  0.00    +0.000 N 
ATOM      4  H   UNL     1       5.619   3.727  18.166  0.00  0.00    +0.000 HD
ENDROOT
BRANCH   2   5
ATOM      5  C   UNL     1       3.170   4.465  18.542  0.00  0.00    +0.000 A 
ATOM      6  C   UNL     1       2.233   4.147  17.566  0.00  0.00    +0.000 A 
ATOM      7  N   UNL     1       1.131   3.390  17.798  0.00  0.00    +0.000 NA
ATOM      8  C   UNL     1       0.953   2.956  19.064  0.00  0.00    +0.000 A 
ATOM      9  C   UNL     1       1.826   3.240  20.103  0.00  0.00    +0.000 A 
ATOM     10 BR   UNL     1       1.484   2.611  21.850  0.00  0.00    +0.000 Br
ATOM     11  C   UNL     1       2.956   4.009  19.844  0.00  0.00    +0.000 A 
ENDBRANCH   2   5
BRANCH   3  12
ATOM     12  C   UNL     1       6.769   5.435  17.724  0.00  0.00    +0.000 C 
BRANCH  12  13
ATOM     13  C   UNL     1       7.522   4.776  16.567  0.00  0.00    +0.000 C 
BRANCH  13  14
ATOM     14  O   UNL     1       7.480   5.618  15.413  0.00  0.00    +0.000 OA
BRANCH  14  15
ATOM     15  C   UNL     1       7.119   4.976  14.256  0.00  0.00    +0.000 A 
ATOM     16  C   UNL     1       5.966   4.196  14.348  0.00  0.00    +0.000 A 
ATOM     17  C   UNL     1       5.512   3.474  13.244  0.00  0.00    +0.000 A 
ATOM     18  C   UNL     1       6.199   3.541  12.034  0.00  0.00    +0.000 A 
ATOM     19  C   UNL     1       7.336   4.340  11.926  0.00  0.00    +0.000 A 
ATOM     20  C   UNL     1       7.795   5.057  13.033  0.00  0.00    +0.000 A 
ENDBRANCH  14  15
ENDBRANCH  13  14
ENDBRANCH  12  13
ENDBRANCH   3  12
TORSDOF 5
ENDMDL
MODEL 4
REMARK VINA RESULT:      -6.8      4.209      6.946
REMARK  Name = 
REMARK  5 active torsions:
REMARK  status: ('A' for Active; 'I' for Inactive)
REMARK    1  A    between atoms: C_2  and  C_13
REMARK    2  A    between atoms: N_3  and  C_4
REMARK    3  A    between atoms: C_4  and  C_5
REMARK    4  A    between atoms: C_5  and  O_6
REMARK    5  A    between atoms: O_6  and  C_7
REMARK                            x       y       z     vdW  Elec       q    Type
REMARK                         _______ _______ _______ _____ _____    ______ ____
ROOT
ATOM      1  O   UNL     1       5.636   5.135  19.601  0.00  0.00    +0.000 OA
ATOM      2  C   UNL     1       5.369   4.288  18.758  0.00  0.00    +0.000 C 
ATOM      3  N   UNL     1       6.121   4.049  17.624  0.00  0.00    +0.000 N 
ATOM      4  H   UNL     1       5.694   3.526  16.872  0.00  0.00    +0.000 HD
ENDROOT
BRANCH   2   5
ATOM      5  C   UNL     1       4.162   3.458  18.954  0.00  0.00    +0.000 A 
ATOM      6  C   UNL     1       3.677   2.739  17.868  0.00  0.00    +0.000 A 
ATOM      7  N   UNL     1       2.566   1.961  17.915  0.00  0.00    +0.000 NA
ATOM      8  C   UNL     1       1.907   1.922  19.094  0.00  0.00    +0.000 A 
ATOM      9  C   UNL     1       2.308   2.620  20.222  0.00  0.00    +0.000 A 
ATOM     10 BR   UNL     1       1.310   2.527  21.821  0.00  0.00    +0.000 Br
ATOM     11  C   UNL     1       3.455   3.406  20.157  0.00  0.00    +0.000 A 
ENDBRANCH   2   5
BRANCH   3  12
ATOM     12  C   UNL     1       7.286   4.849  17.259  0.00  0.00    +0.000 C 
BRANCH  12  13
ATOM     13  C   UNL     1       7.032   5.932  16.210  0.00  0.00    +0.000 C 
BRANCH  13  14
ATOM     14  O   UNL     1       7.746   5.627  15.010  0.00  0.00    +0.000 OA
BRANCH  14  15
ATOM     15  C   UNL     1       7.035   4.888  14.099  0.00  0.00    +0.000 A 
ATOM     16  C   UNL     1       7.667   4.699  12.870  0.00  0.00    +0.000 A 
ATOM     17  C   UNL     1       7.032   3.987  11.852  0.00  0.00    +0.000 A 
ATOM     18  C   UNL     1       5.768   3.442  12.064  0.00  0.00    +0.000 A 
ATOM     19  C   UNL     1       5.142   3.602  13.299  0.00  0.00    +0.000 A 
ATOM     20  C   UNL     1       5.774   4.322  14.315  0.00  0.00    +0.000 A 
ENDBRANCH  14  15
ENDBRANCH  13  14
ENDBRANCH  12  13
ENDBRANCH   3  12
TORSDOF 5
ENDMDL
MODEL 5
REMARK VINA RESULT:      -6.8      0.973      1.689
REMARK  Name = 
REMARK  5 active torsions:
REMARK  status: ('A' for Active; 'I' for Inactive)
REMARK    1  A    between atoms: C_2  and  C_13
REMARK    2  A    between atoms: N_3  and  C_4
REMARK    3  A    between atoms: C_4  and  C_5
REMARK    4  A    between atoms: C_5  and  O_6
REMARK    5  A    between atoms: O_6  and  C_7
REMARK                            x       y       z     vdW  Elec       q    Type
REMARK                         _______ _______ _______ _____ _____    ______ ____
ROOT
ATOM      1  O   UNL     1       5.461   4.036  18.746  0.00  0.00    +0.000 OA
ATOM      2  C   UNL     1       5.022   3.727  17.645  0.00  0.00    +0.000 C 
ATOM      3  N   UNL     1       3.845   3.035  17.440  0.00  0.00    +0.000 N 
ATOM      4  H   UNL     1       3.697   2.605  16.537  0.00  0.00    +0.000 HD
ENDROOT
BRANCH   2   5
ATOM      5  C   UNL     1       5.796   4.112  16.447  0.00  0.00    +0.000 A 
ATOM      6  C   UNL     1       6.787   5.076  16.587  0.00  0.00    +0.000 A 
ATOM      7  N   UNL     1       7.549   5.528  15.559  0.00  0.00    +0.000 NA
ATOM      8  C   UNL     1       7.289   5.006  14.341  0.00  0.00    +0.000 A 
ATOM      9  C   UNL     1       6.308   4.055  14.106  0.00  0.00    +0.000 A 
ATOM     10 BR   UNL     1       5.997   3.400  12.363  0.00  0.00    +0.000 Br
ATOM     11  C   UNL     1       5.544   3.597  15.174  0.00  0.00    +0.000 A 
ENDBRANCH   2   5
BRANCH   3  12
ATOM     12  C   UNL     1       3.026   2.516  18.531  0.00  0.00    +0.000 C 
BRANCH  12  13
ATOM     13  C   UNL     1       1.839   3.394  18.932  0.00  0.00    +0.000 C 
BRANCH  13  14
ATOM     14  O   UNL     1       2.233   4.310  19.956  0.00  0.00    +0.000 OA
BRANCH  14  15
ATOM     15  C   UNL     1       2.176   5.630  19.587  0.00  0.00    +0.000 A 
ATOM     16  C   UNL     1       1.834   6.515  20.611  0.00  0.00    +0.000 A 
ATOM     17  C   UNL     1       1.718   7.881  20.353  0.00  0.00    +0.000 A 
ATOM     18  C   UNL     1       1.962   8.375  19.073  0.00  0.00    +0.000 A 
ATOM     19  C   UNL     1       2.332   7.501  18.053  0.00  0.00    +0.000 A 
ATOM     20  C   UNL     1       2.440   6.133  18.308  0.00  0.00    +0.000 A 
ENDBRANCH  14  15
ENDBRANCH  13  14
ENDBRANCH  12  13
ENDBRANCH   3  12
TORSDOF 5
ENDMDL
MODEL 6
REMARK VINA RESULT:      -6.8      2.014      3.302
REMARK  Name = 
REMARK  5 active torsions:
REMARK  status: ('A' for Active; 'I' for Inactive)
REMARK    1  A    between atoms: C_2  and  C_13
REMARK    2  A    between atoms: N_3  and  C_4
REMARK    3  A    between atoms: C_4  and  C_5
REMARK    4  A    between atoms: C_5  and  O_6
REMARK    5  A    between atoms: O_6  and  C_7
REMARK                            x       y       z     vdW  Elec       q    Type
REMARK                         _______ _______ _______ _____ _____    ______ ____
ROOT
ATOM      1  O   UNL     1       4.732   3.473  17.034  0.00  0.00    +0.000 OA
ATOM      2  C   UNL     1       5.260   4.499  16.625  0.00  0.00    +0.000 C 
ATOM      3  N   UNL     1       5.261   5.702  17.304  0.00  0.00    +0.000 N 
ATOM      4  H   UNL     1       5.486   6.540  16.786  0.00  0.00    +0.000 HD
ENDROOT
BRANCH   2   5
ATOM      5  C   UNL     1       5.944   4.464  15.315  0.00  0.00    +0.000 A 
ATOM      6  C   UNL     1       7.034   5.303  15.121  0.00  0.00    +0.000 A 
ATOM      7  N   UNL     1       7.729   5.379  13.959  0.00  0.00    +0.000 NA
ATOM      8  C   UNL     1       7.299   4.595  12.947  0.00  0.00    +0.000 A 
ATOM      9  C   UNL     1       6.210   3.742  13.046  0.00  0.00    +0.000 A 
ATOM     10 BR   UNL     1       5.663   2.700  11.569  0.00  0.00    +0.000 Br
ATOM     11  C   UNL     1       5.516   3.671  14.249  0.00  0.00    +0.000 A 
ENDBRANCH   2   5
BRANCH   3  12
ATOM     12  C   UNL     1       4.551   5.905  18.563  0.00  0.00    +0.000 C 
BRANCH  12  13
ATOM     13  C   UNL     1       3.205   6.622  18.447  0.00  0.00    +0.000 C 
BRANCH  13  14
ATOM     14  O   UNL     1       2.213   5.723  17.949  0.00  0.00    +0.000 OA
BRANCH  14  15
ATOM     15  C   UNL     1       1.856   4.730  18.826  0.00  0.00    +0.000 A 
ATOM     16  C   UNL     1       1.528   3.510  18.235  0.00  0.00    +0.000 A 
ATOM     17  C   UNL     1       1.123   2.431  19.021  0.00  0.00    +0.000 A 
ATOM     18  C   UNL     1       1.061   2.560  20.407  0.00  0.00    +0.000 A 
ATOM     19  C   UNL     1       1.415   3.767  21.007  0.00  0.00    +0.000 A 
ATOM     20  C   UNL     1       1.812   4.850  20.219  0.00  0.00    +0.000 A 
ENDBRANCH  14  15
ENDBRANCH  13  14
ENDBRANCH  12  13
ENDBRANCH   3  12
TORSDOF 5
ENDMDL
MODEL 7
REMARK VINA RESULT:      -6.7      2.515      3.602
REMARK  Name = 
REMARK  5 active torsions:
REMARK  status: ('A' for Active; 'I' for Inactive)
REMARK    1  A    between atoms: C_2  and  C_13
REMARK    2  A    between atoms: N_3  and  C_4
REMARK    3  A    between atoms: C_4  and  C_5
REMARK    4  A    between atoms: C_5  and  O_6
REMARK    5  A    between atoms: O_6  and  C_7
REMARK                            x       y       z     vdW  Elec       q    Type
REMARK                         _______ _______ _______ _____ _____    ______ ____
ROOT
ATOM      1  O   UNL     1       7.932   4.548  16.965  0.00  0.00    +0.000 OA
ATOM      2  C   UNL     1       6.938   4.820  16.304  0.00  0.00    +0.000 C 
ATOM      3  N   UNL     1       5.737   5.247  16.838  0.00  0.00    +0.000 N 
ATOM      4  H   UNL     1       4.913   5.197  16.255  0.00  0.00    +0.000 HD
ENDROOT
BRANCH   2   5
ATOM      5  C   UNL     1       7.012   4.685  14.835  0.00  0.00    +0.000 A 
ATOM      6  C   UNL     1       7.950   5.451  14.152  0.00  0.00    +0.000 A 
ATOM      7  N   UNL     1       8.100   5.433  12.803  0.00  0.00    +0.000 NA
ATOM      8  C   UNL     1       7.261   4.629  12.114  0.00  0.00    +0.000 A 
ATOM      9  C   UNL     1       6.285   3.845  12.711  0.00  0.00    +0.000 A 
ATOM     10 BR   UNL     1       5.139   2.770  11.666  0.00  0.00    +0.000 Br
ATOM     11  C   UNL     1       6.153   3.870  14.095  0.00  0.00    +0.000 A 
ENDBRANCH   2   5
BRANCH   3  12
ATOM     12  C   UNL     1       5.494   5.341  18.274  0.00  0.00    +0.000 C 
BRANCH  12  13
ATOM     13  C   UNL     1       4.173   6.001  18.671  0.00  0.00    +0.000 C 
BRANCH  13  14
ATOM     14  O   UNL     1       3.082   5.339  18.028  0.00  0.00    +0.000 OA
BRANCH  14  15
ATOM     15  C   UNL     1       2.359   4.511  18.848  0.00  0.00    +0.000 A 
ATOM     16  C   UNL     1       2.470   4.784  20.211  0.00  0.00    +0.000 A 
ATOM     17  C   UNL     1       1.802   3.994  21.147  0.00  0.00    +0.000 A 
ATOM     18  C   UNL     1       1.002   2.935  20.723  0.00  0.00    +0.000 A 
ATOM     19  C   UNL     1       0.863   2.673  19.362  0.00  0.00    +0.000 A 
ATOM     20  C   UNL     1       1.538   3.459  18.425  0.00  0.00    +0.000 A 
ENDBRANCH  14  15
ENDBRANCH  13  14
ENDBRANCH  12  13
ENDBRANCH   3  12
TORSDOF 5
ENDMDL
MODEL 8
REMARK VINA RESULT:      -6.7      1.947      3.364
REMARK  Name = 
REMARK  5 active torsions:
REMARK  status: ('A' for Active; 'I' for Inactive)
REMARK    1  A    between atoms: C_2  and  C_13
REMARK    2  A    between atoms: N_3  and  C_4
REMARK    3  A    between atoms: C_4  and  C_5
REMARK    4  A    between atoms: C_5  and  O_6
REMARK    5  A    between atoms: O_6  and  C_7
REMARK                            x       y       z     vdW  Elec       q    Type
REMARK                         _______ _______ _______ _____ _____    ______ ____
ROOT
ATOM      1  O   UNL     1       4.477   3.320  17.403  0.00  0.00    +0.000 OA
ATOM      2  C   UNL     1       5.147   4.326  17.205  0.00  0.00    +0.000 C 
ATOM      3  N   UNL     1       5.254   5.381  18.090  0.00  0.00    +0.000 N 
ATOM      4  H   UNL     1       5.606   6.261  17.740  0.00  0.00    +0.000 HD
ENDROOT
BRANCH   2   5
ATOM      5  C   UNL     1       5.894   4.433  15.934  0.00  0.00    +0.000 A 
ATOM      6  C   UNL     1       7.001   5.273  15.893  0.00  0.00    +0.000 A 
ATOM      7  N   UNL     1       7.754   5.473  14.781  0.00  0.00    +0.000 NA
ATOM      8  C   UNL     1       7.366   4.819  13.665  0.00  0.00    +0.000 A 
ATOM      9  C   UNL     1       6.267   3.977  13.611  0.00  0.00    +0.000 A 
ATOM     10 BR   UNL     1       5.783   3.123  11.998  0.00  0.00    +0.000 Br
ATOM     11  C   UNL     1       5.512   3.777  14.763  0.00  0.00    +0.000 A 
ENDBRANCH   2   5
BRANCH   3  12
ATOM     12  C   UNL     1       4.503   5.449  19.340  0.00  0.00    +0.000 C 
BRANCH  12  13
ATOM     13  C   UNL     1       3.432   6.538  19.400  0.00  0.00    +0.000 C 
BRANCH  13  14
ATOM     14  O   UNL     1       2.212   6.057  18.831  0.00  0.00    +0.000 OA
BRANCH  14  15
ATOM     15  C   UNL     1       1.833   4.814  19.272  0.00  0.00    +0.000 A 
ATOM     16  C   UNL     1       1.921   4.625  20.651  0.00  0.00    +0.000 A 
ATOM     17  C   UNL     1       1.587   3.394  21.217  0.00  0.00    +0.000 A 
ATOM     18  C   UNL     1       1.145   2.349  20.408  0.00  0.00    +0.000 A 
ATOM     19  C   UNL     1       1.027   2.540  19.033  0.00  0.00    +0.000 A 
ATOM     20  C   UNL     1       1.368   3.769  18.465  0.00  0.00    +0.000 A 
ENDBRANCH  14  15
ENDBRANCH  13  14
ENDBRANCH  12  13
ENDBRANCH   3  12
TORSDOF 5
ENDMDL
MODEL 9
REMARK VINA RESULT:      -6.6      1.424      1.913
REMARK  Name = 
REMARK  5 active torsions:
REMARK  status: ('A' for Active; 'I' for Inactive)
REMARK    1  A    between atoms: C_2  and  C_13
REMARK    2  A    between atoms: N_3  and  C_4
REMARK    3  A    between atoms: C_4  and  C_5
REMARK    4  A    between atoms: C_5  and  O_6
REMARK    5  A    between atoms: O_6  and  C_7
REMARK                            x       y       z     vdW  Elec       q    Type
REMARK                         _______ _______ _______ _____ _____    ______ ____
ROOT
ATOM      1  O   UNL     1       2.509   3.424  17.505  0.00  0.00    +0.000 OA
ATOM      2  C   UNL     1       3.494   3.746  18.158  0.00  0.00    +0.000 C 
ATOM      3  N   UNL     1       3.506   3.901  19.530  0.00  0.00    +0.000 N 
ATOM      4  H   UNL     1       4.274   4.410  19.945  0.00  0.00    +0.000 HD
ENDROOT
BRANCH   2   5
ATOM      5  C   UNL     1       4.763   3.991  17.441  0.00  0.00    +0.000 A 
ATOM      6  C   UNL     1       5.862   4.414  18.178  0.00  0.00    +0.000 A 
ATOM      7  N   UNL     1       7.073   4.693  17.633  0.00  0.00    +0.000 NA
ATOM      8  C   UNL     1       7.175   4.560  16.292  0.00  0.00    +0.000 A 
ATOM      9  C   UNL     1       6.127   4.161  15.478  0.00  0.00    +0.000 A 
ATOM     10 BR   UNL     1       6.354   4.028  13.608  0.00  0.00    +0.000 Br
ATOM     11  C   UNL     1       4.896   3.871  16.056  0.00  0.00    +0.000 A 
ENDBRANCH   2   5
BRANCH   3  12
ATOM     12  C   UNL     1       2.308   3.777  20.355  0.00  0.00    +0.000 C 
BRANCH  12  13
ATOM     13  C   UNL     1       1.461   5.046  20.472  0.00  0.00    +0.000 C 
BRANCH  13  14
ATOM     14  O   UNL     1       2.304   6.176  20.707  0.00  0.00    +0.000 OA
BRANCH  14  15
ATOM     15  C   UNL     1       2.100   7.224  19.847  0.00  0.00    +0.000 A 
ATOM     16  C   UNL     1       1.371   8.290  20.377  0.00  0.00    +0.000 A 
ATOM     17  C   UNL     1       1.075   9.403  19.590  0.00  0.00    +0.000 A 
ATOM     18  C   UNL     1       1.523   9.467  18.272  0.00  0.00    +0.000 A 
ATOM     19  C   UNL     1       2.276   8.420  17.745  0.00  0.00    +0.000 A 
ATOM     20  C   UNL     1       2.565   7.301  18.529  0.00  0.00    +0.000 A 
ENDBRANCH  14  15
ENDBRANCH  13  14
ENDBRANCH  12  13
ENDBRANCH   3  12
TORSDOF 5
ENDMDL
