MODEL 1
REMARK VINA RESULT:      -9.5      0.000      0.000
REMARK  Name = 
REMARK  8 active torsions:
REMARK  status: ('A' for Active; 'I' for Inactive)
REMARK    1  A    between atoms: C_1  and  C_2
REMARK    2  A    between atoms: C_2  and  C_3
REMARK    3  A    between atoms: C_2  and  N_5
REMARK    4  A    between atoms: C_3  and  O_4
REMARK    5  A    between atoms: N_5  and  C_6
REMARK    6  A    between atoms: C_6  and  C_7
REMARK    7  A    between atoms: C_21  and  N_22
REMARK    8  A    between atoms: C_25  and  C_26
REMARK                            x       y       z     vdW  Elec       q    Type
REMARK                         _______ _______ _______ _____ _____    ______ ____
ROOT
ATOM      1  N   UNL     1       2.959   4.800  19.075  0.00  0.00    +0.000 N 
ATOM      2  C   UNL     1       2.561   6.130  19.029  0.00  0.00    +0.000 A 
ATOM      3  N   UNL     1       2.786   6.833  17.912  0.00  0.00    +0.000 NA
ATOM      4  C   UNL     1       2.494   8.144  17.925  0.00  0.00    +0.000 A 
ATOM      5  C   UNL     1       1.958   8.784  19.008  0.00  0.00    +0.000 A 
ATOM      6  C   UNL     1       1.691   8.004  20.114  0.00  0.00    +0.000 A 
ATOM      7  N   UNL     1       1.978   6.691  20.099  0.00  0.00    +0.000 NA
ENDROOT
BRANCH   6   8
ATOM      8  N   UNL     1       1.038   8.617  21.209  0.00  0.00    +0.000 N 
ATOM      9  C   UNL     1       0.165   9.649  21.239  0.00  0.00    +0.000 A 
ATOM     10  C   UNL     1      -0.210  10.244  22.477  0.00  0.00    +0.000 A 
ATOM     11  C   UNL     1      -0.994  11.322  22.142  0.00  0.00    +0.000 A 
ATOM     12  N   UNL     1      -1.131  11.264  20.788  0.00  0.00    +0.000 N 
ATOM     13  N   UNL     1      -0.415  10.286  20.219  0.00  0.00    +0.000 NA
ATOM     14  H   UNL     1       1.222   8.135  22.077  0.00  0.00    +0.000 HD
ATOM     15  H   UNL     1      -1.658  11.884  20.185  0.00  0.00    +0.000 HD
BRANCH  11  16
ATOM     16  C   UNL     1      -1.576  12.399  23.032  0.00  0.00    +0.000 C 
ATOM     17  C   UNL     1      -2.682  13.289  22.513  0.00  0.00    +0.000 C 
ATOM     18  C   UNL     1      -3.004  12.232  23.513  0.00  0.00    +0.000 C 
ENDBRANCH  11  16
ENDBRANCH   6   8
BRANCH   1  20
ATOM     19  C   UNL     1       1.104   3.567  20.290  0.00  0.00    +0.000 C 
ATOM     20  C   UNL     1       2.588   3.964  20.242  0.00  0.00    +0.000 C 
BRANCH  20  21
ATOM     21  C   UNL     1       3.499   2.734  20.421  0.00  0.00    +0.000 C 
BRANCH  21  22
ATOM     22  O   UNL     1       3.337   2.166  21.725  0.00  0.00    +0.000 OA
ATOM     23  H   UNL     1       4.149   2.405  22.205  0.00  0.00    +0.000 HD
ENDBRANCH  21  22
ENDBRANCH  20  21
ENDBRANCH   1  20
BRANCH   1  24
ATOM     24  C   UNL     1       3.201   4.140  17.787  0.00  0.00    +0.000 C 
BRANCH  24  25
ATOM     25  C   UNL     1       4.622   4.338  17.288  0.00  0.00    +0.000 A 
ATOM     26  C   UNL     1       4.916   4.094  15.929  0.00  0.00    +0.000 A 
ATOM     27  C   UNL     1       6.219   4.157  15.446  0.00  0.00    +0.000 A 
ATOM     28  F   UNL     1       6.444   3.926  14.146  0.00  0.00    +0.000 F 
ATOM     29  C   UNL     1       7.302   4.433  16.275  0.00  0.00    +0.000 A 
ATOM     30  C   UNL     1       7.005   4.720  17.608  0.00  0.00    +0.000 A 
ATOM     31  N   UNL     1       7.817   5.011  18.673  0.00  0.00    +0.000 N 
ATOM     32  N   UNL     1       7.154   5.343  19.794  0.00  0.00    +0.000 NA
ATOM     33  C   UNL     1       5.874   5.166  19.454  0.00  0.00    +0.000 A 
ATOM     34  C   UNL     1       5.707   4.728  18.115  0.00  0.00    +0.000 A 
ATOM     35  H   UNL     1       8.830   5.005  18.697  0.00  0.00    +0.000 HD
ENDBRANCH  24  25
ENDBRANCH   1  24
TORSDOF 7
ENDMDL
MODEL 2
REMARK VINA RESULT:      -8.8      1.662      2.153
REMARK  Name = 
REMARK  8 active torsions:
REMARK  status: ('A' for Active; 'I' for Inactive)
REMARK    1  A    between atoms: C_1  and  C_2
REMARK    2  A    between atoms: C_2  and  C_3
REMARK    3  A    between atoms: C_2  and  N_5
REMARK    4  A    between atoms: C_3  and  O_4
REMARK    5  A    between atoms: N_5  and  C_6
REMARK    6  A    between atoms: C_6  and  C_7
REMARK    7  A    between atoms: C_21  and  N_22
REMARK    8  A    between atoms: C_25  and  C_26
REMARK                            x       y       z     vdW  Elec       q    Type
REMARK                         _______ _______ _______ _____ _____    ______ ____
ROOT
ATOM      1  N   UNL     1       2.871   5.123  19.503  0.00  0.00    +0.000 N 
ATOM      2  C   UNL     1       2.419   6.435  19.447  0.00  0.00    +0.000 A 
ATOM      3  N   UNL     1       2.794   7.204  18.416  0.00  0.00    +0.000 NA
ATOM      4  C   UNL     1       2.436   8.499  18.435  0.00  0.00    +0.000 A 
ATOM      5  C   UNL     1       1.693   9.058  19.436  0.00  0.00    +0.000 A 
ATOM      6  C   UNL     1       1.283   8.212  20.446  0.00  0.00    +0.000 A 
ATOM      7  N   UNL     1       1.635   6.915  20.424  0.00  0.00    +0.000 NA
ENDROOT
BRANCH   6   8
ATOM      8  N   UNL     1       0.424   8.739  21.438  0.00  0.00    +0.000 N 
ATOM      9  C   UNL     1      -0.203   9.936  21.505  0.00  0.00    +0.000 A 
ATOM     10  C   UNL     1      -0.857  10.344  22.702  0.00  0.00    +0.000 A 
ATOM     11  C   UNL     1      -1.270  11.635  22.471  0.00  0.00    +0.000 A 
ATOM     12  N   UNL     1      -0.951  11.891  21.172  0.00  0.00    +0.000 N 
ATOM     13  N   UNL     1      -0.277  10.895  20.581  0.00  0.00    +0.000 NA
ATOM     14  H   UNL     1       0.212   8.060  22.155  0.00  0.00    +0.000 HD
ATOM     15  H   UNL     1      -1.120  12.736  20.641  0.00  0.00    +0.000 HD
BRANCH  11  16
ATOM     16  C   UNL     1      -1.910  12.622  23.423  0.00  0.00    +0.000 C 
ATOM     17  C   UNL     1      -1.350  14.022  23.544  0.00  0.00    +0.000 C 
ATOM     18  C   UNL     1      -2.643  13.811  22.832  0.00  0.00    +0.000 C 
ENDBRANCH  11  16
ENDBRANCH   6   8
BRANCH   1  20
ATOM     19  C   UNL     1       0.889   3.786  20.351  0.00  0.00    +0.000 C 
ATOM     20  C   UNL     1       2.351   4.213  20.552  0.00  0.00    +0.000 C 
BRANCH  20  21
ATOM     21  C   UNL     1       3.259   2.993  20.800  0.00  0.00    +0.000 C 
BRANCH  21  22
ATOM     22  O   UNL     1       2.900   2.330  22.017  0.00  0.00    +0.000 OA
ATOM     23  H   UNL     1       1.934   2.430  22.080  0.00  0.00    +0.000 HD
ENDBRANCH  21  22
ENDBRANCH  20  21
ENDBRANCH   1  20
BRANCH   1  24
ATOM     24  C   UNL     1       3.361   4.542  18.248  0.00  0.00    +0.000 C 
BRANCH  24  25
ATOM     25  C   UNL     1       4.862   4.699  18.079  0.00  0.00    +0.000 A 
ATOM     26  C   UNL     1       5.645   5.081  19.189  0.00  0.00    +0.000 A 
ATOM     27  C   UNL     1       7.007   5.341  19.062  0.00  0.00    +0.000 A 
ATOM     28  F   UNL     1       7.706   5.692  20.149  0.00  0.00    +0.000 F 
ATOM     29  C   UNL     1       7.662   5.268  17.837  0.00  0.00    +0.000 A 
ATOM     30  C   UNL     1       6.897   4.843  16.749  0.00  0.00    +0.000 A 
ATOM     31  N   UNL     1       7.218   4.681  15.427  0.00  0.00    +0.000 N 
ATOM     32  N   UNL     1       6.235   4.143  14.686  0.00  0.00    +0.000 NA
ATOM     33  C   UNL     1       5.220   4.047  15.550  0.00  0.00    +0.000 A 
ATOM     34  C   UNL     1       5.547   4.514  16.849  0.00  0.00    +0.000 A 
ATOM     35  H   UNL     1       8.093   4.913  14.970  0.00  0.00    +0.000 HD
ENDBRANCH  24  25
ENDBRANCH   1  24
TORSDOF 7
ENDMDL
MODEL 3
REMARK VINA RESULT:      -8.7      1.908      2.444
REMARK  Name = 
REMARK  8 active torsions:
REMARK  status: ('A' for Active; 'I' for Inactive)
REMARK    1  A    between atoms: C_1  and  C_2
REMARK    2  A    between atoms: C_2  and  C_3
REMARK    3  A    between atoms: C_2  and  N_5
REMARK    4  A    between atoms: C_3  and  O_4
REMARK    5  A    between atoms: N_5  and  C_6
REMARK    6  A    between atoms: C_6  and  C_7
REMARK    7  A    between atoms: C_21  and  N_22
REMARK    8  A    between atoms: C_25  and  C_26
REMARK                            x       y       z     vdW  Elec       q    Type
REMARK                         _______ _______ _______ _____ _____    ______ ____
ROOT
ATOM      1  N   UNL     1       2.822   5.367  19.332  0.00  0.00    +0.000 N 
ATOM      2  C   UNL     1       2.536   6.679  18.979  0.00  0.00    +0.000 A 
ATOM      3  N   UNL     1       3.109   7.192  17.882  0.00  0.00    +0.000 NA
ATOM      4  C   UNL     1       2.907   8.494  17.617  0.00  0.00    +0.000 A 
ATOM      5  C   UNL     1       2.129   9.306  18.395  0.00  0.00    +0.000 A 
ATOM      6  C   UNL     1       1.515   8.716  19.480  0.00  0.00    +0.000 A 
ATOM      7  N   UNL     1       1.713   7.412  19.742  0.00  0.00    +0.000 NA
ENDROOT
BRANCH   6   8
ATOM      8  N   UNL     1       0.620   9.506  20.239  0.00  0.00    +0.000 N 
ATOM      9  C   UNL     1      -0.404  10.294  19.840  0.00  0.00    +0.000 A 
ATOM     10  C   UNL     1      -1.045  11.170  20.762  0.00  0.00    +0.000 A 
ATOM     11  C   UNL     1      -1.937  11.899  20.012  0.00  0.00    +0.000 A 
ATOM     12  N   UNL     1      -1.867  11.378  18.756  0.00  0.00    +0.000 N 
ATOM     13  N   UNL     1      -0.927  10.434  18.620  0.00  0.00    +0.000 NA
ATOM     14  H   UNL     1       0.753   9.380  21.232  0.00  0.00    +0.000 HD
ATOM     15  H   UNL     1      -2.395  11.649  17.935  0.00  0.00    +0.000 HD
BRANCH  11  16
ATOM     16  C   UNL     1      -2.809  13.065  20.425  0.00  0.00    +0.000 C 
ATOM     17  C   UNL     1      -2.756  13.579  21.846  0.00  0.00    +0.000 C 
ATOM     18  C   UNL     1      -2.132  14.381  20.755  0.00  0.00    +0.000 C 
ENDBRANCH  11  16
ENDBRANCH   6   8
BRANCH   1  20
ATOM     19  C   UNL     1       0.785   4.031  20.040  0.00  0.00    +0.000 C 
ATOM     20  C   UNL     1       2.088   4.733  20.453  0.00  0.00    +0.000 C 
BRANCH  20  21
ATOM     21  C   UNL     1       2.972   3.806  21.310  0.00  0.00    +0.000 C 
BRANCH  21  22
ATOM     22  O   UNL     1       2.168   2.955  22.134  0.00  0.00    +0.000 OA
ATOM     23  H   UNL     1       1.993   3.477  22.937  0.00  0.00    +0.000 HD
ENDBRANCH  21  22
ENDBRANCH  20  21
ENDBRANCH   1  20
BRANCH   1  24
ATOM     24  C   UNL     1       3.375   4.507  18.278  0.00  0.00    +0.000 C 
BRANCH  24  25
ATOM     25  C   UNL     1       4.879   4.657  18.132  0.00  0.00    +0.000 A 
ATOM     26  C   UNL     1       5.647   5.039  19.253  0.00  0.00    +0.000 A 
ATOM     27  C   UNL     1       7.011   5.293  19.146  0.00  0.00    +0.000 A 
ATOM     28  F   UNL     1       7.696   5.644  20.243  0.00  0.00    +0.000 F 
ATOM     29  C   UNL     1       7.685   5.213  17.931  0.00  0.00    +0.000 A 
ATOM     30  C   UNL     1       6.935   4.789  16.833  0.00  0.00    +0.000 A 
ATOM     31  N   UNL     1       7.275   4.622  15.516  0.00  0.00    +0.000 N 
ATOM     32  N   UNL     1       6.301   4.087  14.761  0.00  0.00    +0.000 NA
ATOM     33  C   UNL     1       5.272   3.998  15.610  0.00  0.00    +0.000 A 
ATOM     34  C   UNL     1       5.582   4.466  16.913  0.00  0.00    +0.000 A 
ATOM     35  H   UNL     1       8.157   4.850  15.072  0.00  0.00    +0.000 HD
ENDBRANCH  24  25
ENDBRANCH   1  24
TORSDOF 7
ENDMDL
MODEL 4
REMARK VINA RESULT:      -8.6      1.774      2.261
REMARK  Name = 
REMARK  8 active torsions:
REMARK  status: ('A' for Active; 'I' for Inactive)
REMARK    1  A    between atoms: C_1  and  C_2
REMARK    2  A    between atoms: C_2  and  C_3
REMARK    3  A    between atoms: C_2  and  N_5
REMARK    4  A    between atoms: C_3  and  O_4
REMARK    5  A    between atoms: N_5  and  C_6
REMARK    6  A    between atoms: C_6  and  C_7
REMARK    7  A    between atoms: C_21  and  N_22
REMARK    8  A    between atoms: C_25  and  C_26
REMARK                            x       y       z     vdW  Elec       q    Type
REMARK                         _______ _______ _______ _____ _____    ______ ____
ROOT
ATOM      1  N   UNL     1       3.313   4.435  18.748  0.00  0.00    +0.000 N 
ATOM      2  C   UNL     1       2.867   5.749  18.814  0.00  0.00    +0.000 A 
ATOM      3  N   UNL     1       3.129   6.571  17.789  0.00  0.00    +0.000 NA
ATOM      4  C   UNL     1       2.785   7.864  17.918  0.00  0.00    +0.000 A 
ATOM      5  C   UNL     1       2.164   8.370  19.025  0.00  0.00    +0.000 A 
ATOM      6  C   UNL     1       1.865   7.471  20.029  0.00  0.00    +0.000 A 
ATOM      7  N   UNL     1       2.203   6.176  19.898  0.00  0.00    +0.000 NA
ENDROOT
BRANCH   6   8
ATOM      8  N   UNL     1       1.128   7.945  21.138  0.00  0.00    +0.000 N 
ATOM      9  C   UNL     1       0.313   9.019  21.252  0.00  0.00    +0.000 A 
ATOM     10  C   UNL     1      -0.165   9.432  22.527  0.00  0.00    +0.000 A 
ATOM     11  C   UNL     1      -0.848  10.604  22.299  0.00  0.00    +0.000 A 
ATOM     12  N   UNL     1      -0.835  10.774  20.948  0.00  0.00    +0.000 N 
ATOM     13  N   UNL     1      -0.114   9.851  20.300  0.00  0.00    +0.000 NA
ATOM     14  H   UNL     1       1.187   7.318  21.928  0.00  0.00    +0.000 HD
ATOM     15  H   UNL     1      -1.257  11.519  20.407  0.00  0.00    +0.000 HD
BRANCH  11  16
ATOM     16  C   UNL     1      -1.467  11.562  23.293  0.00  0.00    +0.000 C 
ATOM     17  C   UNL     1      -1.362  13.053  23.068  0.00  0.00    +0.000 C 
ATOM     18  C   UNL     1      -2.669  12.372  22.850  0.00  0.00    +0.000 C 
ENDBRANCH  11  16
ENDBRANCH   6   8
BRANCH   1  20
ATOM     19  C   UNL     1       1.390   3.294  19.946  0.00  0.00    +0.000 C 
ATOM     20  C   UNL     1       2.909   3.471  19.800  0.00  0.00    +0.000 C 
BRANCH  20  21
ATOM     21  C   UNL     1       3.618   2.108  19.678  0.00  0.00    +0.000 C 
BRANCH  21  22
ATOM     22  O   UNL     1       4.957   2.184  20.178  0.00  0.00    +0.000 OA
ATOM     23  H   UNL     1       5.204   3.121  20.093  0.00  0.00    +0.000 HD
ENDBRANCH  21  22
ENDBRANCH  20  21
ENDBRANCH   1  20
BRANCH   1  24
ATOM     24  C   UNL     1       3.654   3.921  17.417  0.00  0.00    +0.000 C 
BRANCH  24  25
ATOM     25  C   UNL     1       5.104   4.178  17.045  0.00  0.00    +0.000 A 
ATOM     26  C   UNL     1       6.037   4.464  18.064  0.00  0.00    +0.000 A 
ATOM     27  C   UNL     1       7.352   4.811  17.769  0.00  0.00    +0.000 A 
ATOM     28  F   UNL     1       8.200   5.065  18.774  0.00  0.00    +0.000 F 
ATOM     29  C   UNL     1       7.810   4.921  16.459  0.00  0.00    +0.000 A 
ATOM     30  C   UNL     1       6.900   4.591  15.454  0.00  0.00    +0.000 A 
ATOM     31  N   UNL     1       7.017   4.607  14.089  0.00  0.00    +0.000 N 
ATOM     32  N   UNL     1       5.949   4.111  13.441  0.00  0.00    +0.000 NA
ATOM     33  C   UNL     1       5.085   3.857  14.429  0.00  0.00    +0.000 A 
ATOM     34  C   UNL     1       5.594   4.180  15.713  0.00  0.00    +0.000 A 
ATOM     35  H   UNL     1       7.800   4.940  13.539  0.00  0.00    +0.000 HD
ENDBRANCH  24  25
ENDBRANCH   1  24
TORSDOF 7
ENDMDL
MODEL 5
REMARK VINA RESULT:      -8.1      1.814      2.306
REMARK  Name = 
REMARK  8 active torsions:
REMARK  status: ('A' for Active; 'I' for Inactive)
REMARK    1  A    between atoms: C_1  and  C_2
REMARK    2  A    between atoms: C_2  and  C_3
REMARK    3  A    between atoms: C_2  and  N_5
REMARK    4  A    between atoms: C_3  and  O_4
REMARK    5  A    between atoms: N_5  and  C_6
REMARK    6  A    between atoms: C_6  and  C_7
REMARK    7  A    between atoms: C_21  and  N_22
REMARK    8  A    between atoms: C_25  and  C_26
REMARK                            x       y       z     vdW  Elec       q    Type
REMARK                         _______ _______ _______ _____ _____    ______ ____
ROOT
ATOM      1  N   UNL     1       3.201   4.392  19.025  0.00  0.00    +0.000 N 
ATOM      2  C   UNL     1       2.759   5.709  19.043  0.00  0.00    +0.000 A 
ATOM      3  N   UNL     1       3.150   6.535  18.063  0.00  0.00    +0.000 NA
ATOM      4  C   UNL     1       2.802   7.829  18.156  0.00  0.00    +0.000 A 
ATOM      5  C   UNL     1       2.052   8.333  19.181  0.00  0.00    +0.000 A 
ATOM      6  C   UNL     1       1.625   7.432  20.135  0.00  0.00    +0.000 A 
ATOM      7  N   UNL     1       1.969   6.136  20.039  0.00  0.00    +0.000 NA
ENDROOT
BRANCH   6   8
ATOM      8  N   UNL     1       0.759   7.906  21.147  0.00  0.00    +0.000 N 
ATOM      9  C   UNL     1       0.150   9.105  21.285  0.00  0.00    +0.000 A 
ATOM     10  C   UNL     1      -0.516   9.443  22.497  0.00  0.00    +0.000 A 
ATOM     11  C   UNL     1      -0.905  10.753  22.348  0.00  0.00    +0.000 A 
ATOM     12  N   UNL     1      -0.563  11.090  21.073  0.00  0.00    +0.000 N 
ATOM     13  N   UNL     1       0.104  10.125  20.426  0.00  0.00    +0.000 NA
ATOM     14  H   UNL     1       0.526   7.184  21.814  0.00  0.00    +0.000 HD
ATOM     15  H   UNL     1      -0.710  11.971  20.597  0.00  0.00    +0.000 HD
BRANCH  11  16
ATOM     16  C   UNL     1      -1.544  11.685  23.354  0.00  0.00    +0.000 C 
ATOM     17  C   UNL     1      -1.671  13.159  23.041  0.00  0.00    +0.000 C 
ATOM     18  C   UNL     1      -2.887  12.298  23.008  0.00  0.00    +0.000 C 
ENDBRANCH  11  16
ENDBRANCH   6   8
BRANCH   1  20
ATOM     19  C   UNL     1       2.580   3.968  21.448  0.00  0.00    +0.000 C 
ATOM     20  C   UNL     1       2.664   3.426  20.013  0.00  0.00    +0.000 C 
BRANCH  20  21
ATOM     21  C   UNL     1       1.328   2.793  19.577  0.00  0.00    +0.000 C 
BRANCH  21  22
ATOM     22  O   UNL     1       0.229   3.405  20.259  0.00  0.00    +0.000 OA
ATOM     23  H   UNL     1       0.564   3.600  21.152  0.00  0.00    +0.000 HD
ENDBRANCH  21  22
ENDBRANCH  20  21
ENDBRANCH   1  20
BRANCH   1  24
ATOM     24  C   UNL     1       3.701   3.883  17.743  0.00  0.00    +0.000 C 
BRANCH  24  25
ATOM     25  C   UNL     1       5.141   4.285  17.476  0.00  0.00    +0.000 A 
ATOM     26  C   UNL     1       5.976   4.620  18.562  0.00  0.00    +0.000 A 
ATOM     27  C   UNL     1       7.269   5.096  18.364  0.00  0.00    +0.000 A 
ATOM     28  F   UNL     1       8.024   5.392  19.430  0.00  0.00    +0.000 F 
ATOM     29  C   UNL     1       7.796   5.295  17.092  0.00  0.00    +0.000 A 
ATOM     30  C   UNL     1       6.986   4.918  16.020  0.00  0.00    +0.000 A 
ATOM     31  N   UNL     1       7.187   4.994  14.666  0.00  0.00    +0.000 N 
ATOM     32  N   UNL     1       6.213   4.425  13.935  0.00  0.00    +0.000 NA
ATOM     33  C   UNL     1       5.317   4.058  14.855  0.00  0.00    +0.000 A 
ATOM     34  C   UNL     1       5.712   4.380  16.179  0.00  0.00    +0.000 A 
ATOM     35  H   UNL     1       7.969   5.417  14.179  0.00  0.00    +0.000 HD
ENDBRANCH  24  25
ENDBRANCH   1  24
TORSDOF 7
ENDMDL
MODEL 6
REMARK VINA RESULT:      -8.0      3.942     10.081
REMARK  Name = 
REMARK  8 active torsions:
REMARK  status: ('A' for Active; 'I' for Inactive)
REMARK    1  A    between atoms: C_1  and  C_2
REMARK    2  A    between atoms: C_2  and  C_3
REMARK    3  A    between atoms: C_2  and  N_5
REMARK    4  A    between atoms: C_3  and  O_4
REMARK    5  A    between atoms: N_5  and  C_6
REMARK    6  A    between atoms: C_6  and  C_7
REMARK    7  A    between atoms: C_21  and  N_22
REMARK    8  A    between atoms: C_25  and  C_26
REMARK                            x       y       z     vdW  Elec       q    Type
REMARK                         _______ _______ _______ _____ _____    ______ ____
ROOT
ATOM      1  N   UNL     1      -0.492  12.449  20.367  0.00  0.00    +0.000 N 
ATOM      2  C   UNL     1      -0.371  11.347  21.204  0.00  0.00    +0.000 A 
ATOM      3  N   UNL     1      -1.014  11.354  22.379  0.00  0.00    +0.000 NA
ATOM      4  C   UNL     1      -0.798  10.329  23.220  0.00  0.00    +0.000 A 
ATOM      5  C   UNL     1       0.022   9.276  22.926  0.00  0.00    +0.000 A 
ATOM      6  C   UNL     1       0.616   9.286  21.680  0.00  0.00    +0.000 A 
ATOM      7  N   UNL     1       0.395  10.309  20.836  0.00  0.00    +0.000 NA
ENDROOT
BRANCH   6   8
ATOM      8  N   UNL     1       1.382   8.158  21.308  0.00  0.00    +0.000 N 
ATOM      9  C   UNL     1       1.838   7.772  20.094  0.00  0.00    +0.000 A 
ATOM     10  C   UNL     1       2.414   6.484  19.913  0.00  0.00    +0.000 A 
ATOM     11  C   UNL     1       2.648   6.374  18.563  0.00  0.00    +0.000 A 
ATOM     12  N   UNL     1       2.313   7.584  18.037  0.00  0.00    +0.000 N 
ATOM     13  N   UNL     1       1.790   8.431  18.934  0.00  0.00    +0.000 NA
ATOM     14  H   UNL     1       1.677   7.619  22.109  0.00  0.00    +0.000 HD
ATOM     15  H   UNL     1       2.370   7.886  17.072  0.00  0.00    +0.000 HD
BRANCH  11  16
ATOM     16  C   UNL     1       3.134   5.182  17.767  0.00  0.00    +0.000 C 
ATOM     17  C   UNL     1       3.305   3.842  18.446  0.00  0.00    +0.000 C 
ATOM     18  C   UNL     1       2.160   4.048  17.513  0.00  0.00    +0.000 C 
ENDBRANCH  11  16
ENDBRANCH   6   8
BRANCH   1  20
ATOM     19  C   UNL     1      -0.253  13.616  18.127  0.00  0.00    +0.000 C 
ATOM     20  C   UNL     1       0.088  12.400  19.004  0.00  0.00    +0.000 C 
BRANCH  20  21
ATOM     21  C   UNL     1       1.603  12.119  18.998  0.00  0.00    +0.000 C 
BRANCH  21  22
ATOM     22  O   UNL     1       1.936  11.139  18.010  0.00  0.00    +0.000 OA
ATOM     23  H   UNL     1       2.858  10.892  18.202  0.00  0.00    +0.000 HD
ENDBRANCH  21  22
ENDBRANCH  20  21
ENDBRANCH   1  20
BRANCH   1  24
ATOM     24  C   UNL     1      -1.629  13.342  20.615  0.00  0.00    +0.000 C 
BRANCH  24  25
ATOM     25  C   UNL     1      -2.962  12.704  20.263  0.00  0.00    +0.000 A 
ATOM     26  C   UNL     1      -3.161  12.196  18.961  0.00  0.00    +0.000 A 
ATOM     27  C   UNL     1      -4.396  11.699  18.557  0.00  0.00    +0.000 A 
ATOM     28  F   UNL     1      -4.530  11.221  17.313  0.00  0.00    +0.000 F 
ATOM     29  C   UNL     1      -5.504  11.701  19.398  0.00  0.00    +0.000 A 
ATOM     30  C   UNL     1      -5.294  12.158  20.700  0.00  0.00    +0.000 A 
ATOM     31  N   UNL     1      -6.155  12.305  21.756  0.00  0.00    +0.000 N 
ATOM     32  N   UNL     1      -5.559  12.677  22.901  0.00  0.00    +0.000 NA
ATOM     33  C   UNL     1      -4.287  12.864  22.536  0.00  0.00    +0.000 A 
ATOM     34  C   UNL     1      -4.057  12.605  21.160  0.00  0.00    +0.000 A 
ATOM     35  H   UNL     1      -7.158  12.163  21.760  0.00  0.00    +0.000 HD
ENDBRANCH  24  25
ENDBRANCH   1  24
TORSDOF 7
ENDMDL
MODEL 7
REMARK VINA RESULT:      -8.0      4.621     11.444
REMARK  Name = 
REMARK  8 active torsions:
REMARK  status: ('A' for Active; 'I' for Inactive)
REMARK    1  A    between atoms: C_1  and  C_2
REMARK    2  A    between atoms: C_2  and  C_3
REMARK    3  A    between atoms: C_2  and  N_5
REMARK    4  A    between atoms: C_3  and  O_4
REMARK    5  A    between atoms: N_5  and  C_6
REMARK    6  A    between atoms: C_6  and  C_7
REMARK    7  A    between atoms: C_21  and  N_22
REMARK    8  A    between atoms: C_25  and  C_26
REMARK                            x       y       z     vdW  Elec       q    Type
REMARK                         _______ _______ _______ _____ _____    ______ ____
ROOT
ATOM      1  N   UNL     1      -1.859  12.084  21.891  0.00  0.00    +0.000 N 
ATOM      2  C   UNL     1      -0.950  11.036  21.949  0.00  0.00    +0.000 A 
ATOM      3  N   UNL     1      -0.687  10.474  23.136  0.00  0.00    +0.000 NA
ATOM      4  C   UNL     1       0.274   9.536  23.189  0.00  0.00    +0.000 A 
ATOM      5  C   UNL     1       0.972   9.114  22.092  0.00  0.00    +0.000 A 
ATOM      6  C   UNL     1       0.624   9.682  20.884  0.00  0.00    +0.000 A 
ATOM      7  N   UNL     1      -0.341  10.616  20.830  0.00  0.00    +0.000 NA
ENDROOT
BRANCH   6   8
ATOM      8  N   UNL     1       1.255   9.187  19.719  0.00  0.00    +0.000 N 
ATOM      9  C   UNL     1       1.849   7.995  19.486  0.00  0.00    +0.000 A 
ATOM     10  C   UNL     1       2.611   7.784  18.302  0.00  0.00    +0.000 A 
ATOM     11  C   UNL     1       3.167   6.535  18.442  0.00  0.00    +0.000 A 
ATOM     12  N   UNL     1       2.654   6.037  19.601  0.00  0.00    +0.000 N 
ATOM     13  N   UNL     1       1.885   6.911  20.264  0.00  0.00    +0.000 NA
ATOM     14  H   UNL     1       1.164   9.823  18.940  0.00  0.00    +0.000 HD
ATOM     15  H   UNL     1       2.821   5.131  20.022  0.00  0.00    +0.000 HD
BRANCH  11  16
ATOM     16  C   UNL     1       4.169   5.827  17.556  0.00  0.00    +0.000 C 
ATOM     17  C   UNL     1       4.889   6.593  16.470  0.00  0.00    +0.000 C 
ATOM     18  C   UNL     1       5.633   6.194  17.698  0.00  0.00    +0.000 C 
ENDBRANCH  11  16
ENDBRANCH   6   8
BRANCH   1  20
ATOM     19  C   UNL     1      -3.795  12.780  20.406  0.00  0.00    +0.000 C 
ATOM     20  C   UNL     1      -2.276  12.620  20.573  0.00  0.00    +0.000 C 
BRANCH  20  21
ATOM     21  C   UNL     1      -1.534  13.914  20.183  0.00  0.00    +0.000 C 
BRANCH  21  22
ATOM     22  O   UNL     1      -0.250  13.617  19.626  0.00  0.00    +0.000 OA
ATOM     23  H   UNL     1       0.126  14.482  19.387  0.00  0.00    +0.000 HD
ENDBRANCH  21  22
ENDBRANCH  20  21
ENDBRANCH   1  20
BRANCH   1  24
ATOM     24  C   UNL     1      -2.776  12.224  23.028  0.00  0.00    +0.000 C 
BRANCH  24  25
ATOM     25  C   UNL     1      -2.770  13.625  23.614  0.00  0.00    +0.000 A 
ATOM     26  C   UNL     1      -1.544  14.202  24.010  0.00  0.00    +0.000 A 
ATOM     27  C   UNL     1      -1.496  15.438  24.649  0.00  0.00    +0.000 A 
ATOM     28  F   UNL     1      -0.306  15.945  24.996  0.00  0.00    +0.000 F 
ATOM     29  C   UNL     1      -2.648  16.155  24.957  0.00  0.00    +0.000 A 
ATOM     30  C   UNL     1      -3.855  15.606  24.522  0.00  0.00    +0.000 A 
ATOM     31  N   UNL     1      -5.148  16.035  24.671  0.00  0.00    +0.000 N 
ATOM     32  N   UNL     1      -6.053  15.290  24.013  0.00  0.00    +0.000 NA
ATOM     33  C   UNL     1      -5.317  14.297  23.505  0.00  0.00    +0.000 A 
ATOM     34  C   UNL     1      -3.939  14.403  23.826  0.00  0.00    +0.000 A 
ATOM     35  H   UNL     1      -5.478  16.831  25.204  0.00  0.00    +0.000 HD
ENDBRANCH  24  25
ENDBRANCH   1  24
TORSDOF 7
ENDMDL
MODEL 8
REMARK VINA RESULT:      -7.9      1.942      2.403
REMARK  Name = 
REMARK  8 active torsions:
REMARK  status: ('A' for Active; 'I' for Inactive)
REMARK    1  A    between atoms: C_1  and  C_2
REMARK    2  A    between atoms: C_2  and  C_3
REMARK    3  A    between atoms: C_2  and  N_5
REMARK    4  A    between atoms: C_3  and  O_4
REMARK    5  A    between atoms: N_5  and  C_6
REMARK    6  A    between atoms: C_6  and  C_7
REMARK    7  A    between atoms: C_21  and  N_22
REMARK    8  A    between atoms: C_25  and  C_26
REMARK                            x       y       z     vdW  Elec       q    Type
REMARK                         _______ _______ _______ _____ _____    ______ ____
ROOT
ATOM      1  N   UNL     1       2.616   5.688  18.596  0.00  0.00    +0.000 N 
ATOM      2  C   UNL     1       2.317   7.044  18.600  0.00  0.00    +0.000 A 
ATOM      3  N   UNL     1       2.934   7.844  17.720  0.00  0.00    +0.000 NA
ATOM      4  C   UNL     1       2.713   9.166  17.810  0.00  0.00    +0.000 A 
ATOM      5  C   UNL     1       1.876   9.727  18.734  0.00  0.00    +0.000 A 
ATOM      6  C   UNL     1       1.221   8.856  19.581  0.00  0.00    +0.000 A 
ATOM      7  N   UNL     1       1.436   7.532  19.486  0.00  0.00    +0.000 NA
ENDROOT
BRANCH   6   8
ATOM      8  N   UNL     1       0.268   9.399  20.474  0.00  0.00    +0.000 N 
ATOM      9  C   UNL     1       0.094  10.671  20.898  0.00  0.00    +0.000 A 
ATOM     10  C   UNL     1      -0.800  10.961  21.968  0.00  0.00    +0.000 A 
ATOM     11  C   UNL     1      -0.643  12.303  22.221  0.00  0.00    +0.000 A 
ATOM     12  N   UNL     1       0.220  12.754  21.269  0.00  0.00    +0.000 N 
ATOM     13  N   UNL     1       0.703  11.783  20.483  0.00  0.00    +0.000 NA
ATOM     14  H   UNL     1      -0.415   8.713  20.762  0.00  0.00    +0.000 HD
ATOM     15  H   UNL     1       0.557  13.698  21.126  0.00  0.00    +0.000 HD
BRANCH  11  16
ATOM     16  C   UNL     1      -1.240  13.147  23.327  0.00  0.00    +0.000 C 
ATOM     17  C   UNL     1      -1.558  14.603  23.075  0.00  0.00    +0.000 C 
ATOM     18  C   UNL     1      -2.672  13.618  23.172  0.00  0.00    +0.000 C 
ENDBRANCH  11  16
ENDBRANCH   6   8
BRANCH   1  20
ATOM     19  C   UNL     1       1.281   3.534  18.725  0.00  0.00    +0.000 C 
ATOM     20  C   UNL     1       1.840   4.764  19.458  0.00  0.00    +0.000 C 
BRANCH  20  21
ATOM     21  C   UNL     1       2.591   4.354  20.739  0.00  0.00    +0.000 C 
BRANCH  21  22
ATOM     22  O   UNL     1       2.374   5.308  21.784  0.00  0.00    +0.000 OA
ATOM     23  H   UNL     1       1.785   4.859  22.415  0.00  0.00    +0.000 HD
ENDBRANCH  21  22
ENDBRANCH  20  21
ENDBRANCH   1  20
BRANCH   1  24
ATOM     24  C   UNL     1       3.244   5.155  17.382  0.00  0.00    +0.000 C 
BRANCH  24  25
ATOM     25  C   UNL     1       4.758   5.094  17.486  0.00  0.00    +0.000 A 
ATOM     26  C   UNL     1       5.373   5.328  18.735  0.00  0.00    +0.000 A 
ATOM     27  C   UNL     1       6.758   5.387  18.862  0.00  0.00    +0.000 A 
ATOM     28  F   UNL     1       7.292   5.603  20.071  0.00  0.00    +0.000 F 
ATOM     29  C   UNL     1       7.607   5.250  17.768  0.00  0.00    +0.000 A 
ATOM     30  C   UNL     1       6.999   4.971  16.543  0.00  0.00    +0.000 A 
ATOM     31  N   UNL     1       7.528   4.797  15.291  0.00  0.00    +0.000 N 
ATOM     32  N   UNL     1       6.629   4.430  14.362  0.00  0.00    +0.000 NA
ATOM     33  C   UNL     1       5.472   4.463  15.028  0.00  0.00    +0.000 A 
ATOM     34  C   UNL     1       5.621   4.842  16.387  0.00  0.00    +0.000 A 
ATOM     35  H   UNL     1       8.494   4.910  15.006  0.00  0.00    +0.000 HD
ENDBRANCH  24  25
ENDBRANCH   1  24
TORSDOF 7
ENDMDL
MODEL 9
REMARK VINA RESULT:      -7.9      4.229     10.396
REMARK  Name = 
REMARK  8 active torsions:
REMARK  status: ('A' for Active; 'I' for Inactive)
REMARK    1  A    between atoms: C_1  and  C_2
REMARK    2  A    between atoms: C_2  and  C_3
REMARK    3  A    between atoms: C_2  and  N_5
REMARK    4  A    between atoms: C_3  and  O_4
REMARK    5  A    between atoms: N_5  and  C_6
REMARK    6  A    between atoms: C_6  and  C_7
REMARK    7  A    between atoms: C_21  and  N_22
REMARK    8  A    between atoms: C_25  and  C_26
REMARK                            x       y       z     vdW  Elec       q    Type
REMARK                         _______ _______ _______ _____ _____    ______ ____
ROOT
ATOM      1  N   UNL     1      -1.514  12.515  20.094  0.00  0.00    +0.000 N 
ATOM      2  C   UNL     1      -1.197  11.574  21.065  0.00  0.00    +0.000 A 
ATOM      3  N   UNL     1      -1.674  11.741  22.306  0.00  0.00    +0.000 NA
ATOM      4  C   UNL     1      -1.269  10.881  23.256  0.00  0.00    +0.000 A 
ATOM      5  C   UNL     1      -0.420   9.837  23.011  0.00  0.00    +0.000 A 
ATOM      6  C   UNL     1      -0.003   9.674  21.706  0.00  0.00    +0.000 A 
ATOM      7  N   UNL     1      -0.413  10.531  20.755  0.00  0.00    +0.000 NA
ENDROOT
BRANCH   6   8
ATOM      8  N   UNL     1       0.787   8.541  21.405  0.00  0.00    +0.000 N 
ATOM      9  C   UNL     1       1.490   8.237  20.290  0.00  0.00    +0.000 A 
ATOM     10  C   UNL     1       2.048   6.939  20.118  0.00  0.00    +0.000 A 
ATOM     11  C   UNL     1       2.575   6.933  18.848  0.00  0.00    +0.000 A 
ATOM     12  N   UNL     1       2.408   8.201  18.380  0.00  0.00    +0.000 N 
ATOM     13  N   UNL     1       1.727   8.994  19.217  0.00  0.00    +0.000 NA
ATOM     14  H   UNL     1       0.875   7.920  22.196  0.00  0.00    +0.000 HD
ATOM     15  H   UNL     1       2.692   8.580  17.485  0.00  0.00    +0.000 HD
BRANCH  11  16
ATOM     16  C   UNL     1       3.186   5.788  18.068  0.00  0.00    +0.000 C 
ATOM     17  C   UNL     1       4.319   6.055  17.104  0.00  0.00    +0.000 C 
ATOM     18  C   UNL     1       4.607   5.377  18.399  0.00  0.00    +0.000 C 
ENDBRANCH  11  16
ENDBRANCH   6   8
BRANCH   1  20
ATOM     19  C   UNL     1       0.289  12.765  18.327  0.00  0.00    +0.000 C 
ATOM     20  C   UNL     1      -1.123  12.275  18.685  0.00  0.00    +0.000 C 
BRANCH  20  21
ATOM     21  C   UNL     1      -1.334  10.815  18.237  0.00  0.00    +0.000 C 
BRANCH  21  22
ATOM     22  O   UNL     1      -0.156  10.298  17.611  0.00  0.00    +0.000 OA
ATOM     23  H   UNL     1       0.166  11.022  17.046  0.00  0.00    +0.000 HD
ENDBRANCH  21  22
ENDBRANCH  20  21
ENDBRANCH   1  20
BRANCH   1  24
ATOM     24  C   UNL     1      -2.671  13.377  20.365  0.00  0.00    +0.000 C 
BRANCH  24  25
ATOM     25  C   UNL     1      -3.993  12.649  20.197  0.00  0.00    +0.000 A 
ATOM     26  C   UNL     1      -4.317  12.089  18.943  0.00  0.00    +0.000 A 
ATOM     27  C   UNL     1      -5.559  11.506  18.708  0.00  0.00    +0.000 A 
ATOM     28  F   UNL     1      -5.814  10.981  17.502  0.00  0.00    +0.000 F 
ATOM     29  C   UNL     1      -6.554  11.469  19.680  0.00  0.00    +0.000 A 
ATOM     30  C   UNL     1      -6.215  11.981  20.933  0.00  0.00    +0.000 A 
ATOM     31  N   UNL     1      -6.948  12.111  22.084  0.00  0.00    +0.000 N 
ATOM     32  N   UNL     1      -6.241  12.555  23.137  0.00  0.00    +0.000 NA
ATOM     33  C   UNL     1      -5.038  12.805  22.612  0.00  0.00    +0.000 A 
ATOM     34  C   UNL     1      -4.962  12.515  21.225  0.00  0.00    +0.000 A 
ATOM     35  H   UNL     1      -7.932  11.910  22.216  0.00  0.00    +0.000 HD
ENDBRANCH  24  25
ENDBRANCH   1  24
TORSDOF 7
ENDMDL
