MODEL 1
REMARK VINA RESULT:      -8.2      0.000      0.000
REMARK  Name = 
REMARK  5 active torsions:
REMARK  status: ('A' for Active; 'I' for Inactive)
REMARK    1  A    between atoms: C_1  and  C_2
REMARK    2  A    between atoms: C_2  and  O_4
REMARK    3  A    between atoms: O_4  and  C_5
REMARK    4  A    between atoms: C_13  and  C_14
REMARK    5  A    between atoms: C_17  and  N_18
REMARK                            x       y       z     vdW  Elec       q    Type
REMARK                         _______ _______ _______ _____ _____    ______ ____
ROOT
ATOM      1  C   UNL     1       5.316   6.492  17.254  0.00  0.00    +0.000 A 
ATOM      2  C   UNL     1       5.123   5.119  17.242  0.00  0.00    +0.000 A 
ATOM      3  C   UNL     1       3.996   4.607  17.902  0.00  0.00    +0.000 A 
ATOM      4  C   UNL     1       3.628   3.245  17.816  0.00  0.00    +0.000 A 
ATOM      5  C   UNL     1       2.454   2.849  18.422  0.00  0.00    +0.000 A 
ATOM      6  C   UNL     1       1.739   3.697  19.230  0.00  0.00    +0.000 A 
ATOM      7  C   UNL     1       2.107   5.003  19.407  0.00  0.00    +0.000 A 
ATOM      8  C   UNL     1       3.158   5.508  18.615  0.00  0.00    +0.000 A 
ATOM      9  C   UNL     1       3.367   6.889  18.418  0.00  0.00    +0.000 A 
ATOM     10  N   UNL     1       4.437   7.372  17.745  0.00  0.00    +0.000 NA
ATOM     11  O   UNL     1       0.591   3.139  19.701  0.00  0.00    +0.000 OA
ATOM     12  C   UNL     1       0.517   2.003  18.820  0.00  0.00    +0.000 C 
ATOM     13  O   UNL     1       1.808   1.659  18.264  0.00  0.00    +0.000 OA
ENDROOT
BRANCH   9  14
ATOM     14  C   UNL     1       2.353   7.923  18.731  0.00  0.00    +0.000 A 
ATOM     15  C   UNL     1       1.784   8.715  17.727  0.00  0.00    +0.000 A 
ATOM     16  C   UNL     1       0.815   9.677  18.030  0.00  0.00    +0.000 A 
ATOM     17  C   UNL     1       0.423   9.912  19.351  0.00  0.00    +0.000 A 
ATOM     18  C   UNL     1       0.921   9.079  20.347  0.00  0.00    +0.000 A 
ATOM     19  C   UNL     1       1.863   8.097  20.041  0.00  0.00    +0.000 A 
BRANCH  17  20
ATOM     20  N   UNL     1      -0.623  10.795  19.637  0.00  0.00    +0.000 N 
ATOM     21  H   UNL     1      -1.017  11.239  18.815  0.00  0.00    +0.000 HD
ATOM     22  H   UNL     1      -0.399  11.464  20.368  0.00  0.00    +0.000 HD
ENDBRANCH  17  20
ENDBRANCH   9  14
BRANCH   1  23
ATOM     23  O   UNL     1       6.399   7.017  16.529  0.00  0.00    +0.000 OA
BRANCH  23  25
ATOM     24  C   UNL     1       7.807   6.584  18.367  0.00  0.00    +0.000 C 
ATOM     25  C   UNL     1       7.364   7.592  17.348  0.00  0.00    +0.000 C 
ATOM     26  O   UNL     1       7.755   8.753  17.340  0.00  0.00    +0.000 OA
ENDBRANCH  23  25
ENDBRANCH   1  23
TORSDOF 4
ENDMDL
MODEL 2
REMARK VINA RESULT:      -8.2      0.742      1.320
REMARK  Name = 
REMARK  5 active torsions:
REMARK  status: ('A' for Active; 'I' for Inactive)
REMARK    1  A    between atoms: C_1  and  C_2
REMARK    2  A    between atoms: C_2  and  O_4
REMARK    3  A    between atoms: O_4  and  C_5
REMARK    4  A    between atoms: C_13  and  C_14
REMARK    5  A    between atoms: C_17  and  N_18
REMARK                            x       y       z     vdW  Elec       q    Type
REMARK                         _______ _______ _______ _____ _____    ______ ____
ROOT
ATOM      1  C   UNL     1       4.835   6.540  16.900  0.00  0.00    +0.000 A 
ATOM      2  C   UNL     1       4.652   5.166  16.929  0.00  0.00    +0.000 A 
ATOM      3  C   UNL     1       3.638   4.654  17.753  0.00  0.00    +0.000 A 
ATOM      4  C   UNL     1       3.272   3.289  17.735  0.00  0.00    +0.000 A 
ATOM      5  C   UNL     1       2.203   2.891  18.511  0.00  0.00    +0.000 A 
ATOM      6  C   UNL     1       1.610   3.744  19.410  0.00  0.00    +0.000 A 
ATOM      7  C   UNL     1       1.991   5.053  19.519  0.00  0.00    +0.000 A 
ATOM      8  C   UNL     1       2.909   5.557  18.575  0.00  0.00    +0.000 A 
ATOM      9  C   UNL     1       3.078   6.937  18.338  0.00  0.00    +0.000 A 
ATOM     10  N   UNL     1       4.032   7.419  17.509  0.00  0.00    +0.000 NA
ATOM     11  O   UNL     1       0.549   3.183  20.051  0.00  0.00    +0.000 OA
ATOM     12  C   UNL     1       0.353   2.039  19.200  0.00  0.00    +0.000 C 
ATOM     13  O   UNL     1       1.549   1.697  18.462  0.00  0.00    +0.000 OA
ENDROOT
BRANCH   9  14
ATOM     14  C   UNL     1       2.114   7.968  18.789  0.00  0.00    +0.000 A 
ATOM     15  C   UNL     1       1.779   8.111  20.141  0.00  0.00    +0.000 A 
ATOM     16  C   UNL     1       0.880   9.098  20.560  0.00  0.00    +0.000 A 
ATOM     17  C   UNL     1       0.253   9.938  19.636  0.00  0.00    +0.000 A 
ATOM     18  C   UNL     1       0.638   9.859  18.302  0.00  0.00    +0.000 A 
ATOM     19  C   UNL     1       1.558   8.897  17.888  0.00  0.00    +0.000 A 
BRANCH  17  20
ATOM     20  N   UNL     1      -0.557  10.994  20.069  0.00  0.00    +0.000 N 
ATOM     21  H   UNL     1      -1.504  10.714  20.295  0.00  0.00    +0.000 HD
ATOM     22  H   UNL     1      -0.528  11.802  19.454  0.00  0.00    +0.000 HD
ENDBRANCH  17  20
ENDBRANCH   9  14
BRANCH   1  23
ATOM     23  O   UNL     1       5.794   7.064  16.017  0.00  0.00    +0.000 OA
BRANCH  23  25
ATOM     24  C   UNL     1       7.647   7.239  17.461  0.00  0.00    +0.000 C 
ATOM     25  C   UNL     1       7.069   6.563  16.253  0.00  0.00    +0.000 C 
ATOM     26  O   UNL     1       7.698   5.768  15.565  0.00  0.00    +0.000 OA
ENDBRANCH  23  25
ENDBRANCH   1  23
TORSDOF 4
ENDMDL
MODEL 3
REMARK VINA RESULT:      -7.8      1.278      5.098
REMARK  Name = 
REMARK  5 active torsions:
REMARK  status: ('A' for Active; 'I' for Inactive)
REMARK    1  A    between atoms: C_1  and  C_2
REMARK    2  A    between atoms: C_2  and  O_4
REMARK    3  A    between atoms: O_4  and  C_5
REMARK    4  A    between atoms: C_13  and  C_14
REMARK    5  A    between atoms: C_17  and  N_18
REMARK                            x       y       z     vdW  Elec       q    Type
REMARK                         _______ _______ _______ _____ _____    ______ ____
ROOT
ATOM      1  C   UNL     1       1.999   4.152  17.799  0.00  0.00    +0.000 A 
ATOM      2  C   UNL     1       3.313   3.846  17.482  0.00  0.00    +0.000 A 
ATOM      3  C   UNL     1       4.230   4.904  17.381  0.00  0.00    +0.000 A 
ATOM      4  C   UNL     1       5.616   4.684  17.217  0.00  0.00    +0.000 A 
ATOM      5  C   UNL     1       6.454   5.781  17.220  0.00  0.00    +0.000 A 
ATOM      6  C   UNL     1       5.961   7.062  17.208  0.00  0.00    +0.000 A 
ATOM      7  C   UNL     1       4.619   7.318  17.282  0.00  0.00    +0.000 A 
ATOM      8  C   UNL     1       3.750   6.234  17.526  0.00  0.00    +0.000 A 
ATOM      9  C   UNL     1       2.434   6.406  18.002  0.00  0.00    +0.000 A 
ATOM     10  N   UNL     1       1.570   5.373  18.134  0.00  0.00    +0.000 NA
ATOM     11  O   UNL     1       6.939   8.006  17.253  0.00  0.00    +0.000 OA
ATOM     12  C   UNL     1       8.042   7.167  17.643  0.00  0.00    +0.000 C 
ATOM     13  O   UNL     1       7.813   5.778  17.311  0.00  0.00    +0.000 OA
ENDROOT
BRANCH   9  14
ATOM     14  C   UNL     1       1.938   7.669  18.598  0.00  0.00    +0.000 A 
ATOM     15  C   UNL     1       1.770   7.806  19.981  0.00  0.00    +0.000 A 
ATOM     16  C   UNL     1       1.316   9.007  20.536  0.00  0.00    +0.000 A 
ATOM     17  C   UNL     1       0.969  10.090  19.722  0.00  0.00    +0.000 A 
ATOM     18  C   UNL     1       1.208   9.993  18.355  0.00  0.00    +0.000 A 
ATOM     19  C   UNL     1       1.691   8.807  17.805  0.00  0.00    +0.000 A 
BRANCH  17  20
ATOM     20  N   UNL     1       0.624  11.322  20.286  0.00  0.00    +0.000 N 
ATOM     21  H   UNL     1       1.104  11.521  21.156  0.00  0.00    +0.000 HD
ATOM     22  H   UNL     1      -0.380  11.466  20.357  0.00  0.00    +0.000 HD
ENDBRANCH  17  20
ENDBRANCH   9  14
BRANCH   1  23
ATOM     23  O   UNL     1       1.094   3.092  17.979  0.00  0.00    +0.000 OA
BRANCH  23  25
ATOM     24  C   UNL     1       0.828   3.108  20.320  0.00  0.00    +0.000 C 
ATOM     25  C   UNL     1       1.352   2.358  19.131  0.00  0.00    +0.000 C 
ATOM     26  O   UNL     1       1.982   1.311  19.224  0.00  0.00    +0.000 OA
ENDBRANCH  23  25
ENDBRANCH   1  23
TORSDOF 4
ENDMDL
MODEL 4
REMARK VINA RESULT:      -7.8      1.727      1.913
REMARK  Name = 
REMARK  5 active torsions:
REMARK  status: ('A' for Active; 'I' for Inactive)
REMARK    1  A    between atoms: C_1  and  C_2
REMARK    2  A    between atoms: C_2  and  O_4
REMARK    3  A    between atoms: O_4  and  C_5
REMARK    4  A    between atoms: C_13  and  C_14
REMARK    5  A    between atoms: C_17  and  N_18
REMARK                            x       y       z     vdW  Elec       q    Type
REMARK                         _______ _______ _______ _____ _____    ______ ____
ROOT
ATOM      1  C   UNL     1       4.821   5.832  16.547  0.00  0.00    +0.000 A 
ATOM      2  C   UNL     1       4.761   4.549  17.067  0.00  0.00    +0.000 A 
ATOM      3  C   UNL     1       4.040   4.353  18.256  0.00  0.00    +0.000 A 
ATOM      4  C   UNL     1       3.790   3.065  18.780  0.00  0.00    +0.000 A 
ATOM      5  C   UNL     1       2.995   2.962  19.903  0.00  0.00    +0.000 A 
ATOM      6  C   UNL     1       2.592   4.073  20.603  0.00  0.00    +0.000 A 
ATOM      7  C   UNL     1       2.885   5.338  20.175  0.00  0.00    +0.000 A 
ATOM      8  C   UNL     1       3.482   5.488  18.907  0.00  0.00    +0.000 A 
ATOM      9  C   UNL     1       3.474   6.708  18.200  0.00  0.00    +0.000 A 
ATOM     10  N   UNL     1       4.139   6.874  17.033  0.00  0.00    +0.000 NA
ATOM     11  O   UNL     1       1.783   3.771  21.654  0.00  0.00    +0.000 OA
ATOM     12  C   UNL     1       1.461   2.412  21.306  0.00  0.00    +0.000 C 
ATOM     13  O   UNL     1       2.447   1.829  20.422  0.00  0.00    +0.000 OA
ENDROOT
BRANCH   9  14
ATOM     14  C   UNL     1       2.584   7.843  18.537  0.00  0.00    +0.000 A 
ATOM     15  C   UNL     1       2.271   8.830  17.595  0.00  0.00    +0.000 A 
ATOM     16  C   UNL     1       1.417   9.890  17.918  0.00  0.00    +0.000 A 
ATOM     17  C   UNL     1       0.889  10.022  19.206  0.00  0.00    +0.000 A 
ATOM     18  C   UNL     1       1.128   9.006  20.126  0.00  0.00    +0.000 A 
ATOM     19  C   UNL     1       1.953   7.932  19.794  0.00  0.00    +0.000 A 
BRANCH  17  20
ATOM     20  N   UNL     1      -0.050  11.017  19.492  0.00  0.00    +0.000 N 
ATOM     21  H   UNL     1      -0.765  11.119  18.781  0.00  0.00    +0.000 HD
ATOM     22  H   UNL     1       0.369  11.906  19.749  0.00  0.00    +0.000 HD
ENDBRANCH  17  20
ENDBRANCH   9  14
BRANCH   1  23
ATOM     23  O   UNL     1       5.473   6.020  15.316  0.00  0.00    +0.000 OA
BRANCH  23  25
ATOM     24  C   UNL     1       6.212   4.183  14.041  0.00  0.00    +0.000 C 
ATOM     25  C   UNL     1       6.542   5.150  15.139  0.00  0.00    +0.000 C 
ATOM     26  O   UNL     1       7.569   5.084  15.804  0.00  0.00    +0.000 OA
ENDBRANCH  23  25
ENDBRANCH   1  23
TORSDOF 4
ENDMDL
MODEL 5
REMARK VINA RESULT:      -7.8      1.336      1.614
REMARK  Name = 
REMARK  5 active torsions:
REMARK  status: ('A' for Active; 'I' for Inactive)
REMARK    1  A    between atoms: C_1  and  C_2
REMARK    2  A    between atoms: C_2  and  O_4
REMARK    3  A    between atoms: O_4  and  C_5
REMARK    4  A    between atoms: C_13  and  C_14
REMARK    5  A    between atoms: C_17  and  N_18
REMARK                            x       y       z     vdW  Elec       q    Type
REMARK                         _______ _______ _______ _____ _____    ______ ____
ROOT
ATOM      1  C   UNL     1       5.102   5.839  16.487  0.00  0.00    +0.000 A 
ATOM      2  C   UNL     1       4.789   4.496  16.627  0.00  0.00    +0.000 A 
ATOM      3  C   UNL     1       3.788   4.145  17.546  0.00  0.00    +0.000 A 
ATOM      4  C   UNL     1       3.290   2.827  17.649  0.00  0.00    +0.000 A 
ATOM      5  C   UNL     1       2.242   2.592  18.515  0.00  0.00    +0.000 A 
ATOM      6  C   UNL     1       1.797   3.558  19.383  0.00  0.00    +0.000 A 
ATOM      7  C   UNL     1       2.310   4.826  19.373  0.00  0.00    +0.000 A 
ATOM      8  C   UNL     1       3.207   5.170  18.342  0.00  0.00    +0.000 A 
ATOM      9  C   UNL     1       3.492   6.507  17.995  0.00  0.00    +0.000 A 
ATOM     10  N   UNL     1       4.432   6.834  17.078  0.00  0.00    +0.000 NA
ATOM     11  O   UNL     1       0.732   3.152  20.126  0.00  0.00    +0.000 OA
ATOM     12  C   UNL     1       0.368   1.980  19.374  0.00  0.00    +0.000 C 
ATOM     13  O   UNL     1       1.474   1.470  18.592  0.00  0.00    +0.000 OA
ENDROOT
BRANCH   9  14
ATOM     14  C   UNL     1       2.666   7.659  18.427  0.00  0.00    +0.000 A 
ATOM     15  C   UNL     1       2.354   8.703  17.549  0.00  0.00    +0.000 A 
ATOM     16  C   UNL     1       1.560   9.778  17.962  0.00  0.00    +0.000 A 
ATOM     17  C   UNL     1       1.096   9.867  19.277  0.00  0.00    +0.000 A 
ATOM     18  C   UNL     1       1.332   8.798  20.135  0.00  0.00    +0.000 A 
ATOM     19  C   UNL     1       2.096   7.710  19.715  0.00  0.00    +0.000 A 
BRANCH  17  20
ATOM     20  N   UNL     1       0.212  10.884  19.654  0.00  0.00    +0.000 N 
ATOM     21  H   UNL     1      -0.299  11.287  18.877  0.00  0.00    +0.000 HD
ATOM     22  H   UNL     1       0.640  11.591  20.245  0.00  0.00    +0.000 HD
ENDBRANCH  17  20
ENDBRANCH   9  14
BRANCH   1  23
ATOM     23  O   UNL     1       6.047   6.203  15.512  0.00  0.00    +0.000 OA
BRANCH  23  25
ATOM     24  C   UNL     1       6.765   4.656  13.888  0.00  0.00    +0.000 C 
ATOM     25  C   UNL     1       6.978   5.201  15.269  0.00  0.00    +0.000 C 
ATOM     26  O   UNL     1       7.799   4.738  16.053  0.00  0.00    +0.000 OA
ENDBRANCH  23  25
ENDBRANCH   1  23
TORSDOF 4
ENDMDL
MODEL 6
REMARK VINA RESULT:      -7.8      1.604      2.007
REMARK  Name = 
REMARK  5 active torsions:
REMARK  status: ('A' for Active; 'I' for Inactive)
REMARK    1  A    between atoms: C_1  and  C_2
REMARK    2  A    between atoms: C_2  and  O_4
REMARK    3  A    between atoms: O_4  and  C_5
REMARK    4  A    between atoms: C_13  and  C_14
REMARK    5  A    between atoms: C_17  and  N_18
REMARK                            x       y       z     vdW  Elec       q    Type
REMARK                         _______ _______ _______ _____ _____    ______ ____
ROOT
ATOM      1  C   UNL     1       4.683   5.875  16.563  0.00  0.00    +0.000 A 
ATOM      2  C   UNL     1       4.653   4.590  17.084  0.00  0.00    +0.000 A 
ATOM      3  C   UNL     1       3.958   4.382  18.285  0.00  0.00    +0.000 A 
ATOM      4  C   UNL     1       3.739   3.089  18.812  0.00  0.00    +0.000 A 
ATOM      5  C   UNL     1       2.966   2.972  19.949  0.00  0.00    +0.000 A 
ATOM      6  C   UNL     1       2.558   4.075  20.658  0.00  0.00    +0.000 A 
ATOM      7  C   UNL     1       2.821   5.346  20.225  0.00  0.00    +0.000 A 
ATOM      8  C   UNL     1       3.393   5.506  18.947  0.00  0.00    +0.000 A 
ATOM      9  C   UNL     1       3.352   6.726  18.241  0.00  0.00    +0.000 A 
ATOM     10  N   UNL     1       3.993   6.905  17.063  0.00  0.00    +0.000 NA
ATOM     11  O   UNL     1       1.772   3.760  21.723  0.00  0.00    +0.000 OA
ATOM     12  C   UNL     1       1.467   2.396  21.379  0.00  0.00    +0.000 C 
ATOM     13  O   UNL     1       2.447   1.829  20.477  0.00  0.00    +0.000 OA
ENDROOT
BRANCH   9  14
ATOM     14  C   UNL     1       2.449   7.846  18.596  0.00  0.00    +0.000 A 
ATOM     15  C   UNL     1       1.929   7.983  19.889  0.00  0.00    +0.000 A 
ATOM     16  C   UNL     1       1.090   9.052  20.219  0.00  0.00    +0.000 A 
ATOM     17  C   UNL     1       0.707   9.990  19.256  0.00  0.00    +0.000 A 
ATOM     18  C   UNL     1       1.280   9.911  17.991  0.00  0.00    +0.000 A 
ATOM     19  C   UNL     1       2.142   8.863  17.670  0.00  0.00    +0.000 A 
BRANCH  17  20
ATOM     20  N   UNL     1      -0.039  11.117  19.616  0.00  0.00    +0.000 N 
ATOM     21  H   UNL     1      -0.316  11.127  20.591  0.00  0.00    +0.000 HD
ATOM     22  H   UNL     1      -0.818  11.301  18.990  0.00  0.00    +0.000 HD
ENDBRANCH  17  20
ENDBRANCH   9  14
BRANCH   1  23
ATOM     23  O   UNL     1       5.310   6.074  15.322  0.00  0.00    +0.000 OA
BRANCH  23  25
ATOM     24  C   UNL     1       6.780   4.557  14.280  0.00  0.00    +0.000 C 
ATOM     25  C   UNL     1       6.629   5.636  15.311  0.00  0.00    +0.000 C 
ATOM     26  O   UNL     1       7.534   5.977  16.062  0.00  0.00    +0.000 OA
ENDBRANCH  23  25
ENDBRANCH   1  23
TORSDOF 4
ENDMDL
MODEL 7
REMARK VINA RESULT:      -7.5      1.574      5.129
REMARK  Name = 
REMARK  5 active torsions:
REMARK  status: ('A' for Active; 'I' for Inactive)
REMARK    1  A    between atoms: C_1  and  C_2
REMARK    2  A    between atoms: C_2  and  O_4
REMARK    3  A    between atoms: O_4  and  C_5
REMARK    4  A    between atoms: C_13  and  C_14
REMARK    5  A    between atoms: C_17  and  N_18
REMARK                            x       y       z     vdW  Elec       q    Type
REMARK                         _______ _______ _______ _____ _____    ______ ____
ROOT
ATOM      1  C   UNL     1       2.790   3.808  19.078  0.00  0.00    +0.000 A 
ATOM      2  C   UNL     1       4.117   3.657  18.707  0.00  0.00    +0.000 A 
ATOM      3  C   UNL     1       4.800   4.788  18.232  0.00  0.00    +0.000 A 
ATOM      4  C   UNL     1       6.191   4.774  17.978  0.00  0.00    +0.000 A 
ATOM      5  C   UNL     1       6.795   5.956  17.602  0.00  0.00    +0.000 A 
ATOM      6  C   UNL     1       6.061   7.079  17.312  0.00  0.00    +0.000 A 
ATOM      7  C   UNL     1       4.702   7.110  17.466  0.00  0.00    +0.000 A 
ATOM      8  C   UNL     1       4.079   6.003  18.079  0.00  0.00    +0.000 A 
ATOM      9  C   UNL     1       2.786   6.071  18.638  0.00  0.00    +0.000 A 
ATOM     10  N   UNL     1       2.151   4.981  19.130  0.00  0.00    +0.000 NA
ATOM     11  O   UNL     1       6.836   8.153  17.001  0.00  0.00    +0.000 OA
ATOM     12  C   UNL     1       8.103   7.658  17.470  0.00  0.00    +0.000 C 
ATOM     13  O   UNL     1       8.131   6.212  17.538  0.00  0.00    +0.000 OA
ENDROOT
BRANCH   9  14
ATOM     14  C   UNL     1       2.089   7.343  18.937  0.00  0.00    +0.000 A 
ATOM     15  C   UNL     1       1.743   7.696  20.247  0.00  0.00    +0.000 A 
ATOM     16  C   UNL     1       1.100   8.907  20.521  0.00  0.00    +0.000 A 
ATOM     17  C   UNL     1       0.737   9.779  19.490  0.00  0.00    +0.000 A 
ATOM     18  C   UNL     1       1.146   9.478  18.195  0.00  0.00    +0.000 A 
ATOM     19  C   UNL     1       1.817   8.285  17.925  0.00  0.00    +0.000 A 
BRANCH  17  20
ATOM     20  N   UNL     1       0.196  11.036  19.778  0.00  0.00    +0.000 N 
ATOM     21  H   UNL     1       0.406  11.740  19.079  0.00  0.00    +0.000 HD
ATOM     22  H   UNL     1       0.396  11.355  20.721  0.00  0.00    +0.000 HD
ENDBRANCH  17  20
ENDBRANCH   9  14
BRANCH   1  23
ATOM     23  O   UNL     1       2.124   2.699  19.627  0.00  0.00    +0.000 OA
BRANCH  23  25
ATOM     24  C   UNL     1       1.177   2.776  21.783  0.00  0.00    +0.000 C 
ATOM     25  C   UNL     1       2.413   2.514  20.974  0.00  0.00    +0.000 C 
ATOM     26  O   UNL     1       3.503   2.268  21.476  0.00  0.00    +0.000 OA
ENDBRANCH  23  25
ENDBRANCH   1  23
TORSDOF 4
ENDMDL
MODEL 8
REMARK VINA RESULT:      -7.5      2.575      5.491
REMARK  Name = 
REMARK  5 active torsions:
REMARK  status: ('A' for Active; 'I' for Inactive)
REMARK    1  A    between atoms: C_1  and  C_2
REMARK    2  A    between atoms: C_2  and  O_4
REMARK    3  A    between atoms: O_4  and  C_5
REMARK    4  A    between atoms: C_13  and  C_14
REMARK    5  A    between atoms: C_17  and  N_18
REMARK                            x       y       z     vdW  Elec       q    Type
REMARK                         _______ _______ _______ _____ _____    ______ ____
ROOT
ATOM      1  C   UNL     1       2.312   8.341  18.605  0.00  0.00    +0.000 A 
ATOM      2  C   UNL     1       1.762   7.635  19.663  0.00  0.00    +0.000 A 
ATOM      3  C   UNL     1       2.060   6.268  19.769  0.00  0.00    +0.000 A 
ATOM      4  C   UNL     1       1.678   5.499  20.891  0.00  0.00    +0.000 A 
ATOM      5  C   UNL     1       2.094   4.185  20.953  0.00  0.00    +0.000 A 
ATOM      6  C   UNL     1       2.713   3.576  19.889  0.00  0.00    +0.000 A 
ATOM      7  C   UNL     1       3.027   4.264  18.750  0.00  0.00    +0.000 A 
ATOM      8  C   UNL     1       2.839   5.661  18.746  0.00  0.00    +0.000 A 
ATOM      9  C   UNL     1       3.470   6.511  17.814  0.00  0.00    +0.000 A 
ATOM     10  N   UNL     1       3.206   7.837  17.747  0.00  0.00    +0.000 NA
ATOM     11  O   UNL     1       3.083   2.294  20.155  0.00  0.00    +0.000 OA
ATOM     12  C   UNL     1       2.938   2.312  21.587  0.00  0.00    +0.000 C 
ATOM     13  O   UNL     1       2.037   3.354  22.030  0.00  0.00    +0.000 OA
ENDROOT
BRANCH   9  14
ATOM     14  C   UNL     1       4.620   6.097  16.976  0.00  0.00    +0.000 A 
ATOM     15  C   UNL     1       4.470   5.168  15.940  0.00  0.00    +0.000 A 
ATOM     16  C   UNL     1       5.557   4.795  15.143  0.00  0.00    +0.000 A 
ATOM     17  C   UNL     1       6.837   5.302  15.390  0.00  0.00    +0.000 A 
ATOM     18  C   UNL     1       6.983   6.284  16.363  0.00  0.00    +0.000 A 
ATOM     19  C   UNL     1       5.892   6.681  17.136  0.00  0.00    +0.000 A 
BRANCH  17  20
ATOM     20  N   UNL     1       7.896   5.013  14.523  0.00  0.00    +0.000 N 
ATOM     21  H   UNL     1       8.024   5.703  13.792  0.00  0.00    +0.000 HD
ATOM     22  H   UNL     1       7.873   4.064  14.160  0.00  0.00    +0.000 HD
ENDBRANCH  17  20
ENDBRANCH   9  14
BRANCH   1  23
ATOM     23  O   UNL     1       2.082   9.725  18.538  0.00  0.00    +0.000 OA
BRANCH  23  25
ATOM     24  C   UNL     1       0.394  10.833  19.752  0.00  0.00    +0.000 C 
ATOM     25  C   UNL     1       0.728  10.043  18.522  0.00  0.00    +0.000 C 
ATOM     26  O   UNL     1      -0.113   9.681  17.708  0.00  0.00    +0.000 OA
ENDBRANCH  23  25
ENDBRANCH   1  23
TORSDOF 4
ENDMDL
MODEL 9
REMARK VINA RESULT:      -7.4      1.719      5.081
REMARK  Name = 
REMARK  5 active torsions:
REMARK  status: ('A' for Active; 'I' for Inactive)
REMARK    1  A    between atoms: C_1  and  C_2
REMARK    2  A    between atoms: C_2  and  O_4
REMARK    3  A    between atoms: O_4  and  C_5
REMARK    4  A    between atoms: C_13  and  C_14
REMARK    5  A    between atoms: C_17  and  N_18
REMARK                            x       y       z     vdW  Elec       q    Type
REMARK                         _______ _______ _______ _____ _____    ______ ____
ROOT
ATOM      1  C   UNL     1       2.382   4.796  20.583  0.00  0.00    +0.000 A 
ATOM      2  C   UNL     1       3.615   4.320  20.163  0.00  0.00    +0.000 A 
ATOM      3  C   UNL     1       4.314   5.062  19.199  0.00  0.00    +0.000 A 
ATOM      4  C   UNL     1       5.639   4.746  18.822  0.00  0.00    +0.000 A 
ATOM      5  C   UNL     1       6.281   5.586  17.935  0.00  0.00    +0.000 A 
ATOM      6  C   UNL     1       5.615   6.603  17.297  0.00  0.00    +0.000 A 
ATOM      7  C   UNL     1       4.306   6.890  17.572  0.00  0.00    +0.000 A 
ATOM      8  C   UNL     1       3.691   6.214  18.645  0.00  0.00    +0.000 A 
ATOM      9  C   UNL     1       2.515   6.683  19.266  0.00  0.00    +0.000 A 
ATOM     10  N   UNL     1       1.870   5.977  20.224  0.00  0.00    +0.000 NA
ATOM     11  O   UNL     1       6.425   7.345  16.494  0.00  0.00    +0.000 OA
ATOM     12  C   UNL     1       7.700   6.890  16.982  0.00  0.00    +0.000 C 
ATOM     13  O   UNL     1       7.608   5.598  17.628  0.00  0.00    +0.000 OA
ENDROOT
BRANCH   9  14
ATOM     14  C   UNL     1       1.992   8.059  19.097  0.00  0.00    +0.000 A 
ATOM     15  C   UNL     1       2.071   8.723  17.867  0.00  0.00    +0.000 A 
ATOM     16  C   UNL     1       1.561  10.016  17.712  0.00  0.00    +0.000 A 
ATOM     17  C   UNL     1       1.002  10.703  18.793  0.00  0.00    +0.000 A 
ATOM     18  C   UNL     1       0.845  10.026  19.998  0.00  0.00    +0.000 A 
ATOM     19  C   UNL     1       1.325   8.724  20.144  0.00  0.00    +0.000 A 
BRANCH  17  20
ATOM     20  N   UNL     1       0.394  11.949  18.608  0.00  0.00    +0.000 N 
ATOM     21  H   UNL     1       1.051  12.701  18.435  0.00  0.00    +0.000 HD
ATOM     22  H   UNL     1      -0.278  12.182  19.333  0.00  0.00    +0.000 HD
ENDBRANCH  17  20
ENDBRANCH   9  14
BRANCH   1  23
ATOM     23  O   UNL     1       1.714   4.099  21.604  0.00  0.00    +0.000 OA
BRANCH  23  25
ATOM     24  C   UNL     1       0.916   2.542  20.027  0.00  0.00    +0.000 C 
ATOM     25  C   UNL     1       1.608   2.738  21.344  0.00  0.00    +0.000 C 
ATOM     26  O   UNL     1       1.927   1.811  22.078  0.00  0.00    +0.000 OA
ENDBRANCH  23  25
ENDBRANCH   1  23
TORSDOF 4
ENDMDL
