MODEL 1
REMARK VINA RESULT:      -6.9      0.000      0.000
REMARK  Name = 
REMARK  6 active torsions:
REMARK  status: ('A' for Active; 'I' for Inactive)
REMARK    1  A    between atoms: C_1  and  C_2
REMARK    2  A    between atoms: C_2  and  C_3
REMARK    3  A    between atoms: N_5  and  S_6
REMARK    4  A    between atoms: S_6  and  C_9
REMARK    5  A    between atoms: C_14  and  C_15
REMARK    6  A    between atoms: C_22  and  C_24
REMARK                            x       y       z     vdW  Elec       q    Type
REMARK                         _______ _______ _______ _____ _____    ______ ____
ROOT
ATOM      1  C   UNL     1       2.382   7.208  18.517  0.00  0.00    +0.000 C 
ATOM      2  O   UNL     1       3.195   7.811  17.827  0.00  0.00    +0.000 OA
ATOM      3  N   UNL     1       1.281   7.872  19.086  0.00  0.00    +0.000 N 
ATOM      4  H   UNL     1       0.523   7.378  19.556  0.00  0.00    +0.000 HD
ENDROOT
BRANCH   1   6
ATOM      5  C   UNL     1       2.125   4.851  17.514  0.00  0.00    +0.000 C 
ATOM      6  C   UNL     1       2.440   5.646  18.782  0.00  0.00    +0.000 C 
ATOM      7  C   UNL     1       1.533   5.169  19.946  0.00  0.00    +0.000 C 
ATOM      8  C   UNL     1       2.776   4.896  20.781  0.00  0.00    +0.000 C 
ATOM      9  N   UNL     1       3.582   5.109  19.575  0.00  0.00    +0.000 N 
ATOM     10  C   UNL     1       4.636   4.291  19.207  0.00  0.00    +0.000 C 
ATOM     11  O   UNL     1       5.038   3.375  19.930  0.00  0.00    +0.000 OA
BRANCH  10  12
ATOM     12  C   UNL     1       5.347   4.543  17.930  0.00  0.00    +0.000 A 
ATOM     13  C   UNL     1       5.161   3.658  16.857  0.00  0.00    +0.000 A 
ATOM     14  C   UNL     1       5.841   3.857  15.650  0.00  0.00    +0.000 A 
ATOM     15  C   UNL     1       6.709   4.939  15.514  0.00  0.00    +0.000 A 
ATOM     16  C   UNL     1       6.907   5.795  16.589  0.00  0.00    +0.000 A 
ATOM     17  F   UNL     1       7.755   6.823  16.467  0.00  0.00    +0.000 F 
ATOM     18  C   UNL     1       6.250   5.601  17.796  0.00  0.00    +0.000 A 
ENDBRANCH  10  12
ENDBRANCH   1   6
BRANCH   3  19
ATOM     19  S   UNL     1       1.063   9.526  18.970  0.00  0.00    +0.000 S 
ATOM     20  O   UNL     1       2.364  10.156  18.944  0.00  0.00    +0.000 OA
ATOM     21  O   UNL     1       0.115   9.772  17.905  0.00  0.00    +0.000 OA
BRANCH  19  22
ATOM     22  C   UNL     1       0.313   9.938  20.534  0.00  0.00    +0.000 A 
ATOM     23  C   UNL     1       0.192   8.904  21.479  0.00  0.00    +0.000 A 
ATOM     24  C   UNL     1      -0.363   9.149  22.733  0.00  0.00    +0.000 A 
ATOM     25  C   UNL     1      -0.807  10.426  23.053  0.00  0.00    +0.000 A 
ATOM     26  C   UNL     1      -0.693  11.455  22.117  0.00  0.00    +0.000 A 
ATOM     27  C   UNL     1      -0.130  11.238  20.839  0.00  0.00    +0.000 A 
BRANCH  27  28
ATOM     28  C   UNL     1      -0.040  12.445  19.936  0.00  0.00    +0.000 C 
ATOM     29  F   UNL     1       1.184  12.772  19.454  0.00  0.00    +0.000 F 
ATOM     30  F   UNL     1      -0.861  12.344  18.855  0.00  0.00    +0.000 F 
ATOM     31  F   UNL     1      -0.442  13.574  20.596  0.00  0.00    +0.000 F 
ENDBRANCH  27  28
ENDBRANCH  19  22
ENDBRANCH   3  19
TORSDOF 5
ENDMDL
MODEL 2
REMARK VINA RESULT:      -6.9      6.212     10.822
REMARK  Name = 
REMARK  6 active torsions:
REMARK  status: ('A' for Active; 'I' for Inactive)
REMARK    1  A    between atoms: C_1  and  C_2
REMARK    2  A    between atoms: C_2  and  C_3
REMARK    3  A    between atoms: N_5  and  S_6
REMARK    4  A    between atoms: S_6  and  C_9
REMARK    5  A    between atoms: C_14  and  C_15
REMARK    6  A    between atoms: C_22  and  C_24
REMARK                            x       y       z     vdW  Elec       q    Type
REMARK                         _______ _______ _______ _____ _____    ______ ____
ROOT
ATOM      1  C   UNL     1      -3.180  14.095  21.524  0.00  0.00    +0.000 C 
ATOM      2  O   UNL     1      -2.264  14.140  22.337  0.00  0.00    +0.000 OA
ATOM      3  N   UNL     1      -3.084  13.297  20.369  0.00  0.00    +0.000 N 
ATOM      4  H   UNL     1      -3.872  13.139  19.743  0.00  0.00    +0.000 HD
ENDROOT
BRANCH   1   6
ATOM      5  C   UNL     1      -4.993  15.549  20.418  0.00  0.00    +0.000 C 
ATOM      6  C   UNL     1      -4.560  14.852  21.710  0.00  0.00    +0.000 C 
ATOM      7  C   UNL     1      -4.574  15.862  22.886  0.00  0.00    +0.000 C 
ATOM      8  C   UNL     1      -5.503  14.931  23.653  0.00  0.00    +0.000 C 
ATOM      9  N   UNL     1      -5.660  14.145  22.425  0.00  0.00    +0.000 N 
ATOM     10  C   UNL     1      -6.878  13.672  21.971  0.00  0.00    +0.000 C 
ATOM     11  O   UNL     1      -7.915  13.795  22.630  0.00  0.00    +0.000 OA
BRANCH  10  12
ATOM     12  C   UNL     1      -6.948  12.948  20.678  0.00  0.00    +0.000 A 
ATOM     13  C   UNL     1      -7.404  13.628  19.538  0.00  0.00    +0.000 A 
ATOM     14  C   UNL     1      -7.505  12.961  18.312  0.00  0.00    +0.000 A 
ATOM     15  C   UNL     1      -7.155  11.615  18.223  0.00  0.00    +0.000 A 
ATOM     16  C   UNL     1      -6.730  10.944  19.362  0.00  0.00    +0.000 A 
ATOM     17  F   UNL     1      -6.411   9.646  19.284  0.00  0.00    +0.000 F 
ATOM     18  C   UNL     1      -6.638  11.589  20.587  0.00  0.00    +0.000 A 
ENDBRANCH  10  12
ENDBRANCH   1   6
BRANCH   3  19
ATOM     19  S   UNL     1      -1.695  12.460  19.961  0.00  0.00    +0.000 S 
ATOM     20  O   UNL     1      -0.715  13.410  19.483  0.00  0.00    +0.000 OA
ATOM     21  O   UNL     1      -1.374  11.575  21.059  0.00  0.00    +0.000 OA
BRANCH  19  22
ATOM     22  C   UNL     1      -2.213  11.493  18.556  0.00  0.00    +0.000 A 
ATOM     23  C   UNL     1      -3.490  11.761  18.029  0.00  0.00    +0.000 A 
ATOM     24  C   UNL     1      -3.960  11.064  16.918  0.00  0.00    +0.000 A 
ATOM     25  C   UNL     1      -3.165  10.091  16.327  0.00  0.00    +0.000 A 
ATOM     26  C   UNL     1      -1.899   9.817  16.849  0.00  0.00    +0.000 A 
ATOM     27  C   UNL     1      -1.393  10.511  17.971  0.00  0.00    +0.000 A 
BRANCH  27  28
ATOM     28  C   UNL     1       0.003  10.137  18.413  0.00  0.00    +0.000 C 
ATOM     29  F   UNL     1       0.925  11.129  18.466  0.00  0.00    +0.000 F 
ATOM     30  F   UNL     1       0.015   9.540  19.635  0.00  0.00    +0.000 F 
ATOM     31  F   UNL     1       0.553   9.225  17.555  0.00  0.00    +0.000 F 
ENDBRANCH  27  28
ENDBRANCH  19  22
ENDBRANCH   3  19
TORSDOF 5
ENDMDL
MODEL 3
REMARK VINA RESULT:      -6.8      0.819      1.201
REMARK  Name = 
REMARK  6 active torsions:
REMARK  status: ('A' for Active; 'I' for Inactive)
REMARK    1  A    between atoms: C_1  and  C_2
REMARK    2  A    between atoms: C_2  and  C_3
REMARK    3  A    between atoms: N_5  and  S_6
REMARK    4  A    between atoms: S_6  and  C_9
REMARK    5  A    between atoms: C_14  and  C_15
REMARK    6  A    between atoms: C_22  and  C_24
REMARK                            x       y       z     vdW  Elec       q    Type
REMARK                         _______ _______ _______ _____ _____    ______ ____
ROOT
ATOM      1  C   UNL     1       2.477   7.219  18.424  0.00  0.00    +0.000 C 
ATOM      2  O   UNL     1       3.271   7.841  17.729  0.00  0.00    +0.000 OA
ATOM      3  N   UNL     1       1.363   7.858  18.999  0.00  0.00    +0.000 N 
ATOM      4  H   UNL     1       0.621   7.347  19.475  0.00  0.00    +0.000 HD
ENDROOT
BRANCH   1   6
ATOM      5  C   UNL     1       2.313   4.857  17.415  0.00  0.00    +0.000 C 
ATOM      6  C   UNL     1       2.574   5.659  18.691  0.00  0.00    +0.000 C 
ATOM      7  C   UNL     1       1.652   5.156  19.832  0.00  0.00    +0.000 C 
ATOM      8  C   UNL     1       2.882   4.919  20.698  0.00  0.00    +0.000 C 
ATOM      9  N   UNL     1       3.711   5.156  19.512  0.00  0.00    +0.000 N 
ATOM     10  C   UNL     1       4.797   4.369  19.170  0.00  0.00    +0.000 C 
ATOM     11  O   UNL     1       5.207   3.465  19.903  0.00  0.00    +0.000 OA
BRANCH  10  12
ATOM     12  C   UNL     1       5.531   4.642  17.911  0.00  0.00    +0.000 A 
ATOM     13  C   UNL     1       6.306   5.808  17.810  0.00  0.00    +0.000 A 
ATOM     14  C   UNL     1       6.987   6.103  16.624  0.00  0.00    +0.000 A 
ATOM     15  C   UNL     1       6.894   5.236  15.536  0.00  0.00    +0.000 A 
ATOM     16  C   UNL     1       6.104   4.098  15.636  0.00  0.00    +0.000 A 
ATOM     17  F   UNL     1       5.997   3.275  14.587  0.00  0.00    +0.000 F 
ATOM     18  C   UNL     1       5.412   3.801  16.802  0.00  0.00    +0.000 A 
ENDBRANCH  10  12
ENDBRANCH   1   6
BRANCH   3  19
ATOM     19  S   UNL     1       1.106   9.506  18.882  0.00  0.00    +0.000 S 
ATOM     20  O   UNL     1       2.391  10.166  18.837  0.00  0.00    +0.000 OA
ATOM     21  O   UNL     1       0.138   9.727  17.830  0.00  0.00    +0.000 OA
BRANCH  19  22
ATOM     22  C   UNL     1       0.368   9.905  20.456  0.00  0.00    +0.000 A 
ATOM     23  C   UNL     1       0.267   8.865  21.397  0.00  0.00    +0.000 A 
ATOM     24  C   UNL     1      -0.277   9.101  22.658  0.00  0.00    +0.000 A 
ATOM     25  C   UNL     1      -0.730  10.372  22.988  0.00  0.00    +0.000 A 
ATOM     26  C   UNL     1      -0.635  11.406  22.055  0.00  0.00    +0.000 A 
ATOM     27  C   UNL     1      -0.084  11.200  20.771  0.00  0.00    +0.000 A 
BRANCH  27  28
ATOM     28  C   UNL     1      -0.014  12.411  19.872  0.00  0.00    +0.000 C 
ATOM     29  F   UNL     1       1.203  12.751  19.379  0.00  0.00    +0.000 F 
ATOM     30  F   UNL     1      -0.844  12.307  18.799  0.00  0.00    +0.000 F 
ATOM     31  F   UNL     1      -0.420  13.533  20.541  0.00  0.00    +0.000 F 
ENDBRANCH  27  28
ENDBRANCH  19  22
ENDBRANCH   3  19
TORSDOF 5
ENDMDL
MODEL 4
REMARK VINA RESULT:      -6.7      2.271      3.700
REMARK  Name = 
REMARK  6 active torsions:
REMARK  status: ('A' for Active; 'I' for Inactive)
REMARK    1  A    between atoms: C_1  and  C_2
REMARK    2  A    between atoms: C_2  and  C_3
REMARK    3  A    between atoms: N_5  and  S_6
REMARK    4  A    between atoms: S_6  and  C_9
REMARK    5  A    between atoms: C_14  and  C_15
REMARK    6  A    between atoms: C_22  and  C_24
REMARK                            x       y       z     vdW  Elec       q    Type
REMARK                         _______ _______ _______ _____ _____    ______ ____
ROOT
ATOM      1  C   UNL     1       3.714   7.184  17.383  0.00  0.00    +0.000 C 
ATOM      2  O   UNL     1       3.707   7.697  16.271  0.00  0.00    +0.000 OA
ATOM      3  N   UNL     1       2.793   7.581  18.370  0.00  0.00    +0.000 N 
ATOM      4  H   UNL     1       2.691   7.089  19.256  0.00  0.00    +0.000 HD
ENDROOT
BRANCH   1   6
ATOM      5  C   UNL     1       4.914   5.978  19.315  0.00  0.00    +0.000 C 
ATOM      6  C   UNL     1       4.686   6.004  17.802  0.00  0.00    +0.000 C 
ATOM      7  C   UNL     1       6.048   6.015  17.062  0.00  0.00    +0.000 C 
ATOM      8  C   UNL     1       5.619   4.776  16.288  0.00  0.00    +0.000 C 
ATOM      9  N   UNL     1       4.468   4.663  17.191  0.00  0.00    +0.000 N 
ATOM     10  C   UNL     1       4.052   3.468  17.751  0.00  0.00    +0.000 C 
ATOM     11  O   UNL     1       4.566   2.388  17.447  0.00  0.00    +0.000 OA
BRANCH  10  12
ATOM     12  C   UNL     1       2.922   3.464  18.712  0.00  0.00    +0.000 A 
ATOM     13  C   UNL     1       1.610   3.570  18.225  0.00  0.00    +0.000 A 
ATOM     14  C   UNL     1       0.528   3.596  19.111  0.00  0.00    +0.000 A 
ATOM     15  C   UNL     1       0.754   3.518  20.485  0.00  0.00    +0.000 A 
ATOM     16  C   UNL     1       2.057   3.439  20.959  0.00  0.00    +0.000 A 
ATOM     17  F   UNL     1       2.277   3.384  22.278  0.00  0.00    +0.000 F 
ATOM     18  C   UNL     1       3.140   3.427  20.091  0.00  0.00    +0.000 A 
ENDBRANCH  10  12
ENDBRANCH   1   6
BRANCH   3  19
ATOM     19  S   UNL     1       1.718   8.843  18.148  0.00  0.00    +0.000 S 
ATOM     20  O   UNL     1       2.469  10.023  17.783  0.00  0.00    +0.000 OA
ATOM     21  O   UNL     1       0.651   8.368  17.294  0.00  0.00    +0.000 OA
BRANCH  19  22
ATOM     22  C   UNL     1       1.081   9.115  19.791  0.00  0.00    +0.000 A 
ATOM     23  C   UNL     1       1.705   8.420  20.843  0.00  0.00    +0.000 A 
ATOM     24  C   UNL     1       1.282   8.595  22.158  0.00  0.00    +0.000 A 
ATOM     25  C   UNL     1       0.230   9.459  22.436  0.00  0.00    +0.000 A 
ATOM     26  C   UNL     1      -0.396  10.147  21.394  0.00  0.00    +0.000 A 
ATOM     27  C   UNL     1       0.015   9.995  20.051  0.00  0.00    +0.000 A 
BRANCH  27  28
ATOM     28  C   UNL     1      -0.728  10.822  19.028  0.00  0.00    +0.000 C 
ATOM     29  F   UNL     1       0.007  11.648  18.244  0.00  0.00    +0.000 F 
ATOM     30  F   UNL     1      -1.470  10.055  18.184  0.00  0.00    +0.000 F 
ATOM     31  F   UNL     1      -1.619  11.660  19.640  0.00  0.00    +0.000 F 
ENDBRANCH  27  28
ENDBRANCH  19  22
ENDBRANCH   3  19
TORSDOF 5
ENDMDL
MODEL 5
REMARK VINA RESULT:      -6.6      2.485      3.565
REMARK  Name = 
REMARK  6 active torsions:
REMARK  status: ('A' for Active; 'I' for Inactive)
REMARK    1  A    between atoms: C_1  and  C_2
REMARK    2  A    between atoms: C_2  and  C_3
REMARK    3  A    between atoms: N_5  and  S_6
REMARK    4  A    between atoms: S_6  and  C_9
REMARK    5  A    between atoms: C_14  and  C_15
REMARK    6  A    between atoms: C_22  and  C_24
REMARK                            x       y       z     vdW  Elec       q    Type
REMARK                         _______ _______ _______ _____ _____    ______ ____
ROOT
ATOM      1  C   UNL     1       2.768   7.252  17.922  0.00  0.00    +0.000 C 
ATOM      2  O   UNL     1       1.675   6.706  17.834  0.00  0.00    +0.000 OA
ATOM      3  N   UNL     1       2.869   8.640  18.131  0.00  0.00    +0.000 N 
ATOM      4  H   UNL     1       3.754   9.102  18.334  0.00  0.00    +0.000 HD
ENDROOT
BRANCH   1   6
ATOM      5  C   UNL     1       4.626   6.104  19.284  0.00  0.00    +0.000 C 
ATOM      6  C   UNL     1       4.148   6.473  17.878  0.00  0.00    +0.000 C 
ATOM      7  C   UNL     1       5.272   7.221  17.117  0.00  0.00    +0.000 C 
ATOM      8  C   UNL     1       5.177   6.192  15.999  0.00  0.00    +0.000 C 
ATOM      9  N   UNL     1       4.312   5.389  16.870  0.00  0.00    +0.000 N 
ATOM     10  C   UNL     1       4.443   4.020  17.023  0.00  0.00    +0.000 C 
ATOM     11  O   UNL     1       5.242   3.359  16.354  0.00  0.00    +0.000 OA
BRANCH  10  12
ATOM     12  C   UNL     1       3.568   3.304  17.983  0.00  0.00    +0.000 A 
ATOM     13  C   UNL     1       4.141   2.704  19.115  0.00  0.00    +0.000 A 
ATOM     14  C   UNL     1       3.342   1.999  20.022  0.00  0.00    +0.000 A 
ATOM     15  C   UNL     1       1.970   1.890  19.799  0.00  0.00    +0.000 A 
ATOM     16  C   UNL     1       1.416   2.465  18.663  0.00  0.00    +0.000 A 
ATOM     17  F   UNL     1       0.102   2.345  18.437  0.00  0.00    +0.000 F 
ATOM     18  C   UNL     1       2.199   3.155  17.748  0.00  0.00    +0.000 A 
ENDBRANCH  10  12
ENDBRANCH   1   6
BRANCH   3  19
ATOM     19  S   UNL     1       1.536   9.650  18.156  0.00  0.00    +0.000 S 
ATOM     20  O   UNL     1       1.992  11.009  17.965  0.00  0.00    +0.000 OA
ATOM     21  O   UNL     1       0.540   9.087  17.271  0.00  0.00    +0.000 OA
BRANCH  19  22
ATOM     22  C   UNL     1       0.970   9.520  19.841  0.00  0.00    +0.000 A 
ATOM     23  C   UNL     1       1.724   8.709  20.709  0.00  0.00    +0.000 A 
ATOM     24  C   UNL     1       1.360   8.573  22.047  0.00  0.00    +0.000 A 
ATOM     25  C   UNL     1       0.240   9.237  22.529  0.00  0.00    +0.000 A 
ATOM     26  C   UNL     1      -0.514  10.039  21.670  0.00  0.00    +0.000 A 
ATOM     27  C   UNL     1      -0.168  10.201  20.310  0.00  0.00    +0.000 A 
BRANCH  27  28
ATOM     28  C   UNL     1      -1.052  11.121  19.501  0.00  0.00    +0.000 C 
ATOM     29  F   UNL     1      -0.450  12.142  18.842  0.00  0.00    +0.000 F 
ATOM     30  F   UNL     1      -1.785  10.448  18.574  0.00  0.00    +0.000 F 
ATOM     31  F   UNL     1      -1.964  11.746  20.306  0.00  0.00    +0.000 F 
ENDBRANCH  27  28
ENDBRANCH  19  22
ENDBRANCH   3  19
TORSDOF 5
ENDMDL
MODEL 6
REMARK VINA RESULT:      -6.6      4.255      7.709
REMARK  Name = 
REMARK  6 active torsions:
REMARK  status: ('A' for Active; 'I' for Inactive)
REMARK    1  A    between atoms: C_1  and  C_2
REMARK    2  A    between atoms: C_2  and  C_3
REMARK    3  A    between atoms: N_5  and  S_6
REMARK    4  A    between atoms: S_6  and  C_9
REMARK    5  A    between atoms: C_14  and  C_15
REMARK    6  A    between atoms: C_22  and  C_24
REMARK                            x       y       z     vdW  Elec       q    Type
REMARK                         _______ _______ _______ _____ _____    ______ ____
ROOT
ATOM      1  C   UNL     1       3.930   6.845  17.853  0.00  0.00    +0.000 C 
ATOM      2  O   UNL     1       4.475   7.341  16.875  0.00  0.00    +0.000 OA
ATOM      3  N   UNL     1       4.638   5.998  18.725  0.00  0.00    +0.000 N 
ATOM      4  H   UNL     1       4.252   5.673  19.611  0.00  0.00    +0.000 HD
ENDROOT
BRANCH   1   6
ATOM      5  C   UNL     1       1.448   6.246  17.522  0.00  0.00    +0.000 C 
ATOM      6  C   UNL     1       2.431   7.146  18.273  0.00  0.00    +0.000 C 
ATOM      7  C   UNL     1       2.017   8.632  18.113  0.00  0.00    +0.000 C 
ATOM      8  C   UNL     1       1.989   8.770  19.629  0.00  0.00    +0.000 C 
ATOM      9  N   UNL     1       2.127   7.313  19.722  0.00  0.00    +0.000 N 
ATOM     10  C   UNL     1       1.384   6.530  20.588  0.00  0.00    +0.000 C 
ATOM     11  O   UNL     1       0.618   7.020  21.422  0.00  0.00    +0.000 OA
BRANCH  10  12
ATOM     12  C   UNL     1       1.541   5.055  20.559  0.00  0.00    +0.000 A 
ATOM     13  C   UNL     1       2.473   4.449  21.416  0.00  0.00    +0.000 A 
ATOM     14  C   UNL     1       2.660   3.063  21.389  0.00  0.00    +0.000 A 
ATOM     15  C   UNL     1       1.919   2.280  20.505  0.00  0.00    +0.000 A 
ATOM     16  C   UNL     1       1.017   2.890  19.644  0.00  0.00    +0.000 A 
ATOM     17  F   UNL     1       0.318   2.143  18.781  0.00  0.00    +0.000 F 
ATOM     18  C   UNL     1       0.832   4.266  19.650  0.00  0.00    +0.000 A 
ENDBRANCH  10  12
ENDBRANCH   1   6
BRANCH   3  19
ATOM     19  S   UNL     1       6.212   5.513  18.435  0.00  0.00    +0.000 S 
ATOM     20  O   UNL     1       7.046   6.692  18.366  0.00  0.00    +0.000 OA
ATOM     21  O   UNL     1       6.526   4.454  19.369  0.00  0.00    +0.000 OA
BRANCH  19  22
ATOM     22  C   UNL     1       6.123   4.839  16.787  0.00  0.00    +0.000 A 
ATOM     23  C   UNL     1       7.052   5.319  15.847  0.00  0.00    +0.000 A 
ATOM     24  C   UNL     1       7.062   4.827  14.544  0.00  0.00    +0.000 A 
ATOM     25  C   UNL     1       6.142   3.857  14.165  0.00  0.00    +0.000 A 
ATOM     26  C   UNL     1       5.215   3.380  15.094  0.00  0.00    +0.000 A 
ATOM     27  C   UNL     1       5.183   3.857  16.424  0.00  0.00    +0.000 A 
BRANCH  27  28
ATOM     28  C   UNL     1       4.149   3.233  17.331  0.00  0.00    +0.000 C 
ATOM     29  F   UNL     1       4.289   3.436  18.665  0.00  0.00    +0.000 F 
ATOM     30  F   UNL     1       2.884   3.623  17.017  0.00  0.00    +0.000 F 
ATOM     31  F   UNL     1       4.154   1.871  17.206  0.00  0.00    +0.000 F 
ENDBRANCH  27  28
ENDBRANCH  19  22
ENDBRANCH   3  19
TORSDOF 5
ENDMDL
MODEL 7
REMARK VINA RESULT:      -6.5      4.230      7.646
REMARK  Name = 
REMARK  6 active torsions:
REMARK  status: ('A' for Active; 'I' for Inactive)
REMARK    1  A    between atoms: C_1  and  C_2
REMARK    2  A    between atoms: C_2  and  C_3
REMARK    3  A    between atoms: N_5  and  S_6
REMARK    4  A    between atoms: S_6  and  C_9
REMARK    5  A    between atoms: C_14  and  C_15
REMARK    6  A    between atoms: C_22  and  C_24
REMARK                            x       y       z     vdW  Elec       q    Type
REMARK                         _______ _______ _______ _____ _____    ______ ____
ROOT
ATOM      1  C   UNL     1       3.970   6.868  17.796  0.00  0.00    +0.000 C 
ATOM      2  O   UNL     1       4.455   7.308  16.761  0.00  0.00    +0.000 OA
ATOM      3  N   UNL     1       4.744   6.110  18.694  0.00  0.00    +0.000 N 
ATOM      4  H   UNL     1       4.407   5.840  19.617  0.00  0.00    +0.000 HD
ENDROOT
BRANCH   1   6
ATOM      5  C   UNL     1       1.481   6.289  17.487  0.00  0.00    +0.000 C 
ATOM      6  C   UNL     1       2.481   7.152  18.260  0.00  0.00    +0.000 C 
ATOM      7  C   UNL     1       2.067   8.644  18.178  0.00  0.00    +0.000 C 
ATOM      8  C   UNL     1       2.070   8.711  19.699  0.00  0.00    +0.000 C 
ATOM      9  N   UNL     1       2.206   7.250  19.721  0.00  0.00    +0.000 N 
ATOM     10  C   UNL     1       1.479   6.429  20.564  0.00  0.00    +0.000 C 
ATOM     11  O   UNL     1       0.731   6.881  21.435  0.00  0.00    +0.000 OA
BRANCH  10  12
ATOM     12  C   UNL     1       1.631   4.957  20.462  0.00  0.00    +0.000 A 
ATOM     13  C   UNL     1       0.643   4.211  19.801  0.00  0.00    +0.000 A 
ATOM     14  C   UNL     1       0.749   2.818  19.715  0.00  0.00    +0.000 A 
ATOM     15  C   UNL     1       1.840   2.168  20.290  0.00  0.00    +0.000 A 
ATOM     16  C   UNL     1       2.799   2.912  20.965  0.00  0.00    +0.000 A 
ATOM     17  F   UNL     1       3.837   2.288  21.535  0.00  0.00    +0.000 F 
ATOM     18  C   UNL     1       2.699   4.292  21.070  0.00  0.00    +0.000 A 
ENDBRANCH  10  12
ENDBRANCH   1   6
BRANCH   3  19
ATOM     19  S   UNL     1       6.320   5.656  18.369  0.00  0.00    +0.000 S 
ATOM     20  O   UNL     1       7.114   6.853  18.202  0.00  0.00    +0.000 OA
ATOM     21  O   UNL     1       6.702   4.661  19.347  0.00  0.00    +0.000 OA
BRANCH  19  22
ATOM     22  C   UNL     1       6.189   4.887  16.766  0.00  0.00    +0.000 A 
ATOM     23  C   UNL     1       7.019   5.387  15.746  0.00  0.00    +0.000 A 
ATOM     24  C   UNL     1       6.992   4.827  14.471  0.00  0.00    +0.000 A 
ATOM     25  C   UNL     1       6.135   3.768  14.200  0.00  0.00    +0.000 A 
ATOM     26  C   UNL     1       5.306   3.271  15.208  0.00  0.00    +0.000 A 
ATOM     27  C   UNL     1       5.314   3.815  16.512  0.00  0.00    +0.000 A 
BRANCH  27  28
ATOM     28  C   UNL     1       4.390   3.163  17.513  0.00  0.00    +0.000 C 
ATOM     29  F   UNL     1       4.842   3.032  18.784  0.00  0.00    +0.000 F 
ATOM     30  F   UNL     1       3.190   3.800  17.599  0.00  0.00    +0.000 F 
ATOM     31  F   UNL     1       4.097   1.881  17.137  0.00  0.00    +0.000 F 
ENDBRANCH  27  28
ENDBRANCH  19  22
ENDBRANCH   3  19
TORSDOF 5
ENDMDL
MODEL 8
REMARK VINA RESULT:      -6.4      5.812     10.543
REMARK  Name = 
REMARK  6 active torsions:
REMARK  status: ('A' for Active; 'I' for Inactive)
REMARK    1  A    between atoms: C_1  and  C_2
REMARK    2  A    between atoms: C_2  and  C_3
REMARK    3  A    between atoms: N_5  and  S_6
REMARK    4  A    between atoms: S_6  and  C_9
REMARK    5  A    between atoms: C_14  and  C_15
REMARK    6  A    between atoms: C_22  and  C_24
REMARK                            x       y       z     vdW  Elec       q    Type
REMARK                         _______ _______ _______ _____ _____    ______ ____
ROOT
ATOM      1  C   UNL     1      -2.870  13.051  21.708  0.00  0.00    +0.000 C 
ATOM      2  O   UNL     1      -2.679  12.011  22.327  0.00  0.00    +0.000 OA
ATOM      3  N   UNL     1      -2.089  13.380  20.586  0.00  0.00    +0.000 N 
ATOM      4  H   UNL     1      -2.304  14.169  19.978  0.00  0.00    +0.000 HD
ENDROOT
BRANCH   1   6
ATOM      5  C   UNL     1      -4.265  15.058  20.899  0.00  0.00    +0.000 C 
ATOM      6  C   UNL     1      -4.028  14.078  22.050  0.00  0.00    +0.000 C 
ATOM      7  C   UNL     1      -3.810  14.859  23.373  0.00  0.00    +0.000 C 
ATOM      8  C   UNL     1      -4.945  14.068  24.007  0.00  0.00    +0.000 C 
ATOM      9  N   UNL     1      -5.274  13.551  22.674  0.00  0.00    +0.000 N 
ATOM     10  C   UNL     1      -6.566  13.465  22.186  0.00  0.00    +0.000 C 
ATOM     11  O   UNL     1      -7.549  13.726  22.885  0.00  0.00    +0.000 OA
BRANCH  10  12
ATOM     12  C   UNL     1      -6.794  12.998  20.797  0.00  0.00    +0.000 A 
ATOM     13  C   UNL     1      -7.453  13.842  19.891  0.00  0.00    +0.000 A 
ATOM     14  C   UNL     1      -7.706  13.415  18.582  0.00  0.00    +0.000 A 
ATOM     15  C   UNL     1      -7.303  12.143  18.178  0.00  0.00    +0.000 A 
ATOM     16  C   UNL     1      -6.675  11.305  19.089  0.00  0.00    +0.000 A 
ATOM     17  F   UNL     1      -6.304  10.076  18.709  0.00  0.00    +0.000 F 
ATOM     18  C   UNL     1      -6.431  11.710  20.394  0.00  0.00    +0.000 A 
ENDBRANCH  10  12
ENDBRANCH   1   6
BRANCH   3  19
ATOM     19  S   UNL     1      -0.785  12.458  20.089  0.00  0.00    +0.000 S 
ATOM     20  O   UNL     1       0.175  13.332  19.452  0.00  0.00    +0.000 OA
ATOM     21  O   UNL     1      -0.383  11.627  21.203  0.00  0.00    +0.000 OA
BRANCH  19  22
ATOM     22  C   UNL     1      -1.488  11.433  18.811  0.00  0.00    +0.000 A 
ATOM     23  C   UNL     1      -2.809  11.714  18.419  0.00  0.00    +0.000 A 
ATOM     24  C   UNL     1      -3.423  10.973  17.412  0.00  0.00    +0.000 A 
ATOM     25  C   UNL     1      -2.727   9.944  16.790  0.00  0.00    +0.000 A 
ATOM     26  C   UNL     1      -1.417   9.658  17.179  0.00  0.00    +0.000 A 
ATOM     27  C   UNL     1      -0.766  10.395  18.194  0.00  0.00    +0.000 A 
BRANCH  27  28
ATOM     28  C   UNL     1       0.661  10.001  18.494  0.00  0.00    +0.000 C 
ATOM     29  F   UNL     1       0.948   9.623  19.764  0.00  0.00    +0.000 F 
ATOM     30  F   UNL     1       1.099   8.996  17.688  0.00  0.00    +0.000 F 
ATOM     31  F   UNL     1       1.510  11.049  18.266  0.00  0.00    +0.000 F 
ENDBRANCH  27  28
ENDBRANCH  19  22
ENDBRANCH   3  19
TORSDOF 5
ENDMDL
MODEL 9
REMARK VINA RESULT:      -6.4      0.856      1.102
REMARK  Name = 
REMARK  6 active torsions:
REMARK  status: ('A' for Active; 'I' for Inactive)
REMARK    1  A    between atoms: C_1  and  C_2
REMARK    2  A    between atoms: C_2  and  C_3
REMARK    3  A    between atoms: N_5  and  S_6
REMARK    4  A    between atoms: S_6  and  C_9
REMARK    5  A    between atoms: C_14  and  C_15
REMARK    6  A    between atoms: C_22  and  C_24
REMARK                            x       y       z     vdW  Elec       q    Type
REMARK                         _______ _______ _______ _____ _____    ______ ____
ROOT
ATOM      1  C   UNL     1       2.180   7.278  18.416  0.00  0.00    +0.000 C 
ATOM      2  O   UNL     1       2.767   7.841  17.499  0.00  0.00    +0.000 OA
ATOM      3  N   UNL     1       1.240   7.967  19.203  0.00  0.00    +0.000 N 
ATOM      4  H   UNL     1       0.646   7.498  19.886  0.00  0.00    +0.000 HD
ENDROOT
BRANCH   1   6
ATOM      5  C   UNL     1       1.780   4.849  17.666  0.00  0.00    +0.000 C 
ATOM      6  C   UNL     1       2.359   5.742  18.764  0.00  0.00    +0.000 C 
ATOM      7  C   UNL     1       1.774   5.335  20.141  0.00  0.00    +0.000 C 
ATOM      8  C   UNL     1       3.189   5.151  20.670  0.00  0.00    +0.000 C 
ATOM      9  N   UNL     1       3.676   5.290  19.294  0.00  0.00    +0.000 N 
ATOM     10  C   UNL     1       4.642   4.469  18.739  0.00  0.00    +0.000 C 
ATOM     11  O   UNL     1       5.239   3.618  19.405  0.00  0.00    +0.000 OA
BRANCH  10  12
ATOM     12  C   UNL     1       5.018   4.639  17.315  0.00  0.00    +0.000 A 
ATOM     13  C   UNL     1       5.524   3.539  16.605  0.00  0.00    +0.000 A 
ATOM     14  C   UNL     1       5.912   3.679  15.268  0.00  0.00    +0.000 A 
ATOM     15  C   UNL     1       5.798   4.918  14.638  0.00  0.00    +0.000 A 
ATOM     16  C   UNL     1       5.320   6.006  15.356  0.00  0.00    +0.000 A 
ATOM     17  F   UNL     1       5.228   7.201  14.759  0.00  0.00    +0.000 F 
ATOM     18  C   UNL     1       4.945   5.884  16.687  0.00  0.00    +0.000 A 
ENDBRANCH  10  12
ENDBRANCH   1   6
BRANCH   3  19
ATOM     19  S   UNL     1       0.942   9.604  19.033  0.00  0.00    +0.000 S 
ATOM     20  O   UNL     1       2.211  10.294  18.979  0.00  0.00    +0.000 OA
ATOM     21  O   UNL     1      -0.021   9.768  17.966  0.00  0.00    +0.000 OA
BRANCH  19  22
ATOM     22  C   UNL     1       0.179  10.032  20.587  0.00  0.00    +0.000 A 
ATOM     23  C   UNL     1       0.229   9.069  21.611  0.00  0.00    +0.000 A 
ATOM     24  C   UNL     1      -0.324   9.335  22.862  0.00  0.00    +0.000 A 
ATOM     25  C   UNL     1      -0.937  10.559  23.100  0.00  0.00    +0.000 A 
ATOM     26  C   UNL     1      -0.993  11.516  22.084  0.00  0.00    +0.000 A 
ATOM     27  C   UNL     1      -0.436  11.277  20.807  0.00  0.00    +0.000 A 
BRANCH  27  28
ATOM     28  C   UNL     1      -0.540  12.409  19.812  0.00  0.00    +0.000 C 
ATOM     29  F   UNL     1      -1.011  13.596  20.267  0.00  0.00    +0.000 F 
ATOM     30  F   UNL     1       0.650  12.677  19.209  0.00  0.00    +0.000 F 
ATOM     31  F   UNL     1      -1.398  12.084  18.798  0.00  0.00    +0.000 F 
ENDBRANCH  27  28
ENDBRANCH  19  22
ENDBRANCH   3  19
TORSDOF 5
ENDMDL
