MODEL 1
REMARK VINA RESULT:      -8.8      0.000      0.000
REMARK  Name = 
REMARK  3 active torsions:
REMARK  status: ('A' for Active; 'I' for Inactive)
REMARK    1  A    between atoms: C_5  and  C_6
REMARK    2  A    between atoms: C_12  and  C_13
REMARK    3  A    between atoms: C_17  and  N_18
REMARK                            x       y       z     vdW  Elec       q    Type
REMARK                         _______ _______ _______ _____ _____    ______ ____
ROOT
ATOM      1  C   UNL     1       5.043   4.722  17.466  0.00  0.00    +0.000 A 
ATOM      2  C   UNL     1       5.013   3.492  18.138  0.00  0.00    +0.000 A 
ATOM      3  C   UNL     1       4.194   3.277  19.256  0.00  0.00    +0.000 A 
ATOM      4  C   UNL     1       3.385   4.336  19.680  0.00  0.00    +0.000 A 
ATOM      5  N   UNL     1       2.499   4.422  20.729  0.00  0.00    +0.000 N 
ATOM      6  C   UNL     1       1.899   5.656  20.746  0.00  0.00    +0.000 A 
ATOM      7  C   UNL     1       2.399   6.398  19.693  0.00  0.00    +0.000 A 
ATOM      8  C   UNL     1       3.358   5.568  19.028  0.00  0.00    +0.000 A 
ATOM      9  C   UNL     1       4.193   5.750  17.907  0.00  0.00    +0.000 A 
ATOM     10  H   UNL     1       2.315   3.675  21.383  0.00  0.00    +0.000 HD
ENDROOT
BRANCH   1  15
ATOM     11  N   UNL     1       7.426   4.718  12.919  0.00  0.00    +0.000 N 
ATOM     12  C   UNL     1       7.024   4.912  14.190  0.00  0.00    +0.000 A 
ATOM     13  N   UNL     1       7.649   5.656  15.071  0.00  0.00    +0.000 NA
ATOM     14  N   UNL     1       7.009   5.677  16.297  0.00  0.00    +0.000 NA
ATOM     15  C   UNL     1       5.933   4.914  16.313  0.00  0.00    +0.000 A 
ATOM     16  S   UNL     1       5.610   4.161  14.795  0.00  0.00    +0.000 S 
ATOM     17  H   UNL     1       8.392   4.950  12.716  0.00  0.00    +0.000 HD
ATOM     18  H   UNL     1       7.074   3.909  12.423  0.00  0.00    +0.000 HD
ENDBRANCH   1  15
BRANCH   7  19
ATOM     19  C   UNL     1       1.981   7.755  19.352  0.00  0.00    +0.000 A 
ATOM     20  C   UNL     1       2.317   8.334  18.133  0.00  0.00    +0.000 A 
ATOM     21  C   UNL     1       1.953   9.656  17.894  0.00  0.00    +0.000 A 
ATOM     22  C   UNL     1       1.258  10.361  18.871  0.00  0.00    +0.000 A 
ATOM     23  C   UNL     1       0.947   9.716  20.065  0.00  0.00    +0.000 A 
ATOM     24  N   UNL     1       1.305   8.428  20.318  0.00  0.00    +0.000 NA
BRANCH  23  25
ATOM     25  N   UNL     1       0.227  10.433  21.069  0.00  0.00    +0.000 N 
ATOM     26  C   UNL     1      -0.058  11.784  21.068  0.00  0.00    +0.000 A 
ATOM     27  C   UNL     1      -0.737  12.058  22.231  0.00  0.00    +0.000 A 
ATOM     28  C   UNL     1      -0.828  10.818  22.882  0.00  0.00    +0.000 A 
ATOM     29  N   UNL     1      -0.266   9.828  22.187  0.00  0.00    +0.000 NA
ENDBRANCH  23  25
ENDBRANCH   7  19
TORSDOF 3
ENDMDL
MODEL 2
REMARK VINA RESULT:      -8.7      2.440      8.230
REMARK  Name = 
REMARK  3 active torsions:
REMARK  status: ('A' for Active; 'I' for Inactive)
REMARK    1  A    between atoms: C_5  and  C_6
REMARK    2  A    between atoms: C_12  and  C_13
REMARK    3  A    between atoms: C_17  and  N_18
REMARK                            x       y       z     vdW  Elec       q    Type
REMARK                         _______ _______ _______ _____ _____    ______ ____
ROOT
ATOM      1  C   UNL     1       1.871   6.670  20.206  0.00  0.00    +0.000 A 
ATOM      2  C   UNL     1       1.099   5.689  20.845  0.00  0.00    +0.000 A 
ATOM      3  C   UNL     1       1.448   4.331  20.808  0.00  0.00    +0.000 A 
ATOM      4  C   UNL     1       2.612   3.979  20.117  0.00  0.00    +0.000 A 
ATOM      5  N   UNL     1       3.192   2.749  19.909  0.00  0.00    +0.000 N 
ATOM      6  C   UNL     1       4.356   2.887  19.194  0.00  0.00    +0.000 A 
ATOM      7  C   UNL     1       4.545   4.229  18.923  0.00  0.00    +0.000 A 
ATOM      8  C   UNL     1       3.427   4.921  19.492  0.00  0.00    +0.000 A 
ATOM      9  C   UNL     1       3.047   6.277  19.548  0.00  0.00    +0.000 A 
ATOM     10  H   UNL     1       2.815   1.876  20.246  0.00  0.00    +0.000 HD
ENDROOT
BRANCH   1  15
ATOM     11  N   UNL     1       0.284  11.393  21.447  0.00  0.00    +0.000 N 
ATOM     12  C   UNL     1       0.729  10.274  20.843  0.00  0.00    +0.000 A 
ATOM     13  N   UNL     1       1.003  10.169  19.564  0.00  0.00    +0.000 NA
ATOM     14  N   UNL     1       1.445   8.903  19.220  0.00  0.00    +0.000 NA
ATOM     15  C   UNL     1       1.457   8.079  20.250  0.00  0.00    +0.000 A 
ATOM     16  S   UNL     1       0.973   8.828  21.726  0.00  0.00    +0.000 S 
ATOM     17  H   UNL     1      -0.101  12.106  20.839  0.00  0.00    +0.000 HD
ATOM     18  H   UNL     1      -0.186  11.301  22.338  0.00  0.00    +0.000 HD
ENDBRANCH   1  15
BRANCH   7  19
ATOM     19  C   UNL     1       5.691   4.786  18.211  0.00  0.00    +0.000 A 
ATOM     20  C   UNL     1       6.622   5.594  18.854  0.00  0.00    +0.000 A 
ATOM     21  C   UNL     1       7.654   6.156  18.107  0.00  0.00    +0.000 A 
ATOM     22  C   UNL     1       7.735   5.891  16.744  0.00  0.00    +0.000 A 
ATOM     23  C   UNL     1       6.773   5.065  16.168  0.00  0.00    +0.000 A 
ATOM     24  N   UNL     1       5.753   4.517  16.882  0.00  0.00    +0.000 NA
BRANCH  23  25
ATOM     25  N   UNL     1       6.854   4.783  14.770  0.00  0.00    +0.000 N 
ATOM     26  C   UNL     1       6.125   3.835  14.079  0.00  0.00    +0.000 A 
ATOM     27  C   UNL     1       6.539   3.878  12.770  0.00  0.00    +0.000 A 
ATOM     28  C   UNL     1       7.519   4.882  12.746  0.00  0.00    +0.000 A 
ATOM     29  N   UNL     1       7.708   5.447  13.939  0.00  0.00    +0.000 NA
ENDBRANCH  23  25
ENDBRANCH   7  19
TORSDOF 3
ENDMDL
MODEL 3
REMARK VINA RESULT:      -8.6      0.944      1.183
REMARK  Name = 
REMARK  3 active torsions:
REMARK  status: ('A' for Active; 'I' for Inactive)
REMARK    1  A    between atoms: C_5  and  C_6
REMARK    2  A    between atoms: C_12  and  C_13
REMARK    3  A    between atoms: C_17  and  N_18
REMARK                            x       y       z     vdW  Elec       q    Type
REMARK                         _______ _______ _______ _____ _____    ______ ____
ROOT
ATOM      1  C   UNL     1       4.636   4.402  17.362  0.00  0.00    +0.000 A 
ATOM      2  C   UNL     1       4.603   3.184  18.056  0.00  0.00    +0.000 A 
ATOM      3  C   UNL     1       3.866   3.025  19.239  0.00  0.00    +0.000 A 
ATOM      4  C   UNL     1       3.145   4.128  19.707  0.00  0.00    +0.000 A 
ATOM      5  N   UNL     1       2.350   4.271  20.821  0.00  0.00    +0.000 N 
ATOM      6  C   UNL     1       1.811   5.532  20.864  0.00  0.00    +0.000 A 
ATOM      7  C   UNL     1       2.260   6.234  19.761  0.00  0.00    +0.000 A 
ATOM      8  C   UNL     1       3.123   5.350  19.037  0.00  0.00    +0.000 A 
ATOM      9  C   UNL     1       3.874   5.475  17.851  0.00  0.00    +0.000 A 
ATOM     10  H   UNL     1       2.184   3.543  21.501  0.00  0.00    +0.000 HD
ENDROOT
BRANCH   1  15
ATOM     11  N   UNL     1       8.115   5.470  13.741  0.00  0.00    +0.000 N 
ATOM     12  C   UNL     1       7.071   5.029  14.468  0.00  0.00    +0.000 A 
ATOM     13  N   UNL     1       6.097   4.281  14.007  0.00  0.00    +0.000 NA
ATOM     14  N   UNL     1       5.159   3.974  14.978  0.00  0.00    +0.000 NA
ATOM     15  C   UNL     1       5.439   4.534  16.139  0.00  0.00    +0.000 A 
ATOM     16  S   UNL     1       6.910   5.434  16.124  0.00  0.00    +0.000 S 
ATOM     17  H   UNL     1       8.004   5.438  12.734  0.00  0.00    +0.000 HD
ATOM     18  H   UNL     1       8.631   6.272  14.081  0.00  0.00    +0.000 HD
ENDBRANCH   1  15
BRANCH   7  19
ATOM     19  C   UNL     1       1.880   7.605  19.430  0.00  0.00    +0.000 A 
ATOM     20  C   UNL     1       2.226   8.181  18.212  0.00  0.00    +0.000 A 
ATOM     21  C   UNL     1       1.900   9.515  17.983  0.00  0.00    +0.000 A 
ATOM     22  C   UNL     1       1.231  10.234  18.966  0.00  0.00    +0.000 A 
ATOM     23  C   UNL     1       0.908   9.591  20.158  0.00  0.00    +0.000 A 
ATOM     24  N   UNL     1       1.229   8.292  20.402  0.00  0.00    +0.000 NA
BRANCH  23  25
ATOM     25  N   UNL     1       0.214  10.323  21.170  0.00  0.00    +0.000 N 
ATOM     26  C   UNL     1      -0.280   9.818  22.357  0.00  0.00    +0.000 A 
ATOM     27  C   UNL     1      -0.898  10.854  23.014  0.00  0.00    +0.000 A 
ATOM     28  C   UNL     1      -0.732  11.957  22.163  0.00  0.00    +0.000 A 
ATOM     29  N   UNL     1      -0.050  11.657  21.056  0.00  0.00    +0.000 NA
ENDBRANCH  23  25
ENDBRANCH   7  19
TORSDOF 3
ENDMDL
MODEL 4
REMARK VINA RESULT:      -8.6      2.563      7.271
REMARK  Name = 
REMARK  3 active torsions:
REMARK  status: ('A' for Active; 'I' for Inactive)
REMARK    1  A    between atoms: C_5  and  C_6
REMARK    2  A    between atoms: C_12  and  C_13
REMARK    3  A    between atoms: C_17  and  N_18
REMARK                            x       y       z     vdW  Elec       q    Type
REMARK                         _______ _______ _______ _____ _____    ______ ____
ROOT
ATOM      1  C   UNL     1       1.716   5.675  19.969  0.00  0.00    +0.000 A 
ATOM      2  C   UNL     1       0.972   4.641  20.555  0.00  0.00    +0.000 A 
ATOM      3  C   UNL     1       1.173   3.295  20.211  0.00  0.00    +0.000 A 
ATOM      4  C   UNL     1       2.161   3.009  19.264  0.00  0.00    +0.000 A 
ATOM      5  N   UNL     1       2.572   1.808  18.734  0.00  0.00    +0.000 N 
ATOM      6  C   UNL     1       3.603   2.005  17.849  0.00  0.00    +0.000 A 
ATOM      7  C   UNL     1       3.875   3.359  17.792  0.00  0.00    +0.000 A 
ATOM      8  C   UNL     1       2.945   4.000  18.675  0.00  0.00    +0.000 A 
ATOM      9  C   UNL     1       2.717   5.341  19.042  0.00  0.00    +0.000 A 
ATOM     10  H   UNL     1       2.173   0.912  18.974  0.00  0.00    +0.000 HD
ENDROOT
BRANCH   1  15
ATOM     11  N   UNL     1       1.086  10.764  20.199  0.00  0.00    +0.000 N 
ATOM     12  C   UNL     1       1.157   9.439  20.429  0.00  0.00    +0.000 A 
ATOM     13  N   UNL     1       0.894   8.860  21.576  0.00  0.00    +0.000 NA
ATOM     14  N   UNL     1       1.047   7.485  21.523  0.00  0.00    +0.000 NA
ATOM     15  C   UNL     1       1.458   7.072  20.339  0.00  0.00    +0.000 A 
ATOM     16  S   UNL     1       1.631   8.351  19.195  0.00  0.00    +0.000 S 
ATOM     17  H   UNL     1       1.080  11.360  21.019  0.00  0.00    +0.000 HD
ATOM     18  H   UNL     1       1.593  11.142  19.408  0.00  0.00    +0.000 HD
ENDBRANCH   1  15
BRANCH   7  19
ATOM     19  C   UNL     1       4.931   3.967  16.989  0.00  0.00    +0.000 A 
ATOM     20  C   UNL     1       5.281   3.457  15.744  0.00  0.00    +0.000 A 
ATOM     21  C   UNL     1       6.346   4.034  15.056  0.00  0.00    +0.000 A 
ATOM     22  C   UNL     1       7.024   5.107  15.622  0.00  0.00    +0.000 A 
ATOM     23  C   UNL     1       6.614   5.572  16.869  0.00  0.00    +0.000 A 
ATOM     24  N   UNL     1       5.583   5.013  17.558  0.00  0.00    +0.000 NA
BRANCH  23  25
ATOM     25  N   UNL     1       7.303   6.679  17.453  0.00  0.00    +0.000 N 
ATOM     26  C   UNL     1       8.065   6.657  18.604  0.00  0.00    +0.000 A 
ATOM     27  C   UNL     1       8.515   7.938  18.819  0.00  0.00    +0.000 A 
ATOM     28  C   UNL     1       7.987   8.678  17.750  0.00  0.00    +0.000 A 
ATOM     29  N   UNL     1       7.268   7.931  16.911  0.00  0.00    +0.000 NA
ENDBRANCH  23  25
ENDBRANCH   7  19
TORSDOF 3
ENDMDL
MODEL 5
REMARK VINA RESULT:      -8.5      0.999      1.068
REMARK  Name = 
REMARK  3 active torsions:
REMARK  status: ('A' for Active; 'I' for Inactive)
REMARK    1  A    between atoms: C_5  and  C_6
REMARK    2  A    between atoms: C_12  and  C_13
REMARK    3  A    between atoms: C_17  and  N_18
REMARK                            x       y       z     vdW  Elec       q    Type
REMARK                         _______ _______ _______ _____ _____    ______ ____
ROOT
ATOM      1  C   UNL     1       4.807   4.793  18.170  0.00  0.00    +0.000 A 
ATOM      2  C   UNL     1       4.617   3.647  18.955  0.00  0.00    +0.000 A 
ATOM      3  C   UNL     1       3.673   3.606  19.992  0.00  0.00    +0.000 A 
ATOM      4  C   UNL     1       2.906   4.754  20.215  0.00  0.00    +0.000 A 
ATOM      5  N   UNL     1       1.925   5.008  21.146  0.00  0.00    +0.000 N 
ATOM      6  C   UNL     1       1.419   6.272  20.972  0.00  0.00    +0.000 A 
ATOM      7  C   UNL     1       2.080   6.863  19.911  0.00  0.00    +0.000 A 
ATOM      8  C   UNL     1       3.038   5.907  19.443  0.00  0.00    +0.000 A 
ATOM      9  C   UNL     1       3.996   5.914  18.410  0.00  0.00    +0.000 A 
ATOM     10  H   UNL     1       1.619   4.349  21.847  0.00  0.00    +0.000 HD
ENDROOT
BRANCH   1  15
ATOM     11  N   UNL     1       7.554   5.315  13.864  0.00  0.00    +0.000 N 
ATOM     12  C   UNL     1       7.093   5.061  15.104  0.00  0.00    +0.000 A 
ATOM     13  N   UNL     1       7.786   4.495  16.063  0.00  0.00    +0.000 NA
ATOM     14  N   UNL     1       7.061   4.361  17.234  0.00  0.00    +0.000 NA
ATOM     15  C   UNL     1       5.824   4.802  17.110  0.00  0.00    +0.000 A 
ATOM     16  S   UNL     1       5.489   5.461  15.551  0.00  0.00    +0.000 S 
ATOM     17  H   UNL     1       8.387   4.810  13.585  0.00  0.00    +0.000 HD
ATOM     18  H   UNL     1       6.880   5.457  13.122  0.00  0.00    +0.000 HD
ENDBRANCH   1  15
BRANCH   7  19
ATOM     19  C   UNL     1       1.801   8.199  19.391  0.00  0.00    +0.000 A 
ATOM     20  C   UNL     1       2.326   8.630  18.178  0.00  0.00    +0.000 A 
ATOM     21  C   UNL     1       2.087   9.939  17.769  0.00  0.00    +0.000 A 
ATOM     22  C   UNL     1       1.324  10.778  18.574  0.00  0.00    +0.000 A 
ATOM     23  C   UNL     1       0.822  10.277  19.772  0.00  0.00    +0.000 A 
ATOM     24  N   UNL     1       1.056   9.004  20.191  0.00  0.00    +0.000 NA
BRANCH  23  25
ATOM     25  N   UNL     1       0.033  11.132  20.600  0.00  0.00    +0.000 N 
ATOM     26  C   UNL     1      -1.303  11.438  20.428  0.00  0.00    +0.000 A 
ATOM     27  C   UNL     1      -1.652  12.315  21.427  0.00  0.00    +0.000 A 
ATOM     28  C   UNL     1      -0.473  12.488  22.167  0.00  0.00    +0.000 A 
ATOM     29  N   UNL     1       0.545  11.771  21.691  0.00  0.00    +0.000 NA
ENDBRANCH  23  25
ENDBRANCH   7  19
TORSDOF 3
ENDMDL
MODEL 6
REMARK VINA RESULT:      -8.3      2.228      8.216
REMARK  Name = 
REMARK  3 active torsions:
REMARK  status: ('A' for Active; 'I' for Inactive)
REMARK    1  A    between atoms: C_5  and  C_6
REMARK    2  A    between atoms: C_12  and  C_13
REMARK    3  A    between atoms: C_17  and  N_18
REMARK                            x       y       z     vdW  Elec       q    Type
REMARK                         _______ _______ _______ _____ _____    ______ ____
ROOT
ATOM      1  C   UNL     1       1.929   6.411  20.187  0.00  0.00    +0.000 A 
ATOM      2  C   UNL     1       1.172   5.406  20.805  0.00  0.00    +0.000 A 
ATOM      3  C   UNL     1       1.462   4.044  20.629  0.00  0.00    +0.000 A 
ATOM      4  C   UNL     1       2.552   3.713  19.819  0.00  0.00    +0.000 A 
ATOM      5  N   UNL     1       3.064   2.487  19.464  0.00  0.00    +0.000 N 
ATOM      6  C   UNL     1       4.172   2.644  18.669  0.00  0.00    +0.000 A 
ATOM      7  C   UNL     1       4.392   3.998  18.494  0.00  0.00    +0.000 A 
ATOM      8  C   UNL     1       3.352   4.677  19.207  0.00  0.00    +0.000 A 
ATOM      9  C   UNL     1       3.033   6.035  19.404  0.00  0.00    +0.000 A 
ATOM     10  H   UNL     1       2.680   1.601  19.760  0.00  0.00    +0.000 HD
ENDROOT
BRANCH   1  15
ATOM     11  N   UNL     1       0.836  11.407  19.747  0.00  0.00    +0.000 N 
ATOM     12  C   UNL     1       1.060  10.144  20.157  0.00  0.00    +0.000 A 
ATOM     13  N   UNL     1       0.977   9.731  21.400  0.00  0.00    +0.000 NA
ATOM     14  N   UNL     1       1.257   8.382  21.529  0.00  0.00    +0.000 NA
ATOM     15  C   UNL     1       1.577   7.824  20.378  0.00  0.00    +0.000 A 
ATOM     16  S   UNL     1       1.503   8.918  19.047  0.00  0.00    +0.000 S 
ATOM     17  H   UNL     1       0.860  12.121  20.466  0.00  0.00    +0.000 HD
ATOM     18  H   UNL     1       1.217  11.696  18.855  0.00  0.00    +0.000 HD
ENDBRANCH   1  15
BRANCH   7  19
ATOM     19  C   UNL     1       5.500   4.574  17.737  0.00  0.00    +0.000 A 
ATOM     20  C   UNL     1       6.397   5.460  18.323  0.00  0.00    +0.000 A 
ATOM     21  C   UNL     1       7.390   6.033  17.533  0.00  0.00    +0.000 A 
ATOM     22  C   UNL     1       7.467   5.702  16.185  0.00  0.00    +0.000 A 
ATOM     23  C   UNL     1       6.540   4.801  15.666  0.00  0.00    +0.000 A 
ATOM     24  N   UNL     1       5.559   4.240  16.423  0.00  0.00    +0.000 NA
BRANCH  23  25
ATOM     25  N   UNL     1       6.618   4.452  14.283  0.00  0.00    +0.000 N 
ATOM     26  C   UNL     1       7.499   4.969  13.353  0.00  0.00    +0.000 A 
ATOM     27  C   UNL     1       7.208   4.381  12.146  0.00  0.00    +0.000 A 
ATOM     28  C   UNL     1       6.140   3.516  12.427  0.00  0.00    +0.000 A 
ATOM     29  N   UNL     1       5.784   3.535  13.713  0.00  0.00    +0.000 NA
ENDBRANCH  23  25
ENDBRANCH   7  19
TORSDOF 3
ENDMDL
MODEL 7
REMARK VINA RESULT:      -8.2      3.126      4.791
REMARK  Name = 
REMARK  3 active torsions:
REMARK  status: ('A' for Active; 'I' for Inactive)
REMARK    1  A    between atoms: C_5  and  C_6
REMARK    2  A    between atoms: C_12  and  C_13
REMARK    3  A    between atoms: C_17  and  N_18
REMARK                            x       y       z     vdW  Elec       q    Type
REMARK                         _______ _______ _______ _____ _____    ______ ____
ROOT
ATOM      1  C   UNL     1       2.903   6.376  19.018  0.00  0.00    +0.000 A 
ATOM      2  C   UNL     1       3.374   6.735  17.747  0.00  0.00    +0.000 A 
ATOM      3  C   UNL     1       3.080   7.981  17.172  0.00  0.00    +0.000 A 
ATOM      4  C   UNL     1       2.303   8.872  17.919  0.00  0.00    +0.000 A 
ATOM      5  N   UNL     1       1.857  10.139  17.619  0.00  0.00    +0.000 N 
ATOM      6  C   UNL     1       1.145  10.655  18.673  0.00  0.00    +0.000 A 
ATOM      7  C   UNL     1       1.118   9.712  19.683  0.00  0.00    +0.000 A 
ATOM      8  C   UNL     1       1.836   8.571  19.197  0.00  0.00    +0.000 A 
ATOM      9  C   UNL     1       2.149   7.312  19.745  0.00  0.00    +0.000 A 
ATOM     10  H   UNL     1       2.040  10.617  16.749  0.00  0.00    +0.000 HD
ENDROOT
BRANCH   1  15
ATOM     11  N   UNL     1       4.873   1.806  20.278  0.00  0.00    +0.000 N 
ATOM     12  C   UNL     1       4.147   2.934  20.159  0.00  0.00    +0.000 A 
ATOM     13  N   UNL     1       3.049   3.196  20.826  0.00  0.00    +0.000 NA
ATOM     14  N   UNL     1       2.515   4.432  20.505  0.00  0.00    +0.000 NA
ATOM     15  C   UNL     1       3.214   5.052  19.574  0.00  0.00    +0.000 A 
ATOM     16  S   UNL     1       4.609   4.172  19.070  0.00  0.00    +0.000 S 
ATOM     17  H   UNL     1       4.405   1.017  20.711  0.00  0.00    +0.000 HD
ATOM     18  H   UNL     1       5.503   1.559  19.526  0.00  0.00    +0.000 HD
ENDBRANCH   1  15
BRANCH   7  19
ATOM     19  C   UNL     1       0.485   9.899  20.986  0.00  0.00    +0.000 A 
ATOM     20  C   UNL     1       0.817   9.101  22.075  0.00  0.00    +0.000 A 
ATOM     21  C   UNL     1       0.128   9.277  23.272  0.00  0.00    +0.000 A 
ATOM     22  C   UNL     1      -0.864  10.249  23.354  0.00  0.00    +0.000 A 
ATOM     23  C   UNL     1      -1.137  11.018  22.226  0.00  0.00    +0.000 A 
ATOM     24  N   UNL     1      -0.481  10.850  21.046  0.00  0.00    +0.000 NA
BRANCH  23  25
ATOM     25  N   UNL     1      -2.150  12.022  22.305  0.00  0.00    +0.000 N 
ATOM     26  C   UNL     1      -2.280  13.125  21.485  0.00  0.00    +0.000 A 
ATOM     27  C   UNL     1      -3.366  13.838  21.930  0.00  0.00    +0.000 A 
ATOM     28  C   UNL     1      -3.846  13.100  23.022  0.00  0.00    +0.000 A 
ATOM     29  N   UNL     1      -3.133  11.995  23.251  0.00  0.00    +0.000 NA
ENDBRANCH  23  25
ENDBRANCH   7  19
TORSDOF 3
ENDMDL
MODEL 8
REMARK VINA RESULT:      -8.1      3.695      8.257
REMARK  Name = 
REMARK  3 active torsions:
REMARK  status: ('A' for Active; 'I' for Inactive)
REMARK    1  A    between atoms: C_5  and  C_6
REMARK    2  A    between atoms: C_12  and  C_13
REMARK    3  A    between atoms: C_17  and  N_18
REMARK                            x       y       z     vdW  Elec       q    Type
REMARK                         _______ _______ _______ _____ _____    ______ ____
ROOT
ATOM      1  C   UNL     1      -1.965  10.892  18.649  0.00  0.00    +0.000 A 
ATOM      2  C   UNL     1      -2.242  11.779  19.699  0.00  0.00    +0.000 A 
ATOM      3  C   UNL     1      -1.491  11.783  20.884  0.00  0.00    +0.000 A 
ATOM      4  C   UNL     1      -0.434  10.873  20.984  0.00  0.00    +0.000 A 
ATOM      5  N   UNL     1       0.457  10.645  22.008  0.00  0.00    +0.000 N 
ATOM      6  C   UNL     1       1.352   9.667  21.651  0.00  0.00    +0.000 A 
ATOM      7  C   UNL     1       1.044   9.241  20.373  0.00  0.00    +0.000 A 
ATOM      8  C   UNL     1      -0.103   9.992  19.957  0.00  0.00    +0.000 A 
ATOM      9  C   UNL     1      -0.877  10.014  18.780  0.00  0.00    +0.000 A 
ATOM     10  H   UNL     1       0.452  11.138  22.889  0.00  0.00    +0.000 HD
ENDROOT
BRANCH   1  15
ATOM     11  N   UNL     1      -4.142  10.144  14.060  0.00  0.00    +0.000 N 
ATOM     12  C   UNL     1      -3.800  10.538  15.302  0.00  0.00    +0.000 A 
ATOM     13  N   UNL     1      -4.431  11.450  16.001  0.00  0.00    +0.000 NA
ATOM     14  N   UNL     1      -3.862  11.651  17.247  0.00  0.00    +0.000 NA
ATOM     15  C   UNL     1      -2.791  10.904  17.434  0.00  0.00    +0.000 A 
ATOM     16  S   UNL     1      -2.446   9.862  16.104  0.00  0.00    +0.000 S 
ATOM     17  H   UNL     1      -4.756  10.766  13.547  0.00  0.00    +0.000 HD
ATOM     18  H   UNL     1      -3.441   9.683  13.493  0.00  0.00    +0.000 HD
ENDBRANCH   1  15
BRANCH   7  19
ATOM     19  C   UNL     1       1.790   8.232  19.625  0.00  0.00    +0.000 A 
ATOM     20  C   UNL     1       2.324   8.506  18.371  0.00  0.00    +0.000 A 
ATOM     21  C   UNL     1       2.962   7.483  17.674  0.00  0.00    +0.000 A 
ATOM     22  C   UNL     1       3.058   6.220  18.249  0.00  0.00    +0.000 A 
ATOM     23  C   UNL     1       2.508   6.020  19.512  0.00  0.00    +0.000 A 
ATOM     24  N   UNL     1       1.872   7.006  20.201  0.00  0.00    +0.000 NA
BRANCH  23  25
ATOM     25  N   UNL     1       2.609   4.727  20.111  0.00  0.00    +0.000 N 
ATOM     26  C   UNL     1       1.919   4.279  21.221  0.00  0.00    +0.000 A 
ATOM     27  C   UNL     1       2.340   2.995  21.471  0.00  0.00    +0.000 A 
ATOM     28  C   UNL     1       3.283   2.734  20.465  0.00  0.00    +0.000 A 
ATOM     29  N   UNL     1       3.444   3.762  19.630  0.00  0.00    +0.000 NA
ENDBRANCH  23  25
ENDBRANCH   7  19
TORSDOF 3
ENDMDL
MODEL 9
REMARK VINA RESULT:      -8.0      3.204      5.194
REMARK  Name = 
REMARK  3 active torsions:
REMARK  status: ('A' for Active; 'I' for Inactive)
REMARK    1  A    between atoms: C_5  and  C_6
REMARK    2  A    between atoms: C_12  and  C_13
REMARK    3  A    between atoms: C_17  and  N_18
REMARK                            x       y       z     vdW  Elec       q    Type
REMARK                         _______ _______ _______ _____ _____    ______ ____
ROOT
ATOM      1  C   UNL     1       2.617   6.516  19.150  0.00  0.00    +0.000 A 
ATOM      2  C   UNL     1       3.181   6.839  17.908  0.00  0.00    +0.000 A 
ATOM      3  C   UNL     1       2.995   8.097  17.314  0.00  0.00    +0.000 A 
ATOM      4  C   UNL     1       2.233   9.038  18.013  0.00  0.00    +0.000 A 
ATOM      5  N   UNL     1       1.882  10.327  17.686  0.00  0.00    +0.000 N 
ATOM      6  C   UNL     1       1.145  10.892  18.696  0.00  0.00    +0.000 A 
ATOM      7  C   UNL     1       1.004   9.958  19.706  0.00  0.00    +0.000 A 
ATOM      8  C   UNL     1       1.677   8.773  19.263  0.00  0.00    +0.000 A 
ATOM      9  C   UNL     1       1.882   7.500  19.831  0.00  0.00    +0.000 A 
ATOM     10  H   UNL     1       2.143  10.789  16.826  0.00  0.00    +0.000 HD
ENDROOT
BRANCH   1  15
ATOM     11  N   UNL     1       2.505   2.164  21.870  0.00  0.00    +0.000 N 
ATOM     12  C   UNL     1       2.744   3.157  20.992  0.00  0.00    +0.000 A 
ATOM     13  N   UNL     1       3.628   3.108  20.023  0.00  0.00    +0.000 NA
ATOM     14  N   UNL     1       3.658   4.271  19.274  0.00  0.00    +0.000 NA
ATOM     15  C   UNL     1       2.815   5.180  19.726  0.00  0.00    +0.000 A 
ATOM     16  S   UNL     1       1.890   4.638  21.077  0.00  0.00    +0.000 S 
ATOM     17  H   UNL     1       3.221   1.450  21.943  0.00  0.00    +0.000 HD
ATOM     18  H   UNL     1       2.052   2.396  22.745  0.00  0.00    +0.000 HD
ENDBRANCH   1  15
BRANCH   7  19
ATOM     19  C   UNL     1       0.311  10.191  20.970  0.00  0.00    +0.000 A 
ATOM     20  C   UNL     1       0.595   9.436  22.103  0.00  0.00    +0.000 A 
ATOM     21  C   UNL     1      -0.149   9.654  23.259  0.00  0.00    +0.000 A 
ATOM     22  C   UNL     1      -1.147  10.622  23.258  0.00  0.00    +0.000 A 
ATOM     23  C   UNL     1      -1.371  11.347  22.091  0.00  0.00    +0.000 A 
ATOM     24  N   UNL     1      -0.660  11.138  20.950  0.00  0.00    +0.000 NA
BRANCH  23  25
ATOM     25  N   UNL     1      -2.390  12.347  22.085  0.00  0.00    +0.000 N 
ATOM     26  C   UNL     1      -2.380  13.527  21.368  0.00  0.00    +0.000 A 
ATOM     27  C   UNL     1      -3.535  14.203  21.679  0.00  0.00    +0.000 A 
ATOM     28  C   UNL     1      -4.196  13.365  22.589  0.00  0.00    +0.000 A 
ATOM     29  N   UNL     1      -3.527  12.237  22.832  0.00  0.00    +0.000 NA
ENDBRANCH  23  25
ENDBRANCH   7  19
TORSDOF 3
ENDMDL
