MODEL 1
REMARK VINA RESULT:      -8.2      0.000      0.000
REMARK  Name = 
REMARK  6 active torsions:
REMARK  status: ('A' for Active; 'I' for Inactive)
REMARK    1  A    between atoms: C_1  and  O_2
REMARK    2  A    between atoms: O_2  and  C_3
REMARK    3  A    between atoms: C_6  and  C_7
REMARK    4  A    between atoms: N_9  and  C_10
REMARK    5  A    between atoms: C_19  and  O_20
REMARK    6  A    between atoms: O_20  and  C_21
REMARK                            x       y       z     vdW  Elec       q    Type
REMARK                         _______ _______ _______ _____ _____    ______ ____
ROOT
ATOM      1  C   UNL     1       3.396   6.955  18.257  0.00  0.00    +0.000 A 
ATOM      2  C   UNL     1       3.000   7.996  17.421  0.00  0.00    +0.000 A 
ATOM      3  C   UNL     1       2.056   8.902  17.876  0.00  0.00    +0.000 A 
ATOM      4  C   UNL     1       1.562   8.807  19.191  0.00  0.00    +0.000 A 
ATOM      5  C   UNL     1       1.815   7.628  19.928  0.00  0.00    +0.000 A 
ATOM      6  C   UNL     1       2.670   6.631  19.407  0.00  0.00    +0.000 A 
ENDROOT
BRANCH   4   7
ATOM      7  C   UNL     1       0.844  10.019  19.677  0.00  0.00    +0.000 C 
ATOM      8  O   UNL     1       1.451  11.089  19.686  0.00  0.00    +0.000 OA
ATOM      9  N   UNL     1      -0.403   9.854  20.286  0.00  0.00    +0.000 N 
ATOM     10  H   UNL     1      -0.554   8.947  20.717  0.00  0.00    +0.000 HD
BRANCH   9  11
ATOM     11  C   UNL     1      -1.008  10.970  20.968  0.00  0.00    +0.000 A 
ATOM     12  C   UNL     1      -1.636  12.037  20.291  0.00  0.00    +0.000 A 
ATOM     13 CL   UNL     1      -2.035  11.975  18.605  0.00  0.00    +0.000 Cl
ATOM     14  C   UNL     1      -2.087  13.166  20.991  0.00  0.00    +0.000 A 
ATOM     15  C   UNL     1      -1.958  13.240  22.376  0.00  0.00    +0.000 A 
ATOM     16  C   UNL     1      -1.393  12.166  23.066  0.00  0.00    +0.000 A 
ATOM     17  C   UNL     1      -0.930  11.042  22.372  0.00  0.00    +0.000 A 
ATOM     18 CL   UNL     1      -0.197   9.774  23.295  0.00  0.00    +0.000 Cl
ENDBRANCH   9  11
ENDBRANCH   4   7
BRANCH   1  20
ATOM     19  C   UNL     1       4.872   6.610  16.558  0.00  0.00    +0.000 C 
ATOM     20  O   UNL     1       4.600   6.373  17.946  0.00  0.00    +0.000 OA
ENDBRANCH   1  20
BRANCH   6  21
ATOM     21  O   UNL     1       2.705   5.436  20.084  0.00  0.00    +0.000 OA
BRANCH  21  22
ATOM     22  C   UNL     1       1.653   4.456  20.033  0.00  0.00    +0.000 C 
ATOM     23  C   UNL     1       1.765   3.119  20.819  0.00  0.00    +0.000 C 
ATOM     24  C   UNL     1       1.659   2.030  19.744  0.00  0.00    +0.000 C 
ATOM     25  C   UNL     1       2.949   2.044  18.914  0.00  0.00    +0.000 C 
ATOM     26  C   UNL     1       2.794   3.313  18.063  0.00  0.00    +0.000 C 
ATOM     27  C   UNL     1       1.473   3.912  18.578  0.00  0.00    +0.000 C 
ATOM     28  C   UNL     1       0.642   2.638  18.787  0.00  0.00    +0.000 C 
ENDBRANCH  21  22
ENDBRANCH   6  21
TORSDOF 5
ENDMDL
MODEL 2
REMARK VINA RESULT:      -8.1      1.635      2.516
REMARK  Name = 
REMARK  6 active torsions:
REMARK  status: ('A' for Active; 'I' for Inactive)
REMARK    1  A    between atoms: C_1  and  O_2
REMARK    2  A    between atoms: O_2  and  C_3
REMARK    3  A    between atoms: C_6  and  C_7
REMARK    4  A    between atoms: N_9  and  C_10
REMARK    5  A    between atoms: C_19  and  O_20
REMARK    6  A    between atoms: O_20  and  C_21
REMARK                            x       y       z     vdW  Elec       q    Type
REMARK                         _______ _______ _______ _____ _____    ______ ____
ROOT
ATOM      1  C   UNL     1       4.265   6.620  17.846  0.00  0.00    +0.000 A 
ATOM      2  C   UNL     1       3.696   7.629  17.075  0.00  0.00    +0.000 A 
ATOM      3  C   UNL     1       2.610   8.329  17.577  0.00  0.00    +0.000 A 
ATOM      4  C   UNL     1       2.142   8.066  18.878  0.00  0.00    +0.000 A 
ATOM      5  C   UNL     1       2.594   6.903  19.541  0.00  0.00    +0.000 A 
ATOM      6  C   UNL     1       3.607   6.102  18.966  0.00  0.00    +0.000 A 
ENDROOT
BRANCH   4   7
ATOM      7  C   UNL     1       1.227   9.103  19.434  0.00  0.00    +0.000 C 
ATOM      8  O   UNL     1       0.668   8.871  20.504  0.00  0.00    +0.000 OA
ATOM      9  N   UNL     1       0.888  10.193  18.627  0.00  0.00    +0.000 N 
ATOM     10  H   UNL     1       0.939  10.020  17.628  0.00  0.00    +0.000 HD
BRANCH   9  11
ATOM     11  C   UNL     1      -0.166  11.080  19.047  0.00  0.00    +0.000 A 
ATOM     12  C   UNL     1      -0.002  12.042  20.067  0.00  0.00    +0.000 A 
ATOM     13 CL   UNL     1       1.550  12.484  20.700  0.00  0.00    +0.000 Cl
ATOM     14  C   UNL     1      -1.095  12.786  20.535  0.00  0.00    +0.000 A 
ATOM     15  C   UNL     1      -2.359  12.618  19.975  0.00  0.00    +0.000 A 
ATOM     16  C   UNL     1      -2.525  11.715  18.924  0.00  0.00    +0.000 A 
ATOM     17  C   UNL     1      -1.441  10.960  18.461  0.00  0.00    +0.000 A 
ATOM     18 CL   UNL     1      -1.738   9.825  17.189  0.00  0.00    +0.000 Cl
ENDBRANCH   9  11
ENDBRANCH   4   7
BRANCH   1  20
ATOM     19  C   UNL     1       5.514   5.524  16.289  0.00  0.00    +0.000 C 
ATOM     20  O   UNL     1       5.551   6.274  17.511  0.00  0.00    +0.000 OA
ENDBRANCH   1  20
BRANCH   6  21
ATOM     21  O   UNL     1       3.847   4.890  19.566  0.00  0.00    +0.000 OA
BRANCH  21  22
ATOM     22  C   UNL     1       3.323   3.640  19.083  0.00  0.00    +0.000 C 
ATOM     23  C   UNL     1       2.092   3.601  18.133  0.00  0.00    +0.000 C 
ATOM     24  C   UNL     1       1.052   2.760  18.884  0.00  0.00    +0.000 C 
ATOM     25  C   UNL     1       0.536   3.581  20.074  0.00  0.00    +0.000 C 
ATOM     26  C   UNL     1       1.715   3.537  21.056  0.00  0.00    +0.000 C 
ATOM     27  C   UNL     1       2.791   2.768  20.267  0.00  0.00    +0.000 C 
ATOM     28  C   UNL     1       1.930   1.714  19.559  0.00  0.00    +0.000 C 
ENDBRANCH  21  22
ENDBRANCH   6  21
TORSDOF 5
ENDMDL
MODEL 3
REMARK VINA RESULT:      -8.0      1.563      1.958
REMARK  Name = 
REMARK  6 active torsions:
REMARK  status: ('A' for Active; 'I' for Inactive)
REMARK    1  A    between atoms: C_1  and  O_2
REMARK    2  A    between atoms: O_2  and  C_3
REMARK    3  A    between atoms: C_6  and  C_7
REMARK    4  A    between atoms: N_9  and  C_10
REMARK    5  A    between atoms: C_19  and  O_20
REMARK    6  A    between atoms: O_20  and  C_21
REMARK                            x       y       z     vdW  Elec       q    Type
REMARK                         _______ _______ _______ _____ _____    ______ ____
ROOT
ATOM      1  C   UNL     1       3.797   6.722  18.115  0.00  0.00    +0.000 A 
ATOM      2  C   UNL     1       3.322   7.786  17.353  0.00  0.00    +0.000 A 
ATOM      3  C   UNL     1       2.316   8.587  17.868  0.00  0.00    +0.000 A 
ATOM      4  C   UNL     1       1.837   8.367  19.173  0.00  0.00    +0.000 A 
ATOM      5  C   UNL     1       2.179   7.163  19.828  0.00  0.00    +0.000 A 
ATOM      6  C   UNL     1       3.102   6.268  19.241  0.00  0.00    +0.000 A 
ENDROOT
BRANCH   4   7
ATOM      7  C   UNL     1       1.035   9.488  19.741  0.00  0.00    +0.000 C 
ATOM      8  O   UNL     1       0.566   9.352  20.870  0.00  0.00    +0.000 OA
ATOM      9  N   UNL     1       0.681  10.546  18.900  0.00  0.00    +0.000 N 
ATOM     10  H   UNL     1       0.630  10.312  17.913  0.00  0.00    +0.000 HD
BRANCH   9  11
ATOM     11  C   UNL     1      -0.280  11.518  19.355  0.00  0.00    +0.000 A 
ATOM     12  C   UNL     1       0.060  12.608  20.184  0.00  0.00    +0.000 A 
ATOM     13 CL   UNL     1       1.700  13.085  20.482  0.00  0.00    +0.000 Cl
ATOM     14  C   UNL     1      -0.933  13.446  20.712  0.00  0.00    +0.000 A 
ATOM     15  C   UNL     1      -2.274  13.241  20.399  0.00  0.00    +0.000 A 
ATOM     16  C   UNL     1      -2.621  12.204  19.532  0.00  0.00    +0.000 A 
ATOM     17  C   UNL     1      -1.636  11.357  19.011  0.00  0.00    +0.000 A 
ATOM     18 CL   UNL     1      -2.152  10.063  17.983  0.00  0.00    +0.000 Cl
ENDBRANCH   9  11
ENDBRANCH   4   7
BRANCH   1  20
ATOM     19  C   UNL     1       5.265   6.557  16.383  0.00  0.00    +0.000 C 
ATOM     20  O   UNL     1       5.039   6.253  17.766  0.00  0.00    +0.000 OA
ENDBRANCH   1  20
BRANCH   6  21
ATOM     21  O   UNL     1       3.228   5.037  19.835  0.00  0.00    +0.000 OA
BRANCH  21  22
ATOM     22  C   UNL     1       2.153   4.086  19.942  0.00  0.00    +0.000 C 
ATOM     23  C   UNL     1       2.426   2.611  20.352  0.00  0.00    +0.000 C 
ATOM     24  C   UNL     1       1.895   1.780  19.176  0.00  0.00    +0.000 C 
ATOM     25  C   UNL     1       2.836   1.979  17.981  0.00  0.00    +0.000 C 
ATOM     26  C   UNL     1       2.497   3.402  17.513  0.00  0.00    +0.000 C 
ATOM     27  C   UNL     1       1.464   3.869  18.555  0.00  0.00    +0.000 C 
ATOM     28  C   UNL     1       0.663   2.577  18.766  0.00  0.00    +0.000 C 
ENDBRANCH  21  22
ENDBRANCH   6  21
TORSDOF 5
ENDMDL
MODEL 4
REMARK VINA RESULT:      -8.0      2.215      4.260
REMARK  Name = 
REMARK  6 active torsions:
REMARK  status: ('A' for Active; 'I' for Inactive)
REMARK    1  A    between atoms: C_1  and  O_2
REMARK    2  A    between atoms: O_2  and  C_3
REMARK    3  A    between atoms: C_6  and  C_7
REMARK    4  A    between atoms: N_9  and  C_10
REMARK    5  A    between atoms: C_19  and  O_20
REMARK    6  A    between atoms: O_20  and  C_21
REMARK                            x       y       z     vdW  Elec       q    Type
REMARK                         _______ _______ _______ _____ _____    ______ ____
ROOT
ATOM      1  C   UNL     1       2.590   5.107  19.628  0.00  0.00    +0.000 A 
ATOM      2  C   UNL     1       2.033   5.990  20.549  0.00  0.00    +0.000 A 
ATOM      3  C   UNL     1       1.840   7.312  20.182  0.00  0.00    +0.000 A 
ATOM      4  C   UNL     1       2.139   7.732  18.872  0.00  0.00    +0.000 A 
ATOM      5  C   UNL     1       2.897   6.877  18.041  0.00  0.00    +0.000 A 
ATOM      6  C   UNL     1       3.220   5.569  18.468  0.00  0.00    +0.000 A 
ENDROOT
BRANCH   4   7
ATOM      7  C   UNL     1       1.564   9.054  18.494  0.00  0.00    +0.000 C 
ATOM      8  O   UNL     1       2.127   9.701  17.613  0.00  0.00    +0.000 OA
ATOM      9  N   UNL     1       0.545   9.588  19.287  0.00  0.00    +0.000 N 
ATOM     10  H   UNL     1       0.540   9.271  20.252  0.00  0.00    +0.000 HD
BRANCH   9  11
ATOM     11  C   UNL     1       0.137  10.955  19.085  0.00  0.00    +0.000 A 
ATOM     12  C   UNL     1       0.711  12.041  19.779  0.00  0.00    +0.000 A 
ATOM     13 CL   UNL     1       2.172  11.900  20.701  0.00  0.00    +0.000 Cl
ATOM     14  C   UNL     1       0.185  13.335  19.649  0.00  0.00    +0.000 A 
ATOM     15  C   UNL     1      -0.893  13.581  18.803  0.00  0.00    +0.000 A 
ATOM     16  C   UNL     1      -1.433  12.528  18.063  0.00  0.00    +0.000 A 
ATOM     17  C   UNL     1      -0.921  11.232  18.197  0.00  0.00    +0.000 A 
ATOM     18 CL   UNL     1      -1.677   9.971  17.284  0.00  0.00    +0.000 Cl
ENDBRANCH   9  11
ENDBRANCH   4   7
BRANCH   1  20
ATOM     19  C   UNL     1       1.003   3.621  20.304  0.00  0.00    +0.000 C 
ATOM     20  O   UNL     1       2.361   3.776  19.872  0.00  0.00    +0.000 OA
ENDBRANCH   1  20
BRANCH   6  21
ATOM     21  O   UNL     1       4.123   4.877  17.699  0.00  0.00    +0.000 OA
BRANCH  21  22
ATOM     22  C   UNL     1       5.435   4.499  18.151  0.00  0.00    +0.000 C 
ATOM     23  C   UNL     1       6.180   5.330  19.233  0.00  0.00    +0.000 C 
ATOM     24  C   UNL     1       7.482   5.772  18.551  0.00  0.00    +0.000 C 
ATOM     25  C   UNL     1       7.138   6.827  17.491  0.00  0.00    +0.000 C 
ATOM     26  C   UNL     1       6.491   5.992  16.377  0.00  0.00    +0.000 C 
ATOM     27  C   UNL     1       6.468   4.575  16.979  0.00  0.00    +0.000 C 
ATOM     28  C   UNL     1       7.818   4.550  17.707  0.00  0.00    +0.000 C 
ENDBRANCH  21  22
ENDBRANCH   6  21
TORSDOF 5
ENDMDL
MODEL 5
REMARK VINA RESULT:      -7.9      2.081      3.969
REMARK  Name = 
REMARK  6 active torsions:
REMARK  status: ('A' for Active; 'I' for Inactive)
REMARK    1  A    between atoms: C_1  and  O_2
REMARK    2  A    between atoms: O_2  and  C_3
REMARK    3  A    between atoms: C_6  and  C_7
REMARK    4  A    between atoms: N_9  and  C_10
REMARK    5  A    between atoms: C_19  and  O_20
REMARK    6  A    between atoms: O_20  and  C_21
REMARK                            x       y       z     vdW  Elec       q    Type
REMARK                         _______ _______ _______ _____ _____    ______ ____
ROOT
ATOM      1  C   UNL     1       2.558   4.857  19.687  0.00  0.00    +0.000 A 
ATOM      2  C   UNL     1       1.997   5.700  20.643  0.00  0.00    +0.000 A 
ATOM      3  C   UNL     1       1.796   7.035  20.328  0.00  0.00    +0.000 A 
ATOM      4  C   UNL     1       2.091   7.507  19.036  0.00  0.00    +0.000 A 
ATOM      5  C   UNL     1       2.852   6.690  18.171  0.00  0.00    +0.000 A 
ATOM      6  C   UNL     1       3.184   5.369  18.545  0.00  0.00    +0.000 A 
ENDROOT
BRANCH   4   7
ATOM      7  C   UNL     1       1.508   8.841  18.711  0.00  0.00    +0.000 C 
ATOM      8  O   UNL     1       2.183   9.621  18.041  0.00  0.00    +0.000 OA
ATOM      9  N   UNL     1       0.322   9.220  19.344  0.00  0.00    +0.000 N 
ATOM     10  H   UNL     1       0.155   8.781  20.244  0.00  0.00    +0.000 HD
BRANCH   9  11
ATOM     11  C   UNL     1      -0.135  10.582  19.228  0.00  0.00    +0.000 A 
ATOM     12  C   UNL     1      -0.957  11.031  18.172  0.00  0.00    +0.000 A 
ATOM     13 CL   UNL     1      -1.768   9.948  17.088  0.00  0.00    +0.000 Cl
ATOM     14  C   UNL     1      -1.261  12.392  18.027  0.00  0.00    +0.000 A 
ATOM     15  C   UNL     1      -0.787  13.326  18.945  0.00  0.00    +0.000 A 
ATOM     16  C   UNL     1      -0.023  12.890  20.029  0.00  0.00    +0.000 A 
ATOM     17  C   UNL     1       0.294  11.534  20.172  0.00  0.00    +0.000 A 
ATOM     18 CL   UNL     1       1.288  11.080  21.515  0.00  0.00    +0.000 Cl
ENDBRANCH   9  11
ENDBRANCH   4   7
BRANCH   1  20
ATOM     19  C   UNL     1       1.412   3.360  20.962  0.00  0.00    +0.000 C 
ATOM     20  O   UNL     1       2.337   3.516  19.879  0.00  0.00    +0.000 OA
ENDBRANCH   1  20
BRANCH   6  21
ATOM     21  O   UNL     1       4.089   4.712  17.749  0.00  0.00    +0.000 OA
BRANCH  21  22
ATOM     22  C   UNL     1       5.433   4.396  18.156  0.00  0.00    +0.000 C 
ATOM     23  C   UNL     1       6.167   5.252  19.227  0.00  0.00    +0.000 C 
ATOM     24  C   UNL     1       7.423   5.767  18.513  0.00  0.00    +0.000 C 
ATOM     25  C   UNL     1       6.995   6.816  17.478  0.00  0.00    +0.000 C 
ATOM     26  C   UNL     1       6.357   5.962  16.372  0.00  0.00    +0.000 C 
ATOM     27  C   UNL     1       6.424   4.539  16.955  0.00  0.00    +0.000 C 
ATOM     28  C   UNL     1       7.796   4.574  17.643  0.00  0.00    +0.000 C 
ENDBRANCH  21  22
ENDBRANCH   6  21
TORSDOF 5
ENDMDL
MODEL 6
REMARK VINA RESULT:      -7.9      1.360      1.792
REMARK  Name = 
REMARK  6 active torsions:
REMARK  status: ('A' for Active; 'I' for Inactive)
REMARK    1  A    between atoms: C_1  and  O_2
REMARK    2  A    between atoms: O_2  and  C_3
REMARK    3  A    between atoms: C_6  and  C_7
REMARK    4  A    between atoms: N_9  and  C_10
REMARK    5  A    between atoms: C_19  and  O_20
REMARK    6  A    between atoms: O_20  and  C_21
REMARK                            x       y       z     vdW  Elec       q    Type
REMARK                         _______ _______ _______ _____ _____    ______ ____
ROOT
ATOM      1  C   UNL     1       3.902   6.853  17.967  0.00  0.00    +0.000 A 
ATOM      2  C   UNL     1       3.267   7.848  17.229  0.00  0.00    +0.000 A 
ATOM      3  C   UNL     1       2.189   8.516  17.787  0.00  0.00    +0.000 A 
ATOM      4  C   UNL     1       1.792   8.235  19.108  0.00  0.00    +0.000 A 
ATOM      5  C   UNL     1       2.308   7.083  19.742  0.00  0.00    +0.000 A 
ATOM      6  C   UNL     1       3.313   6.313  19.115  0.00  0.00    +0.000 A 
ENDROOT
BRANCH   4   7
ATOM      7  C   UNL     1       0.877   9.245  19.713  0.00  0.00    +0.000 C 
ATOM      8  O   UNL     1      -0.089   9.622  19.052  0.00  0.00    +0.000 OA
ATOM      9  N   UNL     1       1.263   9.863  20.905  0.00  0.00    +0.000 N 
ATOM     10  H   UNL     1       2.265   9.903  21.064  0.00  0.00    +0.000 HD
BRANCH   9  11
ATOM     11  C   UNL     1       0.517  10.999  21.384  0.00  0.00    +0.000 A 
ATOM     12  C   UNL     1       0.744  12.316  20.931  0.00  0.00    +0.000 A 
ATOM     13 CL   UNL     1       1.704  12.676  19.533  0.00  0.00    +0.000 Cl
ATOM     14  C   UNL     1       0.089  13.404  21.527  0.00  0.00    +0.000 A 
ATOM     15  C   UNL     1      -0.828  13.202  22.555  0.00  0.00    +0.000 A 
ATOM     16  C   UNL     1      -1.109  11.900  22.973  0.00  0.00    +0.000 A 
ATOM     17  C   UNL     1      -0.450  10.812  22.391  0.00  0.00    +0.000 A 
ATOM     18 CL   UNL     1      -0.815   9.233  22.999  0.00  0.00    +0.000 Cl
ENDBRANCH   9  11
ENDBRANCH   4   7
BRANCH   1  20
ATOM     19  C   UNL     1       5.099   5.670  16.433  0.00  0.00    +0.000 C 
ATOM     20  O   UNL     1       5.178   6.544  17.567  0.00  0.00    +0.000 OA
ENDBRANCH   1  20
BRANCH   6  21
ATOM     21  O   UNL     1       3.615   5.106  19.696  0.00  0.00    +0.000 OA
BRANCH  21  22
ATOM     22  C   UNL     1       3.237   3.833  19.141  0.00  0.00    +0.000 C 
ATOM     23  C   UNL     1       2.051   3.715  18.143  0.00  0.00    +0.000 C 
ATOM     24  C   UNL     1       1.074   2.743  18.816  0.00  0.00    +0.000 C 
ATOM     25  C   UNL     1       0.436   3.454  20.017  0.00  0.00    +0.000 C 
ATOM     26  C   UNL     1       1.578   3.483  21.043  0.00  0.00    +0.000 C 
ATOM     27  C   UNL     1       2.753   2.861  20.266  0.00  0.00    +0.000 C 
ATOM     28  C   UNL     1       2.029   1.759  19.481  0.00  0.00    +0.000 C 
ENDBRANCH  21  22
ENDBRANCH   6  21
TORSDOF 5
ENDMDL
MODEL 7
REMARK VINA RESULT:      -7.9      1.242      1.242
REMARK  Name = 
REMARK  6 active torsions:
REMARK  status: ('A' for Active; 'I' for Inactive)
REMARK    1  A    between atoms: C_1  and  O_2
REMARK    2  A    between atoms: O_2  and  C_3
REMARK    3  A    between atoms: C_6  and  C_7
REMARK    4  A    between atoms: N_9  and  C_10
REMARK    5  A    between atoms: C_19  and  O_20
REMARK    6  A    between atoms: O_20  and  C_21
REMARK                            x       y       z     vdW  Elec       q    Type
REMARK                         _______ _______ _______ _____ _____    ______ ____
ROOT
ATOM      1  C   UNL     1       3.544   7.093  18.173  0.00  0.00    +0.000 A 
ATOM      2  C   UNL     1       3.067   8.175  17.439  0.00  0.00    +0.000 A 
ATOM      3  C   UNL     1       2.018   8.924  17.949  0.00  0.00    +0.000 A 
ATOM      4  C   UNL     1       1.496   8.632  19.223  0.00  0.00    +0.000 A 
ATOM      5  C   UNL     1       1.849   7.410  19.838  0.00  0.00    +0.000 A 
ATOM      6  C   UNL     1       2.820   6.569  19.249  0.00  0.00    +0.000 A 
ENDROOT
BRANCH   4   7
ATOM      7  C   UNL     1       0.639   9.703  19.807  0.00  0.00    +0.000 C 
ATOM      8  O   UNL     1      -0.368  10.042  19.187  0.00  0.00    +0.000 OA
ATOM      9  N   UNL     1       1.117  10.409  20.913  0.00  0.00    +0.000 N 
ATOM     10  H   UNL     1       2.129  10.444  20.997  0.00  0.00    +0.000 HD
BRANCH   9  11
ATOM     11  C   UNL     1       0.421  11.592  21.350  0.00  0.00    +0.000 A 
ATOM     12  C   UNL     1       0.668  12.873  20.812  0.00  0.00    +0.000 A 
ATOM     13 CL   UNL     1       1.587  13.122  19.363  0.00  0.00    +0.000 Cl
ATOM     14  C   UNL     1       0.066  14.013  21.365  0.00  0.00    +0.000 A 
ATOM     15  C   UNL     1      -0.819  13.899  22.434  0.00  0.00    +0.000 A 
ATOM     16  C   UNL     1      -1.121  12.633  22.938  0.00  0.00    +0.000 A 
ATOM     17  C   UNL     1      -0.513  11.493  22.399  0.00  0.00    +0.000 A 
ATOM     18 CL   UNL     1      -0.901   9.964  23.111  0.00  0.00    +0.000 Cl
ENDBRANCH   9  11
ENDBRANCH   4   7
BRANCH   1  20
ATOM     19  C   UNL     1       4.833   6.313  16.466  0.00  0.00    +0.000 C 
ATOM     20  O   UNL     1       4.812   6.674  17.853  0.00  0.00    +0.000 OA
ENDBRANCH   1  20
BRANCH   6  21
ATOM     21  O   UNL     1       2.959   5.316  19.793  0.00  0.00    +0.000 OA
BRANCH  21  22
ATOM     22  C   UNL     1       1.897   4.347  19.855  0.00  0.00    +0.000 C 
ATOM     23  C   UNL     1       2.109   2.970  20.544  0.00  0.00    +0.000 C 
ATOM     24  C   UNL     1       1.822   1.940  19.444  0.00  0.00    +0.000 C 
ATOM     25  C   UNL     1       2.970   1.989  18.426  0.00  0.00    +0.000 C 
ATOM     26  C   UNL     1       2.705   3.302  17.677  0.00  0.00    +0.000 C 
ATOM     27  C   UNL     1       1.487   3.882  18.419  0.00  0.00    +0.000 C 
ATOM     28  C   UNL     1       0.679   2.605  18.689  0.00  0.00    +0.000 C 
ENDBRANCH  21  22
ENDBRANCH   6  21
TORSDOF 5
ENDMDL
MODEL 8
REMARK VINA RESULT:      -7.9      1.526      1.984
REMARK  Name = 
REMARK  6 active torsions:
REMARK  status: ('A' for Active; 'I' for Inactive)
REMARK    1  A    between atoms: C_1  and  O_2
REMARK    2  A    between atoms: O_2  and  C_3
REMARK    3  A    between atoms: C_6  and  C_7
REMARK    4  A    between atoms: N_9  and  C_10
REMARK    5  A    between atoms: C_19  and  O_20
REMARK    6  A    between atoms: O_20  and  C_21
REMARK                            x       y       z     vdW  Elec       q    Type
REMARK                         _______ _______ _______ _____ _____    ______ ____
ROOT
ATOM      1  C   UNL     1       4.031   6.839  17.916  0.00  0.00    +0.000 A 
ATOM      2  C   UNL     1       3.425   7.861  17.190  0.00  0.00    +0.000 A 
ATOM      3  C   UNL     1       2.341   8.526  17.740  0.00  0.00    +0.000 A 
ATOM      4  C   UNL     1       1.909   8.216  19.042  0.00  0.00    +0.000 A 
ATOM      5  C   UNL     1       2.397   7.041  19.658  0.00  0.00    +0.000 A 
ATOM      6  C   UNL     1       3.408   6.276  19.035  0.00  0.00    +0.000 A 
ENDROOT
BRANCH   4   7
ATOM      7  C   UNL     1       0.990   9.220  19.652  0.00  0.00    +0.000 C 
ATOM      8  O   UNL     1       0.445   8.936  20.717  0.00  0.00    +0.000 OA
ATOM      9  N   UNL     1       0.633  10.339  18.896  0.00  0.00    +0.000 N 
ATOM     10  H   UNL     1       0.675  10.210  17.890  0.00  0.00    +0.000 HD
BRANCH   9  11
ATOM     11  C   UNL     1      -0.424  11.198  19.365  0.00  0.00    +0.000 A 
ATOM     12  C   UNL     1      -1.749  11.119  18.885  0.00  0.00    +0.000 A 
ATOM     13 CL   UNL     1      -2.326   9.791  17.933  0.00  0.00    +0.000 Cl
ATOM     14  C   UNL     1      -2.710  12.066  19.270  0.00  0.00    +0.000 A 
ATOM     15  C   UNL     1      -2.385  13.084  20.163  0.00  0.00    +0.000 A 
ATOM     16  C   UNL     1      -1.095  13.139  20.693  0.00  0.00    +0.000 A 
ATOM     17  C   UNL     1      -0.128  12.204  20.304  0.00  0.00    +0.000 A 
ATOM     18 CL   UNL     1       1.462  12.370  20.967  0.00  0.00    +0.000 Cl
ENDBRANCH   9  11
ENDBRANCH   4   7
BRANCH   1  20
ATOM     19  C   UNL     1       5.285   6.055  16.186  0.00  0.00    +0.000 C 
ATOM     20  O   UNL     1       5.313   6.526  17.539  0.00  0.00    +0.000 OA
ENDBRANCH   1  20
BRANCH   6  21
ATOM     21  O   UNL     1       3.684   5.051  19.591  0.00  0.00    +0.000 OA
BRANCH  21  22
ATOM     22  C   UNL     1       3.267   3.799  19.017  0.00  0.00    +0.000 C 
ATOM     23  C   UNL     1       2.054   3.728  18.047  0.00  0.00    +0.000 C 
ATOM     24  C   UNL     1       1.076   2.758  18.722  0.00  0.00    +0.000 C 
ATOM     25  C   UNL     1       0.483   3.452  19.955  0.00  0.00    +0.000 C 
ATOM     26  C   UNL     1       1.650   3.435  20.952  0.00  0.00    +0.000 C 
ATOM     27  C   UNL     1       2.793   2.810  20.131  0.00  0.00    +0.000 C 
ATOM     28  C   UNL     1       2.028   1.741  19.339  0.00  0.00    +0.000 C 
ENDBRANCH  21  22
ENDBRANCH   6  21
TORSDOF 5
ENDMDL
MODEL 9
REMARK VINA RESULT:      -7.9      1.368      2.270
REMARK  Name = 
REMARK  6 active torsions:
REMARK  status: ('A' for Active; 'I' for Inactive)
REMARK    1  A    between atoms: C_1  and  O_2
REMARK    2  A    between atoms: O_2  and  C_3
REMARK    3  A    between atoms: C_6  and  C_7
REMARK    4  A    between atoms: N_9  and  C_10
REMARK    5  A    between atoms: C_19  and  O_20
REMARK    6  A    between atoms: O_20  and  C_21
REMARK                            x       y       z     vdW  Elec       q    Type
REMARK                         _______ _______ _______ _____ _____    ______ ____
ROOT
ATOM      1  C   UNL     1       3.851   7.041  17.902  0.00  0.00    +0.000 A 
ATOM      2  C   UNL     1       3.202   8.058  17.208  0.00  0.00    +0.000 A 
ATOM      3  C   UNL     1       2.131   8.704  17.807  0.00  0.00    +0.000 A 
ATOM      4  C   UNL     1       1.758   8.378  19.124  0.00  0.00    +0.000 A 
ATOM      5  C   UNL     1       2.287   7.207  19.711  0.00  0.00    +0.000 A 
ATOM      6  C   UNL     1       3.283   6.461  19.041  0.00  0.00    +0.000 A 
ENDROOT
BRANCH   4   7
ATOM      7  C   UNL     1       0.851   9.364  19.777  0.00  0.00    +0.000 C 
ATOM      8  O   UNL     1      -0.168   9.702  19.177  0.00  0.00    +0.000 OA
ATOM      9  N   UNL     1       1.292  10.009  20.935  0.00  0.00    +0.000 N 
ATOM     10  H   UNL     1       2.301  10.084  21.028  0.00  0.00    +0.000 HD
BRANCH   9  11
ATOM     11  C   UNL     1       0.541  11.126  21.451  0.00  0.00    +0.000 A 
ATOM     12  C   UNL     1      -0.457  10.991  22.439  0.00  0.00    +0.000 A 
ATOM     13 CL   UNL     1      -0.670   9.543  23.367  0.00  0.00    +0.000 Cl
ATOM     14  C   UNL     1      -1.255  12.084  22.808  0.00  0.00    +0.000 A 
ATOM     15  C   UNL     1      -1.052  13.336  22.233  0.00  0.00    +0.000 A 
ATOM     16  C   UNL     1      -0.028  13.499  21.298  0.00  0.00    +0.000 A 
ATOM     17  C   UNL     1       0.763  12.410  20.917  0.00  0.00    +0.000 A 
ATOM     18 CL   UNL     1       1.980  12.682  19.716  0.00  0.00    +0.000 Cl
ENDBRANCH   9  11
ENDBRANCH   4   7
BRANCH   1  20
ATOM     19  C   UNL     1       5.032   6.142  16.176  0.00  0.00    +0.000 C 
ATOM     20  O   UNL     1       5.121   6.749  17.471  0.00  0.00    +0.000 OA
ENDBRANCH   1  20
BRANCH   6  21
ATOM     21  O   UNL     1       3.599   5.237  19.577  0.00  0.00    +0.000 OA
BRANCH  21  22
ATOM     22  C   UNL     1       3.205   3.982  18.992  0.00  0.00    +0.000 C 
ATOM     23  C   UNL     1       1.912   3.868  18.137  0.00  0.00    +0.000 C 
ATOM     24  C   UNL     1       1.063   2.814  18.860  0.00  0.00    +0.000 C 
ATOM     25  C   UNL     1       0.549   3.424  20.170  0.00  0.00    +0.000 C 
ATOM     26  C   UNL     1       1.805   3.446  21.052  0.00  0.00    +0.000 C 
ATOM     27  C   UNL     1       2.900   2.925  20.104  0.00  0.00    +0.000 C 
ATOM     28  C   UNL     1       2.128   1.838  19.343  0.00  0.00    +0.000 C 
ENDBRANCH  21  22
ENDBRANCH   6  21
TORSDOF 5
ENDMDL
