MODEL 1
REMARK VINA RESULT:      -6.5      0.000      0.000
REMARK  Name = 
REMARK  3 active torsions:
REMARK  status: ('A' for Active; 'I' for Inactive)
REMARK    1  A    between atoms: C_2  and  C_3
REMARK    2  A    between atoms: C_2  and  C_11
REMARK    3  A    between atoms: C_3  and  N_4
REMARK                            x       y       z     vdW  Elec       q    Type
REMARK                         _______ _______ _______ _____ _____    ______ ____
ROOT
ATOM      1  O   UNL     1       3.746   1.624  17.428  0.00  0.00    +0.000 OA
ATOM      2  C   UNL     1       3.458   2.768  17.778  0.00  0.00    +0.000 C 
ENDROOT
BRANCH   2   3
ATOM      3  C   UNL     1       2.705   2.975  19.046  0.00  0.00    +0.000 A 
ATOM      4  C   UNL     1       3.274   2.511  20.239  0.00  0.00    +0.000 A 
ATOM      5  C   UNL     1       2.597   2.678  21.448  0.00  0.00    +0.000 A 
ATOM      6  C   UNL     1       1.346   3.293  21.468  0.00  0.00    +0.000 A 
ATOM      7  C   UNL     1       0.773   3.747  20.281  0.00  0.00    +0.000 A 
ATOM      8  C   UNL     1       1.449   3.594  19.069  0.00  0.00    +0.000 A 
ENDBRANCH   2   3
BRANCH   2   9
ATOM      9  C   UNL     1       3.868   3.971  16.963  0.00  0.00    +0.000 C 
BRANCH   9  10
ATOM     10  N   UNL     1       5.231   4.410  17.194  0.00  0.00    +0.000 N 
ATOM     11  C   UNL     1       6.324   4.108  16.422  0.00  0.00    +0.000 A 
ATOM     12  N   UNL     1       7.409   4.711  16.857  0.00  0.00    +0.000 NA
ATOM     13  C   UNL     1       7.028   5.390  17.989  0.00  0.00    +0.000 A 
ATOM     14 CL   UNL     1       8.114   6.316  18.911  0.00  0.00    +0.000 Cl
ATOM     15  C   UNL     1       5.689   5.193  18.219  0.00  0.00    +0.000 A 
ATOM     16 CL   UNL     1       4.661   5.729  19.462  0.00  0.00    +0.000 Cl
ENDBRANCH   9  10
ENDBRANCH   2   9
TORSDOF 3
ENDMDL
MODEL 2
REMARK VINA RESULT:      -6.5      2.446      2.769
REMARK  Name = 
REMARK  3 active torsions:
REMARK  status: ('A' for Active; 'I' for Inactive)
REMARK    1  A    between atoms: C_2  and  C_3
REMARK    2  A    between atoms: C_2  and  C_11
REMARK    3  A    between atoms: C_3  and  N_4
REMARK                            x       y       z     vdW  Elec       q    Type
REMARK                         _______ _______ _______ _____ _____    ______ ____
ROOT
ATOM      1  O   UNL     1       3.375   6.902  18.720  0.00  0.00    +0.000 OA
ATOM      2  C   UNL     1       3.707   5.763  19.044  0.00  0.00    +0.000 C 
ENDROOT
BRANCH   2   3
ATOM      3  C   UNL     1       2.654   4.748  19.324  0.00  0.00    +0.000 A 
ATOM      4  C   UNL     1       2.395   4.411  20.658  0.00  0.00    +0.000 A 
ATOM      5  C   UNL     1       1.422   3.458  20.964  0.00  0.00    +0.000 A 
ATOM      6  C   UNL     1       0.717   2.829  19.938  0.00  0.00    +0.000 A 
ATOM      7  C   UNL     1       0.980   3.154  18.609  0.00  0.00    +0.000 A 
ATOM      8  C   UNL     1       1.944   4.115  18.297  0.00  0.00    +0.000 A 
ENDBRANCH   2   3
BRANCH   2   9
ATOM      9  C   UNL     1       5.159   5.359  19.142  0.00  0.00    +0.000 C 
BRANCH   9  10
ATOM     10  N   UNL     1       5.923   5.580  17.929  0.00  0.00    +0.000 N 
ATOM     11  C   UNL     1       6.835   6.581  17.714  0.00  0.00    +0.000 A 
ATOM     12  N   UNL     1       7.407   6.473  16.535  0.00  0.00    +0.000 NA
ATOM     13  C   UNL     1       6.810   5.393  15.929  0.00  0.00    +0.000 A 
ATOM     14 CL   UNL     1       7.224   4.874  14.366  0.00  0.00    +0.000 Cl
ATOM     15  C   UNL     1       5.875   4.848  16.774  0.00  0.00    +0.000 A 
ATOM     16 CL   UNL     1       4.800   3.545  16.584  0.00  0.00    +0.000 Cl
ENDBRANCH   9  10
ENDBRANCH   2   9
TORSDOF 3
ENDMDL
MODEL 3
REMARK VINA RESULT:      -6.5      2.689      3.006
REMARK  Name = 
REMARK  3 active torsions:
REMARK  status: ('A' for Active; 'I' for Inactive)
REMARK    1  A    between atoms: C_2  and  C_3
REMARK    2  A    between atoms: C_2  and  C_11
REMARK    3  A    between atoms: C_3  and  N_4
REMARK                            x       y       z     vdW  Elec       q    Type
REMARK                         _______ _______ _______ _____ _____    ______ ____
ROOT
ATOM      1  O   UNL     1       2.519   7.051  18.954  0.00  0.00    +0.000 OA
ATOM      2  C   UNL     1       3.126   6.005  19.180  0.00  0.00    +0.000 C 
ENDROOT
BRANCH   2   3
ATOM      3  C   UNL     1       2.388   4.840  19.740  0.00  0.00    +0.000 A 
ATOM      4  C   UNL     1       2.611   4.493  21.078  0.00  0.00    +0.000 A 
ATOM      5  C   UNL     1       1.946   3.402  21.640  0.00  0.00    +0.000 A 
ATOM      6  C   UNL     1       1.069   2.646  20.863  0.00  0.00    +0.000 A 
ATOM      7  C   UNL     1       0.852   2.981  19.528  0.00  0.00    +0.000 A 
ATOM      8  C   UNL     1       1.506   4.078  18.963  0.00  0.00    +0.000 A 
ENDBRANCH   2   3
BRANCH   2   9
ATOM      9  C   UNL     1       4.599   5.865  18.881  0.00  0.00    +0.000 C 
BRANCH   9  10
ATOM     10  N   UNL     1       4.917   5.798  17.467  0.00  0.00    +0.000 N 
ATOM     11  C   UNL     1       5.281   6.849  16.665  0.00  0.00    +0.000 A 
ATOM     12  N   UNL     1       5.567   6.453  15.444  0.00  0.00    +0.000 NA
ATOM     13  C   UNL     1       5.330   5.100  15.426  0.00  0.00    +0.000 A 
ATOM     14 CL   UNL     1       5.553   4.148  14.037  0.00  0.00    +0.000 Cl
ATOM     15  C   UNL     1       4.906   4.689  16.666  0.00  0.00    +0.000 A 
ATOM     16 CL   UNL     1       4.427   3.166  17.252  0.00  0.00    +0.000 Cl
ENDBRANCH   9  10
ENDBRANCH   2   9
TORSDOF 3
ENDMDL
MODEL 4
REMARK VINA RESULT:      -6.3      1.542      1.809
REMARK  Name = 
REMARK  3 active torsions:
REMARK  status: ('A' for Active; 'I' for Inactive)
REMARK    1  A    between atoms: C_2  and  C_3
REMARK    2  A    between atoms: C_2  and  C_11
REMARK    3  A    between atoms: C_3  and  N_4
REMARK                            x       y       z     vdW  Elec       q    Type
REMARK                         _______ _______ _______ _____ _____    ______ ____
ROOT
ATOM      1  O   UNL     1       2.396   3.245  16.614  0.00  0.00    +0.000 OA
ATOM      2  C   UNL     1       3.189   3.396  17.543  0.00  0.00    +0.000 C 
ENDROOT
BRANCH   2   3
ATOM      3  C   UNL     1       2.683   3.378  18.943  0.00  0.00    +0.000 A 
ATOM      4  C   UNL     1       3.398   2.644  19.898  0.00  0.00    +0.000 A 
ATOM      5  C   UNL     1       2.953   2.594  21.220  0.00  0.00    +0.000 A 
ATOM      6  C   UNL     1       1.787   3.264  21.588  0.00  0.00    +0.000 A 
ATOM      7  C   UNL     1       1.068   3.988  20.639  0.00  0.00    +0.000 A 
ATOM      8  C   UNL     1       1.514   4.051  19.316  0.00  0.00    +0.000 A 
ENDBRANCH   2   3
BRANCH   2   9
ATOM      9  C   UNL     1       4.668   3.575  17.299  0.00  0.00    +0.000 C 
BRANCH   9  10
ATOM     10  N   UNL     1       5.105   4.957  17.273  0.00  0.00    +0.000 N 
ATOM     11  C   UNL     1       4.305   6.060  17.113  0.00  0.00    +0.000 A 
ATOM     12  N   UNL     1       4.993   7.177  17.199  0.00  0.00    +0.000 NA
ATOM     13  C   UNL     1       6.303   6.795  17.366  0.00  0.00    +0.000 A 
ATOM     14 CL   UNL     1       7.572   7.915  17.513  0.00  0.00    +0.000 Cl
ATOM     15  C   UNL     1       6.386   5.425  17.390  0.00  0.00    +0.000 A 
ATOM     16 CL   UNL     1       7.714   4.372  17.526  0.00  0.00    +0.000 Cl
ENDBRANCH   9  10
ENDBRANCH   2   9
TORSDOF 3
ENDMDL
MODEL 5
REMARK VINA RESULT:      -6.3      2.211      2.466
REMARK  Name = 
REMARK  3 active torsions:
REMARK  status: ('A' for Active; 'I' for Inactive)
REMARK    1  A    between atoms: C_2  and  C_3
REMARK    2  A    between atoms: C_2  and  C_11
REMARK    3  A    between atoms: C_3  and  N_4
REMARK                            x       y       z     vdW  Elec       q    Type
REMARK                         _______ _______ _______ _____ _____    ______ ____
ROOT
ATOM      1  O   UNL     1       1.962   3.482  17.013  0.00  0.00    +0.000 OA
ATOM      2  C   UNL     1       2.883   4.069  17.579  0.00  0.00    +0.000 C 
ENDROOT
BRANCH   2   3
ATOM      3  C   UNL     1       2.573   5.206  18.489  0.00  0.00    +0.000 A 
ATOM      4  C   UNL     1       2.222   4.920  19.814  0.00  0.00    +0.000 A 
ATOM      5  C   UNL     1       1.916   5.956  20.697  0.00  0.00    +0.000 A 
ATOM      6  C   UNL     1       1.944   7.278  20.256  0.00  0.00    +0.000 A 
ATOM      7  C   UNL     1       2.282   7.567  18.936  0.00  0.00    +0.000 A 
ATOM      8  C   UNL     1       2.601   6.535  18.049  0.00  0.00    +0.000 A 
ENDBRANCH   2   3
BRANCH   2   9
ATOM      9  C   UNL     1       4.322   3.651  17.392  0.00  0.00    +0.000 C 
BRANCH   9  10
ATOM     10  N   UNL     1       5.209   4.727  16.994  0.00  0.00    +0.000 N 
ATOM     11  C   UNL     1       5.440   5.158  15.713  0.00  0.00    +0.000 A 
ATOM     12  N   UNL     1       6.248   6.196  15.687  0.00  0.00    +0.000 NA
ATOM     13  C   UNL     1       6.604   6.422  16.995  0.00  0.00    +0.000 A 
ATOM     14 CL   UNL     1       7.659   7.672  17.454  0.00  0.00    +0.000 Cl
ATOM     15  C   UNL     1       5.985   5.506  17.808  0.00  0.00    +0.000 A 
ATOM     16 CL   UNL     1       6.058   5.249  19.487  0.00  0.00    +0.000 Cl
ENDBRANCH   9  10
ENDBRANCH   2   9
TORSDOF 3
ENDMDL
MODEL 6
REMARK VINA RESULT:      -6.3      2.389      2.816
REMARK  Name = 
REMARK  3 active torsions:
REMARK  status: ('A' for Active; 'I' for Inactive)
REMARK    1  A    between atoms: C_2  and  C_3
REMARK    2  A    between atoms: C_2  and  C_11
REMARK    3  A    between atoms: C_3  and  N_4
REMARK                            x       y       z     vdW  Elec       q    Type
REMARK                         _______ _______ _______ _____ _____    ______ ____
ROOT
ATOM      1  O   UNL     1       3.024   6.505  18.013  0.00  0.00    +0.000 OA
ATOM      2  C   UNL     1       3.514   5.646  18.744  0.00  0.00    +0.000 C 
ENDROOT
BRANCH   2   3
ATOM      3  C   UNL     1       2.622   4.653  19.402  0.00  0.00    +0.000 A 
ATOM      4  C   UNL     1       1.761   3.897  18.596  0.00  0.00    +0.000 A 
ATOM      5  C   UNL     1       0.902   2.961  19.174  0.00  0.00    +0.000 A 
ATOM      6  C   UNL     1       0.889   2.788  20.558  0.00  0.00    +0.000 A 
ATOM      7  C   UNL     1       1.737   3.545  21.364  0.00  0.00    +0.000 A 
ATOM      8  C   UNL     1       2.608   4.475  20.791  0.00  0.00    +0.000 A 
ENDBRANCH   2   3
BRANCH   2   9
ATOM      9  C   UNL     1       5.004   5.560  18.974  0.00  0.00    +0.000 C 
BRANCH   9  10
ATOM     10  N   UNL     1       5.802   5.692  17.770  0.00  0.00    +0.000 N 
ATOM     11  C   UNL     1       6.709   6.685  17.501  0.00  0.00    +0.000 A 
ATOM     12  N   UNL     1       7.318   6.490  16.352  0.00  0.00    +0.000 NA
ATOM     13  C   UNL     1       6.752   5.356  15.819  0.00  0.00    +0.000 A 
ATOM     14 CL   UNL     1       7.220   4.718  14.316  0.00  0.00    +0.000 Cl
ATOM     15  C   UNL     1       5.798   4.869  16.677  0.00  0.00    +0.000 A 
ATOM     16 CL   UNL     1       4.744   3.539  16.563  0.00  0.00    +0.000 Cl
ENDBRANCH   9  10
ENDBRANCH   2   9
TORSDOF 3
ENDMDL
MODEL 7
REMARK VINA RESULT:      -6.3      1.800      2.216
REMARK  Name = 
REMARK  3 active torsions:
REMARK  status: ('A' for Active; 'I' for Inactive)
REMARK    1  A    between atoms: C_2  and  C_3
REMARK    2  A    between atoms: C_2  and  C_11
REMARK    3  A    between atoms: C_3  and  N_4
REMARK                            x       y       z     vdW  Elec       q    Type
REMARK                         _______ _______ _______ _____ _____    ______ ____
ROOT
ATOM      1  O   UNL     1       5.336   3.045  19.644  0.00  0.00    +0.000 OA
ATOM      2  C   UNL     1       4.474   3.344  18.819  0.00  0.00    +0.000 C 
ENDROOT
BRANCH   2   3
ATOM      3  C   UNL     1       3.040   3.309  19.217  0.00  0.00    +0.000 A 
ATOM      4  C   UNL     1       2.175   2.465  18.509  0.00  0.00    +0.000 A 
ATOM      5  C   UNL     1       0.822   2.408  18.845  0.00  0.00    +0.000 A 
ATOM      6  C   UNL     1       0.325   3.205  19.876  0.00  0.00    +0.000 A 
ATOM      7  C   UNL     1       1.181   4.053  20.576  0.00  0.00    +0.000 A 
ATOM      8  C   UNL     1       2.539   4.106  20.253  0.00  0.00    +0.000 A 
ENDBRANCH   2   3
BRANCH   2   9
ATOM      9  C   UNL     1       4.836   3.770  17.416  0.00  0.00    +0.000 C 
BRANCH   9  10
ATOM     10  N   UNL     1       5.317   5.134  17.313  0.00  0.00    +0.000 N 
ATOM     11  C   UNL     1       4.566   6.241  17.011  0.00  0.00    +0.000 A 
ATOM     12  N   UNL     1       5.282   7.343  17.057  0.00  0.00    +0.000 NA
ATOM     13  C   UNL     1       6.564   6.941  17.346  0.00  0.00    +0.000 A 
ATOM     14 CL   UNL     1       7.855   8.035  17.495  0.00  0.00    +0.000 Cl
ATOM     15  C   UNL     1       6.601   5.576  17.483  0.00  0.00    +0.000 A 
ATOM     16 CL   UNL     1       7.882   4.503  17.796  0.00  0.00    +0.000 Cl
ENDBRANCH   9  10
ENDBRANCH   2   9
TORSDOF 3
ENDMDL
MODEL 8
REMARK VINA RESULT:      -6.3      2.434      2.909
REMARK  Name = 
REMARK  3 active torsions:
REMARK  status: ('A' for Active; 'I' for Inactive)
REMARK    1  A    between atoms: C_2  and  C_3
REMARK    2  A    between atoms: C_2  and  C_11
REMARK    3  A    between atoms: C_3  and  N_4
REMARK                            x       y       z     vdW  Elec       q    Type
REMARK                         _______ _______ _______ _____ _____    ______ ____
ROOT
ATOM      1  O   UNL     1       6.000   4.260  19.673  0.00  0.00    +0.000 OA
ATOM      2  C   UNL     1       4.982   4.804  19.249  0.00  0.00    +0.000 C 
ENDROOT
BRANCH   2   3
ATOM      3  C   UNL     1       3.652   4.351  19.740  0.00  0.00    +0.000 A 
ATOM      4  C   UNL     1       2.680   5.320  20.017  0.00  0.00    +0.000 A 
ATOM      5  C   UNL     1       1.424   4.938  20.488  0.00  0.00    +0.000 A 
ATOM      6  C   UNL     1       1.139   3.589  20.699  0.00  0.00    +0.000 A 
ATOM      7  C   UNL     1       2.107   2.622  20.434  0.00  0.00    +0.000 A 
ATOM      8  C   UNL     1       3.363   2.997  19.952  0.00  0.00    +0.000 A 
ENDBRANCH   2   3
BRANCH   2   9
ATOM      9  C   UNL     1       5.048   5.940  18.255  0.00  0.00    +0.000 C 
BRANCH   9  10
ATOM     10  N   UNL     1       5.721   5.608  17.014  0.00  0.00    +0.000 N 
ATOM     11  C   UNL     1       6.904   6.137  16.564  0.00  0.00    +0.000 A 
ATOM     12  N   UNL     1       7.284   5.584  15.433  0.00  0.00    +0.000 NA
ATOM     13  C   UNL     1       6.288   4.699  15.098  0.00  0.00    +0.000 A 
ATOM     14 CL   UNL     1       6.340   3.751  13.689  0.00  0.00    +0.000 Cl
ATOM     15  C   UNL     1       5.306   4.723  16.057  0.00  0.00    +0.000 A 
ATOM     16 CL   UNL     1       3.826   3.896  16.184  0.00  0.00    +0.000 Cl
ENDBRANCH   9  10
ENDBRANCH   2   9
TORSDOF 3
ENDMDL
MODEL 9
REMARK VINA RESULT:      -6.3      2.274      2.579
REMARK  Name = 
REMARK  3 active torsions:
REMARK  status: ('A' for Active; 'I' for Inactive)
REMARK    1  A    between atoms: C_2  and  C_3
REMARK    2  A    between atoms: C_2  and  C_11
REMARK    3  A    between atoms: C_3  and  N_4
REMARK                            x       y       z     vdW  Elec       q    Type
REMARK                         _______ _______ _______ _____ _____    ______ ____
ROOT
ATOM      1  O   UNL     1       5.750   3.786  19.542  0.00  0.00    +0.000 OA
ATOM      2  C   UNL     1       4.811   4.544  19.304  0.00  0.00    +0.000 C 
ENDROOT
BRANCH   2   3
ATOM      3  C   UNL     1       3.443   4.177  19.763  0.00  0.00    +0.000 A 
ATOM      4  C   UNL     1       3.130   2.819  19.899  0.00  0.00    +0.000 A 
ATOM      5  C   UNL     1       1.856   2.433  20.319  0.00  0.00    +0.000 A 
ATOM      6  C   UNL     1       0.888   3.400  20.588  0.00  0.00    +0.000 A 
ATOM      7  C   UNL     1       1.193   4.752  20.444  0.00  0.00    +0.000 A 
ATOM      8  C   UNL     1       2.469   5.146  20.035  0.00  0.00    +0.000 A 
ENDBRANCH   2   3
BRANCH   2   9
ATOM      9  C   UNL     1       5.015   5.851  18.576  0.00  0.00    +0.000 C 
BRANCH   9  10
ATOM     10  N   UNL     1       5.768   5.735  17.342  0.00  0.00    +0.000 N 
ATOM     11  C   UNL     1       6.912   6.420  17.021  0.00  0.00    +0.000 A 
ATOM     12  N   UNL     1       7.392   6.046  15.855  0.00  0.00    +0.000 NA
ATOM     13  C   UNL     1       6.501   5.121  15.365  0.00  0.00    +0.000 A 
ATOM     14 CL   UNL     1       6.704   4.361  13.860  0.00  0.00    +0.000 Cl
ATOM     15  C   UNL     1       5.482   4.939  16.267  0.00  0.00    +0.000 A 
ATOM     16 CL   UNL     1       4.084   3.972  16.217  0.00  0.00    +0.000 Cl
ENDBRANCH   9  10
ENDBRANCH   2   9
TORSDOF 3
ENDMDL
