MODEL 1
REMARK VINA RESULT:      -7.2      0.000      0.000
REMARK  Name = 
REMARK  8 active torsions:
REMARK  status: ('A' for Active; 'I' for Inactive)
REMARK    1  A    between atoms: C_1  and  C_2
REMARK    2  A    between atoms: C_6  and  C_7
REMARK    3  A    between atoms: C_6  and  C_8
REMARK    4  A    between atoms: C_9  and  O_10
REMARK    5  A    between atoms: C_9  and  C_11
REMARK    6  A    between atoms: C_12  and  C_13
REMARK    7  A    between atoms: C_14  and  C_15
REMARK    8  A    between atoms: C_15  and  O_17
REMARK                            x       y       z     vdW  Elec       q    Type
REMARK                         _______ _______ _______ _____ _____    ______ ____
ROOT
ATOM      1  C   UNL     1       2.066   6.545  20.152  0.00  0.00    +0.000 C 
ATOM      2  C   UNL     1       2.336   5.032  20.199  0.00  0.00    +0.000 C 
ATOM      3  C   UNL     1       1.026   4.313  20.582  0.00  0.00    +0.000 C 
ATOM      4  C   UNL     1       1.156   2.795  20.601  0.00  0.00    +0.000 C 
ATOM      5  C   UNL     1       1.777   2.239  19.322  0.00  0.00    +0.000 C 
ATOM      6  C   UNL     1       3.136   2.901  18.964  0.00  0.00    +0.000 C 
ATOM      7  C   UNL     1       4.189   2.486  20.020  0.00  0.00    +0.000 C 
ATOM      8  C   UNL     1       3.596   2.309  17.608  0.00  0.00    +0.000 C 
ATOM      9  C   UNL     1       2.945   4.464  18.872  0.00  0.00    +0.000 C 
ENDROOT
BRANCH   9  10
ATOM     10  O   UNL     1       2.026   4.731  17.800  0.00  0.00    +0.000 OA
ATOM     11  H   UNL     1       2.484   5.174  17.071  0.00  0.00    +0.000 HD
ENDBRANCH   9  10
BRANCH   9  12
ATOM     12  C   UNL     1       4.239   5.202  18.524  0.00  0.00    +0.000 C 
ATOM     13  C   UNL     1       4.464   5.815  17.348  0.00  0.00    +0.000 C 
BRANCH  13  14
ATOM     14  C   UNL     1       5.650   6.567  17.014  0.00  0.00    +0.000 C 
ATOM     15  C   UNL     1       6.811   6.066  16.558  0.00  0.00    +0.000 C 
BRANCH  15  16
ATOM     16  C   UNL     1       7.108   4.639  16.279  0.00  0.00    +0.000 C 
ATOM     17  O   UNL     1       6.638   3.969  15.380  0.00  0.00    +0.000 OA
BRANCH  16  18
ATOM     18  O   UNL     1       8.016   4.147  17.147  0.00  0.00    +0.000 OA
ATOM     19  H   UNL     1       8.916   4.508  17.061  0.00  0.00    +0.000 HD
ENDBRANCH  16  18
ENDBRANCH  15  16
ENDBRANCH  13  14
ENDBRANCH   9  12
TORSDOF 5
ENDMDL
MODEL 2
REMARK VINA RESULT:      -7.0      1.068      1.396
REMARK  Name = 
REMARK  8 active torsions:
REMARK  status: ('A' for Active; 'I' for Inactive)
REMARK    1  A    between atoms: C_1  and  C_2
REMARK    2  A    between atoms: C_6  and  C_7
REMARK    3  A    between atoms: C_6  and  C_8
REMARK    4  A    between atoms: C_9  and  O_10
REMARK    5  A    between atoms: C_9  and  C_11
REMARK    6  A    between atoms: C_12  and  C_13
REMARK    7  A    between atoms: C_14  and  C_15
REMARK    8  A    between atoms: C_15  and  O_17
REMARK                            x       y       z     vdW  Elec       q    Type
REMARK                         _______ _______ _______ _____ _____    ______ ____
ROOT
ATOM      1  C   UNL     1       2.256   6.935  19.462  0.00  0.00    +0.000 C 
ATOM      2  C   UNL     1       2.503   5.446  19.754  0.00  0.00    +0.000 C 
ATOM      3  C   UNL     1       1.379   4.938  20.681  0.00  0.00    +0.000 C 
ATOM      4  C   UNL     1       1.486   3.449  20.992  0.00  0.00    +0.000 C 
ATOM      5  C   UNL     1       1.646   2.592  19.739  0.00  0.00    +0.000 C 
ATOM      6  C   UNL     1       2.823   3.047  18.834  0.00  0.00    +0.000 C 
ATOM      7  C   UNL     1       4.157   2.768  19.567  0.00  0.00    +0.000 C 
ATOM      8  C   UNL     1       2.805   2.154  17.568  0.00  0.00    +0.000 C 
ATOM      9  C   UNL     1       2.636   4.570  18.463  0.00  0.00    +0.000 C 
ENDROOT
BRANCH   9  10
ATOM     10  O   UNL     1       1.421   4.690  17.705  0.00  0.00    +0.000 OA
ATOM     11  H   UNL     1       0.947   3.846  17.702  0.00  0.00    +0.000 HD
ENDBRANCH   9  10
BRANCH   9  12
ATOM     12  C   UNL     1       3.756   5.106  17.571  0.00  0.00    +0.000 C 
ATOM     13  C   UNL     1       4.720   5.945  17.993  0.00  0.00    +0.000 C 
BRANCH  13  14
ATOM     14  C   UNL     1       5.821   6.420  17.190  0.00  0.00    +0.000 C 
ATOM     15  C   UNL     1       7.119   6.107  17.348  0.00  0.00    +0.000 C 
BRANCH  15  16
ATOM     16  C   UNL     1       7.688   5.189  18.366  0.00  0.00    +0.000 C 
ATOM     17  O   UNL     1       7.805   5.417  19.554  0.00  0.00    +0.000 OA
BRANCH  16  18
ATOM     18  O   UNL     1       8.050   4.010  17.818  0.00  0.00    +0.000 OA
ATOM     19  H   UNL     1       8.842   3.595  18.204  0.00  0.00    +0.000 HD
ENDBRANCH  16  18
ENDBRANCH  15  16
ENDBRANCH  13  14
ENDBRANCH   9  12
TORSDOF 5
ENDMDL
MODEL 3
REMARK VINA RESULT:      -6.9      1.575      2.665
REMARK  Name = 
REMARK  8 active torsions:
REMARK  status: ('A' for Active; 'I' for Inactive)
REMARK    1  A    between atoms: C_1  and  C_2
REMARK    2  A    between atoms: C_6  and  C_7
REMARK    3  A    between atoms: C_6  and  C_8
REMARK    4  A    between atoms: C_9  and  O_10
REMARK    5  A    between atoms: C_9  and  C_11
REMARK    6  A    between atoms: C_12  and  C_13
REMARK    7  A    between atoms: C_14  and  C_15
REMARK    8  A    between atoms: C_15  and  O_17
REMARK                            x       y       z     vdW  Elec       q    Type
REMARK                         _______ _______ _______ _____ _____    ______ ____
ROOT
ATOM      1  C   UNL     1       4.853   1.890  20.387  0.00  0.00    +0.000 C 
ATOM      2  C   UNL     1       3.440   2.421  20.094  0.00  0.00    +0.000 C 
ATOM      3  C   UNL     1       2.732   2.691  21.438  0.00  0.00    +0.000 C 
ATOM      4  C   UNL     1       1.336   3.281  21.273  0.00  0.00    +0.000 C 
ATOM      5  C   UNL     1       1.311   4.492  20.343  0.00  0.00    +0.000 C 
ATOM      6  C   UNL     1       1.954   4.211  18.957  0.00  0.00    +0.000 C 
ATOM      7  C   UNL     1       1.061   3.213  18.182  0.00  0.00    +0.000 C 
ATOM      8  C   UNL     1       1.943   5.542  18.164  0.00  0.00    +0.000 C 
ATOM      9  C   UNL     1       3.426   3.681  19.164  0.00  0.00    +0.000 C 
ENDROOT
BRANCH   9  10
ATOM     10  O   UNL     1       4.182   4.724  19.801  0.00  0.00    +0.000 OA
ATOM     11  H   UNL     1       4.897   5.019  19.219  0.00  0.00    +0.000 HD
ENDBRANCH   9  10
BRANCH   9  12
ATOM     12  C   UNL     1       4.139   3.375  17.846  0.00  0.00    +0.000 C 
ATOM     13  C   UNL     1       4.430   4.301  16.913  0.00  0.00    +0.000 C 
BRANCH  13  14
ATOM     14  C   UNL     1       5.151   4.052  15.689  0.00  0.00    +0.000 C 
ATOM     15  C   UNL     1       6.454   4.299  15.465  0.00  0.00    +0.000 C 
BRANCH  15  16
ATOM     16  C   UNL     1       7.427   4.857  16.437  0.00  0.00    +0.000 C 
ATOM     17  O   UNL     1       8.084   4.224  17.240  0.00  0.00    +0.000 OA
BRANCH  16  18
ATOM     18  O   UNL     1       7.532   6.196  16.313  0.00  0.00    +0.000 OA
ATOM     19  H   UNL     1       7.054   6.586  15.559  0.00  0.00    +0.000 HD
ENDBRANCH  16  18
ENDBRANCH  15  16
ENDBRANCH  13  14
ENDBRANCH   9  12
TORSDOF 5
ENDMDL
MODEL 4
REMARK VINA RESULT:      -6.8      1.310      1.822
REMARK  Name = 
REMARK  8 active torsions:
REMARK  status: ('A' for Active; 'I' for Inactive)
REMARK    1  A    between atoms: C_1  and  C_2
REMARK    2  A    between atoms: C_6  and  C_7
REMARK    3  A    between atoms: C_6  and  C_8
REMARK    4  A    between atoms: C_9  and  O_10
REMARK    5  A    between atoms: C_9  and  C_11
REMARK    6  A    between atoms: C_12  and  C_13
REMARK    7  A    between atoms: C_14  and  C_15
REMARK    8  A    between atoms: C_15  and  O_17
REMARK                            x       y       z     vdW  Elec       q    Type
REMARK                         _______ _______ _______ _____ _____    ______ ____
ROOT
ATOM      1  C   UNL     1       2.764   6.617  18.020  0.00  0.00    +0.000 C 
ATOM      2  C   UNL     1       2.870   5.390  18.941  0.00  0.00    +0.000 C 
ATOM      3  C   UNL     1       2.075   5.678  20.231  0.00  0.00    +0.000 C 
ATOM      4  C   UNL     1       2.058   4.502  21.201  0.00  0.00    +0.000 C 
ATOM      5  C   UNL     1       1.642   3.193  20.536  0.00  0.00    +0.000 C 
ATOM      6  C   UNL     1       2.486   2.852  19.277  0.00  0.00    +0.000 C 
ATOM      7  C   UNL     1       3.932   2.524  19.717  0.00  0.00    +0.000 C 
ATOM      8  C   UNL     1       1.895   1.559  18.660  0.00  0.00    +0.000 C 
ATOM      9  C   UNL     1       2.413   4.056  18.260  0.00  0.00    +0.000 C 
ENDROOT
BRANCH   9  10
ATOM     10  O   UNL     1       1.043   4.202  17.850  0.00  0.00    +0.000 OA
ATOM     11  H   UNL     1       0.749   3.405  17.384  0.00  0.00    +0.000 HD
ENDBRANCH   9  10
BRANCH   9  12
ATOM     12  C   UNL     1       3.221   3.807  16.985  0.00  0.00    +0.000 C 
ATOM     13  C   UNL     1       4.466   4.274  16.778  0.00  0.00    +0.000 C 
BRANCH  13  14
ATOM     14  C   UNL     1       5.272   4.007  15.612  0.00  0.00    +0.000 C 
ATOM     15  C   UNL     1       6.585   4.262  15.472  0.00  0.00    +0.000 C 
BRANCH  15  16
ATOM     16  C   UNL     1       7.483   4.851  16.497  0.00  0.00    +0.000 C 
ATOM     17  O   UNL     1       8.129   4.238  17.324  0.00  0.00    +0.000 OA
BRANCH  16  18
ATOM     18  O   UNL     1       7.534   6.196  16.392  0.00  0.00    +0.000 OA
ATOM     19  H   UNL     1       7.359   6.687  17.214  0.00  0.00    +0.000 HD
ENDBRANCH  16  18
ENDBRANCH  15  16
ENDBRANCH  13  14
ENDBRANCH   9  12
TORSDOF 5
ENDMDL
MODEL 5
REMARK VINA RESULT:      -6.7      1.959      2.264
REMARK  Name = 
REMARK  8 active torsions:
REMARK  status: ('A' for Active; 'I' for Inactive)
REMARK    1  A    between atoms: C_1  and  C_2
REMARK    2  A    between atoms: C_6  and  C_7
REMARK    3  A    between atoms: C_6  and  C_8
REMARK    4  A    between atoms: C_9  and  O_10
REMARK    5  A    between atoms: C_9  and  C_11
REMARK    6  A    between atoms: C_12  and  C_13
REMARK    7  A    between atoms: C_14  and  C_15
REMARK    8  A    between atoms: C_15  and  O_17
REMARK                            x       y       z     vdW  Elec       q    Type
REMARK                         _______ _______ _______ _____ _____    ______ ____
ROOT
ATOM      1  C   UNL     1       2.699   6.121  17.857  0.00  0.00    +0.000 C 
ATOM      2  C   UNL     1       2.416   4.849  18.674  0.00  0.00    +0.000 C 
ATOM      3  C   UNL     1       1.198   4.133  18.055  0.00  0.00    +0.000 C 
ATOM      4  C   UNL     1       0.858   2.818  18.749  0.00  0.00    +0.000 C 
ATOM      5  C   UNL     1       2.067   1.898  18.897  0.00  0.00    +0.000 C 
ATOM      6  C   UNL     1       3.277   2.585  19.588  0.00  0.00    +0.000 C 
ATOM      7  C   UNL     1       2.920   2.860  21.068  0.00  0.00    +0.000 C 
ATOM      8  C   UNL     1       4.448   1.571  19.585  0.00  0.00    +0.000 C 
ATOM      9  C   UNL     1       3.653   3.897  18.796  0.00  0.00    +0.000 C 
ENDROOT
BRANCH   9  10
ATOM     10  O   UNL     1       4.059   3.508  17.473  0.00  0.00    +0.000 OA
ATOM     11  H   UNL     1       3.390   2.932  17.076  0.00  0.00    +0.000 HD
ENDBRANCH   9  10
BRANCH   9  12
ATOM     12  C   UNL     1       4.839   4.642  19.409  0.00  0.00    +0.000 C 
ATOM     13  C   UNL     1       6.007   4.853  18.775  0.00  0.00    +0.000 C 
BRANCH  13  14
ATOM     14  C   UNL     1       7.119   5.602  19.307  0.00  0.00    +0.000 C 
ATOM     15  C   UNL     1       7.825   6.550  18.665  0.00  0.00    +0.000 C 
BRANCH  15  16
ATOM     16  C   UNL     1       7.591   7.040  17.283  0.00  0.00    +0.000 C 
ATOM     17  O   UNL     1       7.542   6.359  16.278  0.00  0.00    +0.000 OA
BRANCH  16  18
ATOM     18  O   UNL     1       7.399   8.375  17.261  0.00  0.00    +0.000 OA
ATOM     19  H   UNL     1       6.523   8.677  17.560  0.00  0.00    +0.000 HD
ENDBRANCH  16  18
ENDBRANCH  15  16
ENDBRANCH  13  14
ENDBRANCH   9  12
TORSDOF 5
ENDMDL
MODEL 6
REMARK VINA RESULT:      -6.6      1.862      2.844
REMARK  Name = 
REMARK  8 active torsions:
REMARK  status: ('A' for Active; 'I' for Inactive)
REMARK    1  A    between atoms: C_1  and  C_2
REMARK    2  A    between atoms: C_6  and  C_7
REMARK    3  A    between atoms: C_6  and  C_8
REMARK    4  A    between atoms: C_9  and  O_10
REMARK    5  A    between atoms: C_9  and  C_11
REMARK    6  A    between atoms: C_12  and  C_13
REMARK    7  A    between atoms: C_14  and  C_15
REMARK    8  A    between atoms: C_15  and  O_17
REMARK                            x       y       z     vdW  Elec       q    Type
REMARK                         _______ _______ _______ _____ _____    ______ ____
ROOT
ATOM      1  C   UNL     1       4.644   2.099  20.462  0.00  0.00    +0.000 C 
ATOM      2  C   UNL     1       3.423   2.831  19.883  0.00  0.00    +0.000 C 
ATOM      3  C   UNL     1       2.366   2.975  20.997  0.00  0.00    +0.000 C 
ATOM      4  C   UNL     1       1.127   3.744  20.553  0.00  0.00    +0.000 C 
ATOM      5  C   UNL     1       1.463   5.076  19.887  0.00  0.00    +0.000 C 
ATOM      6  C   UNL     1       2.469   4.935  18.713  0.00  0.00    +0.000 C 
ATOM      7  C   UNL     1       1.782   4.179  17.551  0.00  0.00    +0.000 C 
ATOM      8  C   UNL     1       2.785   6.363  18.201  0.00  0.00    +0.000 C 
ATOM      9  C   UNL     1       3.773   4.210  19.228  0.00  0.00    +0.000 C 
ENDROOT
BRANCH   9  10
ATOM     10  O   UNL     1       4.373   5.048  20.229  0.00  0.00    +0.000 OA
ATOM     11  H   UNL     1       4.491   4.551  21.052  0.00  0.00    +0.000 HD
ENDBRANCH   9  10
BRANCH   9  12
ATOM     12  C   UNL     1       4.824   4.026  18.132  0.00  0.00    +0.000 C 
ATOM     13  C   UNL     1       6.005   4.669  18.105  0.00  0.00    +0.000 C 
BRANCH  13  14
ATOM     14  C   UNL     1       7.038   4.472  17.117  0.00  0.00    +0.000 C 
ATOM     15  C   UNL     1       6.948   4.741  15.803  0.00  0.00    +0.000 C 
BRANCH  15  16
ATOM     16  C   UNL     1       5.776   5.318  15.098  0.00  0.00    +0.000 C 
ATOM     17  O   UNL     1       5.364   6.457  15.202  0.00  0.00    +0.000 OA
BRANCH  16  18
ATOM     18  O   UNL     1       5.208   4.417  14.270  0.00  0.00    +0.000 OA
ATOM     19  H   UNL     1       5.285   4.615  13.320  0.00  0.00    +0.000 HD
ENDBRANCH  16  18
ENDBRANCH  15  16
ENDBRANCH  13  14
ENDBRANCH   9  12
TORSDOF 5
ENDMDL
MODEL 7
REMARK VINA RESULT:      -6.6      1.278      1.862
REMARK  Name = 
REMARK  8 active torsions:
REMARK  status: ('A' for Active; 'I' for Inactive)
REMARK    1  A    between atoms: C_1  and  C_2
REMARK    2  A    between atoms: C_6  and  C_7
REMARK    3  A    between atoms: C_6  and  C_8
REMARK    4  A    between atoms: C_9  and  O_10
REMARK    5  A    between atoms: C_9  and  C_11
REMARK    6  A    between atoms: C_12  and  C_13
REMARK    7  A    between atoms: C_14  and  C_15
REMARK    8  A    between atoms: C_15  and  O_17
REMARK                            x       y       z     vdW  Elec       q    Type
REMARK                         _______ _______ _______ _____ _____    ______ ____
ROOT
ATOM      1  C   UNL     1       3.760   6.709  18.184  0.00  0.00    +0.000 C 
ATOM      2  C   UNL     1       3.282   5.588  19.121  0.00  0.00    +0.000 C 
ATOM      3  C   UNL     1       2.085   6.113  19.940  0.00  0.00    +0.000 C 
ATOM      4  C   UNL     1       1.484   5.062  20.867  0.00  0.00    +0.000 C 
ATOM      5  C   UNL     1       1.176   3.749  20.152  0.00  0.00    +0.000 C 
ATOM      6  C   UNL     1       2.396   3.169  19.386  0.00  0.00    +0.000 C 
ATOM      7  C   UNL     1       3.463   2.715  20.410  0.00  0.00    +0.000 C 
ATOM      8  C   UNL     1       1.913   1.899  18.640  0.00  0.00    +0.000 C 
ATOM      9  C   UNL     1       2.939   4.254  18.376  0.00  0.00    +0.000 C 
ENDROOT
BRANCH   9  10
ATOM     10  O   UNL     1       1.901   4.521  17.420  0.00  0.00    +0.000 OA
ATOM     11  H   UNL     1       1.698   5.468  17.406  0.00  0.00    +0.000 HD
ENDBRANCH   9  10
BRANCH   9  12
ATOM     12  C   UNL     1       4.148   3.767  17.575  0.00  0.00    +0.000 C 
ATOM     13  C   UNL     1       4.463   4.206  16.343  0.00  0.00    +0.000 C 
BRANCH  13  14
ATOM     14  C   UNL     1       5.627   3.809  15.589  0.00  0.00    +0.000 C 
ATOM     15  C   UNL     1       6.901   4.154  15.845  0.00  0.00    +0.000 C 
BRANCH  15  16
ATOM     16  C   UNL     1       7.378   4.996  16.971  0.00  0.00    +0.000 C 
ATOM     17  O   UNL     1       7.491   6.206  16.965  0.00  0.00    +0.000 OA
BRANCH  16  18
ATOM     18  O   UNL     1       7.657   4.249  18.060  0.00  0.00    +0.000 OA
ATOM     19  H   UNL     1       7.051   4.365  18.813  0.00  0.00    +0.000 HD
ENDBRANCH  16  18
ENDBRANCH  15  16
ENDBRANCH  13  14
ENDBRANCH   9  12
TORSDOF 5
ENDMDL
MODEL 8
REMARK VINA RESULT:      -6.5      1.547      1.842
REMARK  Name = 
REMARK  8 active torsions:
REMARK  status: ('A' for Active; 'I' for Inactive)
REMARK    1  A    between atoms: C_1  and  C_2
REMARK    2  A    between atoms: C_6  and  C_7
REMARK    3  A    between atoms: C_6  and  C_8
REMARK    4  A    between atoms: C_9  and  O_10
REMARK    5  A    between atoms: C_9  and  C_11
REMARK    6  A    between atoms: C_12  and  C_13
REMARK    7  A    between atoms: C_14  and  C_15
REMARK    8  A    between atoms: C_15  and  O_17
REMARK                            x       y       z     vdW  Elec       q    Type
REMARK                         _______ _______ _______ _____ _____    ______ ____
ROOT
ATOM      1  C   UNL     1       2.565   6.874  18.588  0.00  0.00    +0.000 C 
ATOM      2  C   UNL     1       2.705   5.491  19.244  0.00  0.00    +0.000 C 
ATOM      3  C   UNL     1       1.633   5.361  20.346  0.00  0.00    +0.000 C 
ATOM      4  C   UNL     1       1.636   3.999  21.030  0.00  0.00    +0.000 C 
ATOM      5  C   UNL     1       1.601   2.839  20.038  0.00  0.00    +0.000 C 
ATOM      6  C   UNL     1       2.723   2.916  18.967  0.00  0.00    +0.000 C 
ATOM      7  C   UNL     1       4.090   2.687  19.655  0.00  0.00    +0.000 C 
ATOM      8  C   UNL     1       2.506   1.738  17.985  0.00  0.00    +0.000 C 
ATOM      9  C   UNL     1       2.637   4.305  18.223  0.00  0.00    +0.000 C 
ENDROOT
BRANCH   9  10
ATOM     10  O   UNL     1       1.372   4.362  17.545  0.00  0.00    +0.000 OA
ATOM     11  H   UNL     1       1.504   4.302  16.587  0.00  0.00    +0.000 HD
ENDBRANCH   9  10
BRANCH   9  12
ATOM     12  C   UNL     1       3.711   4.470  17.146  0.00  0.00    +0.000 C 
ATOM     13  C   UNL     1       5.001   4.754  17.405  0.00  0.00    +0.000 C 
BRANCH  13  14
ATOM     14  C   UNL     1       6.045   4.857  16.416  0.00  0.00    +0.000 C 
ATOM     15  C   UNL     1       7.105   5.684  16.455  0.00  0.00    +0.000 C 
BRANCH  15  16
ATOM     16  C   UNL     1       7.433   6.647  17.536  0.00  0.00    +0.000 C 
ATOM     17  O   UNL     1       7.797   6.368  18.661  0.00  0.00    +0.000 OA
BRANCH  16  18
ATOM     18  O   UNL     1       7.308   7.923  17.113  0.00  0.00    +0.000 OA
ATOM     19  H   UNL     1       6.919   8.033  16.226  0.00  0.00    +0.000 HD
ENDBRANCH  16  18
ENDBRANCH  15  16
ENDBRANCH  13  14
ENDBRANCH   9  12
TORSDOF 5
ENDMDL
MODEL 9
REMARK VINA RESULT:      -6.4      2.017      2.879
REMARK  Name = 
REMARK  8 active torsions:
REMARK  status: ('A' for Active; 'I' for Inactive)
REMARK    1  A    between atoms: C_1  and  C_2
REMARK    2  A    between atoms: C_6  and  C_7
REMARK    3  A    between atoms: C_6  and  C_8
REMARK    4  A    between atoms: C_9  and  O_10
REMARK    5  A    between atoms: C_9  and  C_11
REMARK    6  A    between atoms: C_12  and  C_13
REMARK    7  A    between atoms: C_14  and  C_15
REMARK    8  A    between atoms: C_15  and  O_17
REMARK                            x       y       z     vdW  Elec       q    Type
REMARK                         _______ _______ _______ _____ _____    ______ ____
ROOT
ATOM      1  C   UNL     1       4.794   2.113  20.681  0.00  0.00    +0.000 C 
ATOM      2  C   UNL     1       3.440   2.631  20.167  0.00  0.00    +0.000 C 
ATOM      3  C   UNL     1       2.434   2.615  21.336  0.00  0.00    +0.000 C 
ATOM      4  C   UNL     1       1.065   3.168  20.957  0.00  0.00    +0.000 C 
ATOM      5  C   UNL     1       1.145   4.529  20.271  0.00  0.00    +0.000 C 
ATOM      6  C   UNL     1       2.097   4.539  19.044  0.00  0.00    +0.000 C 
ATOM      7  C   UNL     1       1.481   3.668  17.923  0.00  0.00    +0.000 C 
ATOM      8  C   UNL     1       2.150   5.993  18.512  0.00  0.00    +0.000 C 
ATOM      9  C   UNL     1       3.527   4.041  19.490  0.00  0.00    +0.000 C 
ENDROOT
BRANCH   9  10
ATOM     10  O   UNL     1       4.035   4.976  20.455  0.00  0.00    +0.000 OA
ATOM     11  H   UNL     1       4.671   5.574  20.035  0.00  0.00    +0.000 HD
ENDBRANCH   9  10
BRANCH   9  12
ATOM     12  C   UNL     1       4.534   4.017  18.340  0.00  0.00    +0.000 C 
ATOM     13  C   UNL     1       5.564   4.875  18.221  0.00  0.00    +0.000 C 
BRANCH  13  14
ATOM     14  C   UNL     1       6.561   4.840  17.180  0.00  0.00    +0.000 C 
ATOM     15  C   UNL     1       7.465   5.797  16.905  0.00  0.00    +0.000 C 
BRANCH  15  16
ATOM     16  C   UNL     1       7.640   7.080  17.631  0.00  0.00    +0.000 C 
ATOM     17  O   UNL     1       7.287   8.177  17.246  0.00  0.00    +0.000 OA
BRANCH  16  18
ATOM     18  O   UNL     1       8.229   6.890  18.830  0.00  0.00    +0.000 OA
ATOM     19  H   UNL     1       8.820   6.117  18.888  0.00  0.00    +0.000 HD
ENDBRANCH  16  18
ENDBRANCH  15  16
ENDBRANCH  13  14
ENDBRANCH   9  12
TORSDOF 5
ENDMDL
