MODEL 1
REMARK VINA RESULT:      -7.1      0.000      0.000
REMARK  Name = 
REMARK  11 active torsions:
REMARK  status: ('A' for Active; 'I' for Inactive)
REMARK    1  A    between atoms: C_1  and  N_2
REMARK    2  A    between atoms: N_2  and  C_3
REMARK    3  A    between atoms: N_2  and  C_4
REMARK    4  A    between atoms: C_4  and  C_5
REMARK    5  A    between atoms: C_5  and  C_6
REMARK    6  A    between atoms: C_6  and  N_7
REMARK    7  A    between atoms: C_8  and  N_9
REMARK    8  A    between atoms: C_10  and  C_11
REMARK    9  A    between atoms: N_19  and  C_20
REMARK   10  A    between atoms: C_23  and  C_24
REMARK   11  A    between atoms: C_26  and  C_27
REMARK                            x       y       z     vdW  Elec       q    Type
REMARK                         _______ _______ _______ _____ _____    ______ ____
ROOT
ATOM      1  N   UNL     1       3.516   4.603  19.962  0.00  0.00    +0.000 N 
ATOM      2  C   UNL     1       4.365   4.143  18.977  0.00  0.00    +0.000 A 
ATOM      3  C   UNL     1       4.395   5.077  17.941  0.00  0.00    +0.000 A 
ATOM      4  C   UNL     1       3.584   6.172  18.376  0.00  0.00    +0.000 A 
ATOM      5  N   UNL     1       3.278   7.370  17.805  0.00  0.00    +0.000 NA
ATOM      6  C   UNL     1       2.455   8.162  18.539  0.00  0.00    +0.000 A 
ATOM      7  C   UNL     1       1.928   7.789  19.766  0.00  0.00    +0.000 A 
ATOM      8  N   UNL     1       2.200   6.599  20.355  0.00  0.00    +0.000 NA
ATOM      9  C   UNL     1       3.044   5.840  19.616  0.00  0.00    +0.000 A 
ENDROOT
BRANCH   3  10
ATOM     10  C   UNL     1       5.150   4.894  16.628  0.00  0.00    +0.000 A 
ATOM     11  N   UNL     1       4.722   4.101  15.649  0.00  0.00    +0.000 NA
ATOM     12  C   UNL     1       5.616   4.242  14.604  0.00  0.00    +0.000 A 
ATOM     13  C   UNL     1       5.638   3.661  13.321  0.00  0.00    +0.000 A 
ATOM     14  C   UNL     1       6.686   3.973  12.441  0.00  0.00    +0.000 A 
ATOM     15  C   UNL     1       7.702   4.851  12.819  0.00  0.00    +0.000 A 
ATOM     16  C   UNL     1       7.692   5.444  14.082  0.00  0.00    +0.000 A 
ATOM     17  C   UNL     1       6.635   5.118  14.947  0.00  0.00    +0.000 A 
ATOM     18  N   UNL     1       6.326   5.509  16.233  0.00  0.00    +0.000 N 
ATOM     19  C   UNL     1       7.162   6.391  17.002  0.00  0.00    +0.000 C 
ENDBRANCH   3  10
BRANCH   2  20
ATOM     20  N   UNL     1       5.017   2.968  19.121  0.00  0.00    +0.000 N 
ATOM     21  H   UNL     1       5.176   2.340  18.328  0.00  0.00    +0.000 HD
ATOM     22  H   UNL     1       5.767   2.923  19.816  0.00  0.00    +0.000 HD
ENDBRANCH   2  20
BRANCH   6  23
ATOM     23  C   UNL     1       2.184   9.440  17.955  0.00  0.00    +0.000 C 
ATOM     24  N   UNL     1       1.969  10.476  17.475  0.00  0.00    +0.000 NA
ENDBRANCH   6  23
BRANCH   7  25
ATOM     25  C   UNL     1       1.048   8.643  20.506  0.00  0.00    +0.000 C 
ATOM     26  N   UNL     1       0.343   9.326  21.132  0.00  0.00    +0.000 NA
ENDBRANCH   7  25
BRANCH   1  27
ATOM     27  C   UNL     1       3.156   3.960  21.217  0.00  0.00    +0.000 C 
BRANCH  27  28
ATOM     28  C   UNL     1       2.132   2.835  21.045  0.00  0.00    +0.000 C 
BRANCH  28  29
ATOM     29  C   UNL     1       0.870   3.261  20.284  0.00  0.00    +0.000 C 
BRANCH  29  31
ATOM     30  C   UNL     1       0.933   3.646  17.882  0.00  0.00    +0.000 C 
ATOM     31  N   UNL     1       0.760   2.652  18.946  0.00  0.00    +0.000 NA
ATOM     32  C   UNL     1       1.768   1.595  18.799  0.00  0.00    +0.000 C 
ENDBRANCH  29  31
ENDBRANCH  28  29
ENDBRANCH  27  28
ENDBRANCH   1  27
TORSDOF 8
ENDMDL
MODEL 2
REMARK VINA RESULT:      -6.8      1.980      7.982
REMARK  Name = 
REMARK  11 active torsions:
REMARK  status: ('A' for Active; 'I' for Inactive)
REMARK    1  A    between atoms: C_1  and  N_2
REMARK    2  A    between atoms: N_2  and  C_3
REMARK    3  A    between atoms: N_2  and  C_4
REMARK    4  A    between atoms: C_4  and  C_5
REMARK    5  A    between atoms: C_5  and  C_6
REMARK    6  A    between atoms: C_6  and  N_7
REMARK    7  A    between atoms: C_8  and  N_9
REMARK    8  A    between atoms: C_10  and  C_11
REMARK    9  A    between atoms: N_19  and  C_20
REMARK   10  A    between atoms: C_23  and  C_24
REMARK   11  A    between atoms: C_26  and  C_27
REMARK                            x       y       z     vdW  Elec       q    Type
REMARK                         _______ _______ _______ _____ _____    ______ ____
ROOT
ATOM      1  N   UNL     1       3.480   6.955  17.804  0.00  0.00    +0.000 N 
ATOM      2  C   UNL     1       2.847   8.074  18.302  0.00  0.00    +0.000 A 
ATOM      3  C   UNL     1       2.059   7.696  19.389  0.00  0.00    +0.000 A 
ATOM      4  C   UNL     1       2.304   6.300  19.585  0.00  0.00    +0.000 A 
ATOM      5  N   UNL     1       1.847   5.410  20.508  0.00  0.00    +0.000 NA
ATOM      6  C   UNL     1       2.313   4.143  20.363  0.00  0.00    +0.000 A 
ATOM      7  C   UNL     1       3.166   3.754  19.341  0.00  0.00    +0.000 A 
ATOM      8  N   UNL     1       3.627   4.611  18.397  0.00  0.00    +0.000 NA
ATOM      9  C   UNL     1       3.169   5.872  18.582  0.00  0.00    +0.000 A 
ENDROOT
BRANCH   3  10
ATOM     10  C   UNL     1       1.133   8.633  20.159  0.00  0.00    +0.000 A 
ATOM     11  N   UNL     1       1.007   8.604  21.483  0.00  0.00    +0.000 NA
ATOM     12  C   UNL     1       0.147   9.631  21.823  0.00  0.00    +0.000 A 
ATOM     13  C   UNL     1      -0.316  10.070  23.079  0.00  0.00    +0.000 A 
ATOM     14  C   UNL     1      -1.210  11.152  23.144  0.00  0.00    +0.000 A 
ATOM     15  C   UNL     1      -1.641  11.795  21.984  0.00  0.00    +0.000 A 
ATOM     16  C   UNL     1      -1.185  11.380  20.732  0.00  0.00    +0.000 A 
ATOM     17  C   UNL     1      -0.292  10.297  20.690  0.00  0.00    +0.000 A 
ATOM     18  N   UNL     1       0.334   9.644  19.650  0.00  0.00    +0.000 N 
ATOM     19  C   UNL     1       0.116   9.985  18.269  0.00  0.00    +0.000 C 
ENDBRANCH   3  10
BRANCH   2  20
ATOM     20  N   UNL     1       3.054   9.290  17.746  0.00  0.00    +0.000 N 
ATOM     21  H   UNL     1       2.314   9.996  17.708  0.00  0.00    +0.000 HD
ATOM     22  H   UNL     1       3.987   9.699  17.835  0.00  0.00    +0.000 HD
ENDBRANCH   2  20
BRANCH   6  23
ATOM     23  C   UNL     1       1.870   3.228  21.371  0.00  0.00    +0.000 C 
ATOM     24  N   UNL     1       1.512   2.480  22.184  0.00  0.00    +0.000 NA
ENDBRANCH   6  23
BRANCH   7  25
ATOM     25  C   UNL     1       3.623   2.403  19.208  0.00  0.00    +0.000 C 
ATOM     26  N   UNL     1       4.022   1.313  19.112  0.00  0.00    +0.000 NA
ENDBRANCH   7  25
BRANCH   1  27
ATOM     27  C   UNL     1       4.382   6.858  16.667  0.00  0.00    +0.000 C 
BRANCH  27  28
ATOM     28  C   UNL     1       5.860   6.931  17.062  0.00  0.00    +0.000 C 
BRANCH  28  29
ATOM     29  C   UNL     1       6.669   5.695  16.651  0.00  0.00    +0.000 C 
BRANCH  29  31
ATOM     30  C   UNL     1       7.004   5.001  14.342  0.00  0.00    +0.000 C 
ATOM     31  N   UNL     1       6.099   4.979  15.495  0.00  0.00    +0.000 NA
ATOM     32  C   UNL     1       5.813   3.588  15.867  0.00  0.00    +0.000 C 
ENDBRANCH  29  31
ENDBRANCH  28  29
ENDBRANCH  27  28
ENDBRANCH   1  27
TORSDOF 8
ENDMDL
MODEL 3
REMARK VINA RESULT:      -6.7      2.333      8.086
REMARK  Name = 
REMARK  11 active torsions:
REMARK  status: ('A' for Active; 'I' for Inactive)
REMARK    1  A    between atoms: C_1  and  N_2
REMARK    2  A    between atoms: N_2  and  C_3
REMARK    3  A    between atoms: N_2  and  C_4
REMARK    4  A    between atoms: C_4  and  C_5
REMARK    5  A    between atoms: C_5  and  C_6
REMARK    6  A    between atoms: C_6  and  N_7
REMARK    7  A    between atoms: C_8  and  N_9
REMARK    8  A    between atoms: C_10  and  C_11
REMARK    9  A    between atoms: N_19  and  C_20
REMARK   10  A    between atoms: C_23  and  C_24
REMARK   11  A    between atoms: C_26  and  C_27
REMARK                            x       y       z     vdW  Elec       q    Type
REMARK                         _______ _______ _______ _____ _____    ______ ____
ROOT
ATOM      1  N   UNL     1       3.454   6.833  17.762  0.00  0.00    +0.000 N 
ATOM      2  C   UNL     1       2.839   7.960  18.267  0.00  0.00    +0.000 A 
ATOM      3  C   UNL     1       2.067   7.592  19.369  0.00  0.00    +0.000 A 
ATOM      4  C   UNL     1       2.304   6.195  19.565  0.00  0.00    +0.000 A 
ATOM      5  N   UNL     1       1.856   5.312  20.499  0.00  0.00    +0.000 NA
ATOM      6  C   UNL     1       2.309   4.040  20.350  0.00  0.00    +0.000 A 
ATOM      7  C   UNL     1       3.140   3.640  19.315  0.00  0.00    +0.000 A 
ATOM      8  N   UNL     1       3.592   4.490  18.361  0.00  0.00    +0.000 NA
ATOM      9  C   UNL     1       3.148   5.756  18.548  0.00  0.00    +0.000 A 
ENDROOT
BRANCH   3  10
ATOM     10  C   UNL     1       1.163   8.539  20.151  0.00  0.00    +0.000 A 
ATOM     11  N   UNL     1       1.029   8.488  21.474  0.00  0.00    +0.000 NA
ATOM     12  C   UNL     1       0.195   9.532  21.829  0.00  0.00    +0.000 A 
ATOM     13  C   UNL     1      -0.263   9.960  23.091  0.00  0.00    +0.000 A 
ATOM     14  C   UNL     1      -1.127  11.065  23.172  0.00  0.00    +0.000 A 
ATOM     15  C   UNL     1      -1.533  11.742  22.022  0.00  0.00    +0.000 A 
ATOM     16  C   UNL     1      -1.081  11.338  20.764  0.00  0.00    +0.000 A 
ATOM     17  C   UNL     1      -0.219  10.231  20.706  0.00  0.00    +0.000 A 
ATOM     18  N   UNL     1       0.396   9.581  19.658  0.00  0.00    +0.000 N 
ATOM     19  C   UNL     1       0.195   9.954  18.283  0.00  0.00    +0.000 C 
ENDBRANCH   3  10
BRANCH   2  20
ATOM     20  N   UNL     1       3.047   9.171  17.703  0.00  0.00    +0.000 N 
ATOM     21  H   UNL     1       2.935   9.323  16.697  0.00  0.00    +0.000 HD
ATOM     22  H   UNL     1       2.809   9.999  18.256  0.00  0.00    +0.000 HD
ENDBRANCH   2  20
BRANCH   6  23
ATOM     23  C   UNL     1       1.876   3.132  21.369  0.00  0.00    +0.000 C 
ATOM     24  N   UNL     1       1.523   2.401  22.200  0.00  0.00    +0.000 NA
ENDBRANCH   6  23
BRANCH   7  25
ATOM     25  C   UNL     1       3.584   2.285  19.178  0.00  0.00    +0.000 C 
ATOM     26  N   UNL     1       3.925   1.180  19.046  0.00  0.00    +0.000 NA
ENDBRANCH   7  25
BRANCH   1  27
ATOM     27  C   UNL     1       4.336   6.725  16.609  0.00  0.00    +0.000 C 
BRANCH  27  28
ATOM     28  C   UNL     1       5.781   7.126  16.916  0.00  0.00    +0.000 C 
BRANCH  28  29
ATOM     29  C   UNL     1       6.704   5.935  17.200  0.00  0.00    +0.000 C 
BRANCH  29  31
ATOM     30  C   UNL     1       8.067   7.749  18.082  0.00  0.00    +0.000 C 
ATOM     31  N   UNL     1       7.903   6.296  17.980  0.00  0.00    +0.000 NA
ATOM     32  C   UNL     1       7.809   5.717  19.325  0.00  0.00    +0.000 C 
ENDBRANCH  29  31
ENDBRANCH  28  29
ENDBRANCH  27  28
ENDBRANCH   1  27
TORSDOF 8
ENDMDL
MODEL 4
REMARK VINA RESULT:      -6.3      4.489      7.936
REMARK  Name = 
REMARK  11 active torsions:
REMARK  status: ('A' for Active; 'I' for Inactive)
REMARK    1  A    between atoms: C_1  and  N_2
REMARK    2  A    between atoms: N_2  and  C_3
REMARK    3  A    between atoms: N_2  and  C_4
REMARK    4  A    between atoms: C_4  and  C_5
REMARK    5  A    between atoms: C_5  and  C_6
REMARK    6  A    between atoms: C_6  and  N_7
REMARK    7  A    between atoms: C_8  and  N_9
REMARK    8  A    between atoms: C_10  and  C_11
REMARK    9  A    between atoms: N_19  and  C_20
REMARK   10  A    between atoms: C_23  and  C_24
REMARK   11  A    between atoms: C_26  and  C_27
REMARK                            x       y       z     vdW  Elec       q    Type
REMARK                         _______ _______ _______ _____ _____    ______ ____
ROOT
ATOM      1  N   UNL     1      -0.837  11.620  20.255  0.00  0.00    +0.000 N 
ATOM      2  C   UNL     1       0.322  10.873  20.237  0.00  0.00    +0.000 A 
ATOM      3  C   UNL     1       0.286  10.020  19.133  0.00  0.00    +0.000 A 
ATOM      4  C   UNL     1      -0.917  10.340  18.429  0.00  0.00    +0.000 A 
ATOM      5  N   UNL     1      -1.456   9.865  17.272  0.00  0.00    +0.000 NA
ATOM      6  C   UNL     1      -2.641  10.426  16.919  0.00  0.00    +0.000 A 
ATOM      7  C   UNL     1      -3.289  11.388  17.678  0.00  0.00    +0.000 A 
ATOM      8  N   UNL     1      -2.788  11.871  18.841  0.00  0.00    +0.000 NA
ATOM      9  C   UNL     1      -1.593  11.316  19.156  0.00  0.00    +0.000 A 
ENDROOT
BRANCH   3  10
ATOM     10  C   UNL     1       1.346   8.970  18.812  0.00  0.00    +0.000 A 
ATOM     11  N   UNL     1       2.055   8.975  17.686  0.00  0.00    +0.000 NA
ATOM     12  C   UNL     1       2.953   7.929  17.778  0.00  0.00    +0.000 A 
ATOM     13  C   UNL     1       3.954   7.489  16.889  0.00  0.00    +0.000 A 
ATOM     14  C   UNL     1       4.735   6.372  17.229  0.00  0.00    +0.000 A 
ATOM     15  C   UNL     1       4.534   5.697  18.433  0.00  0.00    +0.000 A 
ATOM     16  C   UNL     1       3.555   6.125  19.331  0.00  0.00    +0.000 A 
ATOM     17  C   UNL     1       2.785   7.243  18.971  0.00  0.00    +0.000 A 
ATOM     18  N   UNL     1       1.758   7.911  19.603  0.00  0.00    +0.000 N 
ATOM     19  C   UNL     1       1.219   7.494  20.870  0.00  0.00    +0.000 C 
ENDBRANCH   3  10
BRANCH   2  20
ATOM     20  N   UNL     1       1.271  11.046  21.184  0.00  0.00    +0.000 N 
ATOM     21  H   UNL     1       1.056  10.961  22.182  0.00  0.00    +0.000 HD
ATOM     22  H   UNL     1       2.225  10.753  20.959  0.00  0.00    +0.000 HD
ENDBRANCH   2  20
BRANCH   6  23
ATOM     23  C   UNL     1      -3.171   9.958  15.674  0.00  0.00    +0.000 C 
ATOM     24  N   UNL     1      -3.595   9.578  14.661  0.00  0.00    +0.000 NA
ENDBRANCH   6  23
BRANCH   7  25
ATOM     25  C   UNL     1      -4.548  11.945  17.284  0.00  0.00    +0.000 C 
ATOM     26  N   UNL     1      -5.557  12.421  16.952  0.00  0.00    +0.000 NA
ENDBRANCH   7  25
BRANCH   1  27
ATOM     27  C   UNL     1      -1.250  12.622  21.226  0.00  0.00    +0.000 C 
BRANCH  27  28
ATOM     28  C   UNL     1      -2.200  12.073  22.293  0.00  0.00    +0.000 C 
BRANCH  28  29
ATOM     29  C   UNL     1      -3.330  13.038  22.669  0.00  0.00    +0.000 C 
BRANCH  29  31
ATOM     30  C   UNL     1      -4.423  12.370  24.739  0.00  0.00    +0.000 C 
ATOM     31  N   UNL     1      -4.496  12.368  23.275  0.00  0.00    +0.000 NA
ATOM     32  C   UNL     1      -5.729  13.037  22.844  0.00  0.00    +0.000 C 
ENDBRANCH  29  31
ENDBRANCH  28  29
ENDBRANCH  27  28
ENDBRANCH   1  27
TORSDOF 8
ENDMDL
MODEL 5
REMARK VINA RESULT:      -6.2      2.454      6.538
REMARK  Name = 
REMARK  11 active torsions:
REMARK  status: ('A' for Active; 'I' for Inactive)
REMARK    1  A    between atoms: C_1  and  N_2
REMARK    2  A    between atoms: N_2  and  C_3
REMARK    3  A    between atoms: N_2  and  C_4
REMARK    4  A    between atoms: C_4  and  C_5
REMARK    5  A    between atoms: C_5  and  C_6
REMARK    6  A    between atoms: C_6  and  N_7
REMARK    7  A    between atoms: C_8  and  N_9
REMARK    8  A    between atoms: C_10  and  C_11
REMARK    9  A    between atoms: N_19  and  C_20
REMARK   10  A    between atoms: C_23  and  C_24
REMARK   11  A    between atoms: C_26  and  C_27
REMARK                            x       y       z     vdW  Elec       q    Type
REMARK                         _______ _______ _______ _____ _____    ______ ____
ROOT
ATOM      1  N   UNL     1       3.346   4.131  20.068  0.00  0.00    +0.000 N 
ATOM      2  C   UNL     1       2.331   5.037  20.295  0.00  0.00    +0.000 A 
ATOM      3  C   UNL     1       2.746   6.293  19.853  0.00  0.00    +0.000 A 
ATOM      4  C   UNL     1       4.036   6.097  19.269  0.00  0.00    +0.000 A 
ATOM      5  N   UNL     1       4.900   6.947  18.649  0.00  0.00    +0.000 NA
ATOM      6  C   UNL     1       6.057   6.378  18.220  0.00  0.00    +0.000 A 
ATOM      7  C   UNL     1       6.370   5.042  18.416  0.00  0.00    +0.000 A 
ATOM      8  N   UNL     1       5.539   4.173  19.042  0.00  0.00    +0.000 NA
ATOM      9  C   UNL     1       4.383   4.759  19.434  0.00  0.00    +0.000 A 
ENDROOT
BRANCH   3  10
ATOM     10  C   UNL     1       1.939   7.579  20.009  0.00  0.00    +0.000 A 
ATOM     11  N   UNL     1       1.354   7.936  21.150  0.00  0.00    +0.000 NA
ATOM     12  C   UNL     1       0.783   9.175  20.933  0.00  0.00    +0.000 A 
ATOM     13  C   UNL     1       0.065  10.025  21.796  0.00  0.00    +0.000 A 
ATOM     14  C   UNL     1      -0.423  11.249  21.309  0.00  0.00    +0.000 A 
ATOM     15  C   UNL     1      -0.205  11.632  19.986  0.00  0.00    +0.000 A 
ATOM     16  C   UNL     1       0.513  10.807  19.119  0.00  0.00    +0.000 A 
ATOM     17  C   UNL     1       0.992   9.588  19.626  0.00  0.00    +0.000 A 
ATOM     18  N   UNL     1       1.714   8.560  19.058  0.00  0.00    +0.000 N 
ATOM     19  C   UNL     1       2.107   8.554  17.674  0.00  0.00    +0.000 C 
ENDBRANCH   3  10
BRANCH   2  20
ATOM     20  N   UNL     1       1.162   4.641  20.849  0.00  0.00    +0.000 N 
ATOM     21  H   UNL     1       0.958   4.794  21.840  0.00  0.00    +0.000 HD
ATOM     22  H   UNL     1       0.324   4.674  20.262  0.00  0.00    +0.000 HD
ENDBRANCH   2  20
BRANCH   6  23
ATOM     23  C   UNL     1       6.934   7.268  17.522  0.00  0.00    +0.000 C 
ATOM     24  N   UNL     1       7.642   7.996  16.958  0.00  0.00    +0.000 NA
ENDBRANCH   6  23
BRANCH   7  25
ATOM     25  C   UNL     1       7.608   4.479  17.966  0.00  0.00    +0.000 C 
ATOM     26  N   UNL     1       8.620   4.047  17.585  0.00  0.00    +0.000 NA
ENDBRANCH   7  25
BRANCH   1  27
ATOM     27  C   UNL     1       3.376   2.711  20.384  0.00  0.00    +0.000 C 
BRANCH  27  28
ATOM     28  C   UNL     1       3.122   1.818  19.166  0.00  0.00    +0.000 C 
BRANCH  28  29
ATOM     29  C   UNL     1       1.775   2.078  18.481  0.00  0.00    +0.000 C 
BRANCH  29  31
ATOM     30  C   UNL     1       1.336   4.186  17.346  0.00  0.00    +0.000 C 
ATOM     31  N   UNL     1       1.895   2.837  17.222  0.00  0.00    +0.000 NA
ATOM     32  C   UNL     1       3.307   2.924  16.830  0.00  0.00    +0.000 C 
ENDBRANCH  29  31
ENDBRANCH  28  29
ENDBRANCH  27  28
ENDBRANCH   1  27
TORSDOF 8
ENDMDL
MODEL 6
REMARK VINA RESULT:      -6.0      2.027      7.909
REMARK  Name = 
REMARK  11 active torsions:
REMARK  status: ('A' for Active; 'I' for Inactive)
REMARK    1  A    between atoms: C_1  and  N_2
REMARK    2  A    between atoms: N_2  and  C_3
REMARK    3  A    between atoms: N_2  and  C_4
REMARK    4  A    between atoms: C_4  and  C_5
REMARK    5  A    between atoms: C_5  and  C_6
REMARK    6  A    between atoms: C_6  and  N_7
REMARK    7  A    between atoms: C_8  and  N_9
REMARK    8  A    between atoms: C_10  and  C_11
REMARK    9  A    between atoms: N_19  and  C_20
REMARK   10  A    between atoms: C_23  and  C_24
REMARK   11  A    between atoms: C_26  and  C_27
REMARK                            x       y       z     vdW  Elec       q    Type
REMARK                         _______ _______ _______ _____ _____    ______ ____
ROOT
ATOM      1  N   UNL     1       3.525   7.102  17.667  0.00  0.00    +0.000 N 
ATOM      2  C   UNL     1       2.903   8.255  18.097  0.00  0.00    +0.000 A 
ATOM      3  C   UNL     1       2.091   7.945  19.188  0.00  0.00    +0.000 A 
ATOM      4  C   UNL     1       2.309   6.557  19.457  0.00  0.00    +0.000 A 
ATOM      5  N   UNL     1       1.823   5.722  20.416  0.00  0.00    +0.000 NA
ATOM      6  C   UNL     1       2.270   4.441  20.342  0.00  0.00    +0.000 A 
ATOM      7  C   UNL     1       3.132   3.988  19.355  0.00  0.00    +0.000 A 
ATOM      8  N   UNL     1       3.623   4.789  18.378  0.00  0.00    +0.000 NA
ATOM      9  C   UNL     1       3.184   6.065  18.492  0.00  0.00    +0.000 A 
ENDROOT
BRANCH   3  10
ATOM     10  C   UNL     1       1.169   8.934  19.894  0.00  0.00    +0.000 A 
ATOM     11  N   UNL     1       0.324   9.730  19.244  0.00  0.00    +0.000 NA
ATOM     12  C   UNL     1      -0.386  10.426  20.205  0.00  0.00    +0.000 A 
ATOM     13  C   UNL     1      -1.418  11.377  20.083  0.00  0.00    +0.000 A 
ATOM     14  C   UNL     1      -1.969  11.947  21.242  0.00  0.00    +0.000 A 
ATOM     15  C   UNL     1      -1.511  11.583  22.508  0.00  0.00    +0.000 A 
ATOM     16  C   UNL     1      -0.496  10.634  22.648  0.00  0.00    +0.000 A 
ATOM     17  C   UNL     1       0.041  10.077  21.477  0.00  0.00    +0.000 A 
ATOM     18  N   UNL     1       1.030   9.142  21.256  0.00  0.00    +0.000 N 
ATOM     19  C   UNL     1       1.790   8.544  22.322  0.00  0.00    +0.000 C 
ENDBRANCH   3  10
BRANCH   2  20
ATOM     20  N   UNL     1       3.139   9.438  17.485  0.00  0.00    +0.000 N 
ATOM     21  H   UNL     1       2.978   9.566  16.482  0.00  0.00    +0.000 HD
ATOM     22  H   UNL     1       2.975  10.292  18.024  0.00  0.00    +0.000 HD
ENDBRANCH   2  20
BRANCH   6  23
ATOM     23  C   UNL     1       1.795   3.585  21.387  0.00  0.00    +0.000 C 
ATOM     24  N   UNL     1       1.413   2.895  22.239  0.00  0.00    +0.000 NA
ENDBRANCH   6  23
BRANCH   7  25
ATOM     25  C   UNL     1       3.569   2.625  19.298  0.00  0.00    +0.000 C 
ATOM     26  N   UNL     1       3.910   1.512  19.276  0.00  0.00    +0.000 NA
ENDBRANCH   7  25
BRANCH   1  27
ATOM     27  C   UNL     1       4.444   6.935  16.551  0.00  0.00    +0.000 C 
BRANCH  27  28
ATOM     28  C   UNL     1       5.915   6.972  16.971  0.00  0.00    +0.000 C 
BRANCH  28  29
ATOM     29  C   UNL     1       6.705   5.722  16.564  0.00  0.00    +0.000 C 
BRANCH  29  31
ATOM     30  C   UNL     1       7.021   4.978  14.269  0.00  0.00    +0.000 C 
ATOM     31  N   UNL     1       6.115   5.003  15.420  0.00  0.00    +0.000 NA
ATOM     32  C   UNL     1       5.787   3.628  15.817  0.00  0.00    +0.000 C 
ENDBRANCH  29  31
ENDBRANCH  28  29
ENDBRANCH  27  28
ENDBRANCH   1  27
TORSDOF 8
ENDMDL
MODEL 7
REMARK VINA RESULT:      -6.0      3.948      7.638
REMARK  Name = 
REMARK  11 active torsions:
REMARK  status: ('A' for Active; 'I' for Inactive)
REMARK    1  A    between atoms: C_1  and  N_2
REMARK    2  A    between atoms: N_2  and  C_3
REMARK    3  A    between atoms: N_2  and  C_4
REMARK    4  A    between atoms: C_4  and  C_5
REMARK    5  A    between atoms: C_5  and  C_6
REMARK    6  A    between atoms: C_6  and  N_7
REMARK    7  A    between atoms: C_8  and  N_9
REMARK    8  A    between atoms: C_10  and  C_11
REMARK    9  A    between atoms: N_19  and  C_20
REMARK   10  A    between atoms: C_23  and  C_24
REMARK   11  A    between atoms: C_26  and  C_27
REMARK                            x       y       z     vdW  Elec       q    Type
REMARK                         _______ _______ _______ _____ _____    ______ ____
ROOT
ATOM      1  N   UNL     1      -0.866  11.263  20.430  0.00  0.00    +0.000 N 
ATOM      2  C   UNL     1       0.296  10.521  20.419  0.00  0.00    +0.000 A 
ATOM      3  C   UNL     1       0.336   9.772  19.242  0.00  0.00    +0.000 A 
ATOM      4  C   UNL     1      -0.822  10.152  18.495  0.00  0.00    +0.000 A 
ATOM      5  N   UNL     1      -1.283   9.783  17.268  0.00  0.00    +0.000 NA
ATOM      6  C   UNL     1      -2.447  10.372  16.892  0.00  0.00    +0.000 A 
ATOM      7  C   UNL     1      -3.149  11.262  17.692  0.00  0.00    +0.000 A 
ATOM      8  N   UNL     1      -2.725  11.638  18.923  0.00  0.00    +0.000 NA
ATOM      9  C   UNL     1      -1.549  11.058  19.262  0.00  0.00    +0.000 A 
ENDROOT
BRANCH   3  10
ATOM     10  C   UNL     1       1.421   8.756  18.897  0.00  0.00    +0.000 A 
ATOM     11  N   UNL     1       2.150   8.822  17.785  0.00  0.00    +0.000 NA
ATOM     12  C   UNL     1       3.066   7.790  17.848  0.00  0.00    +0.000 A 
ATOM     13  C   UNL     1       4.090   7.407  16.960  0.00  0.00    +0.000 A 
ATOM     14  C   UNL     1       4.887   6.291  17.266  0.00  0.00    +0.000 A 
ATOM     15  C   UNL     1       4.678   5.562  18.437  0.00  0.00    +0.000 A 
ATOM     16  C   UNL     1       3.675   5.933  19.334  0.00  0.00    +0.000 A 
ATOM     17  C   UNL     1       2.890   7.051  19.008  0.00  0.00    +0.000 A 
ATOM     18  N   UNL     1       1.840   7.672  19.649  0.00  0.00    +0.000 N 
ATOM     19  C   UNL     1       1.287   7.191  20.887  0.00  0.00    +0.000 C 
ENDBRANCH   3  10
BRANCH   2  20
ATOM     20  N   UNL     1       1.182  10.609  21.436  0.00  0.00    +0.000 N 
ATOM     21  H   UNL     1       1.101  10.023  22.272  0.00  0.00    +0.000 HD
ATOM     22  H   UNL     1       2.154  10.831  21.202  0.00  0.00    +0.000 HD
ENDBRANCH   2  20
BRANCH   6  23
ATOM     23  C   UNL     1      -2.895  10.019  15.579  0.00  0.00    +0.000 C 
ATOM     24  N   UNL     1      -3.256   9.725  14.514  0.00  0.00    +0.000 NA
ENDBRANCH   6  23
BRANCH   7  25
ATOM     25  C   UNL     1      -4.384  11.850  17.270  0.00  0.00    +0.000 C 
ATOM     26  N   UNL     1      -5.403  12.309  16.943  0.00  0.00    +0.000 NA
ENDBRANCH   7  25
BRANCH   1  27
ATOM     27  C   UNL     1      -1.346  12.173  21.459  0.00  0.00    +0.000 C 
BRANCH  27  28
ATOM     28  C   UNL     1      -0.551  13.479  21.527  0.00  0.00    +0.000 C 
BRANCH  28  29
ATOM     29  C   UNL     1      -0.426  14.196  20.177  0.00  0.00    +0.000 C 
BRANCH  29  31
ATOM     30  C   UNL     1       1.921  14.029  20.798  0.00  0.00    +0.000 C 
ATOM     31  N   UNL     1       0.970  14.391  19.743  0.00  0.00    +0.000 NA
ATOM     32  C   UNL     1       1.233  13.583  18.547  0.00  0.00    +0.000 C 
ENDBRANCH  29  31
ENDBRANCH  28  29
ENDBRANCH  27  28
ENDBRANCH   1  27
TORSDOF 8
ENDMDL
MODEL 8
REMARK VINA RESULT:      -6.0      2.268      7.992
REMARK  Name = 
REMARK  11 active torsions:
REMARK  status: ('A' for Active; 'I' for Inactive)
REMARK    1  A    between atoms: C_1  and  N_2
REMARK    2  A    between atoms: N_2  and  C_3
REMARK    3  A    between atoms: N_2  and  C_4
REMARK    4  A    between atoms: C_4  and  C_5
REMARK    5  A    between atoms: C_5  and  C_6
REMARK    6  A    between atoms: C_6  and  N_7
REMARK    7  A    between atoms: C_8  and  N_9
REMARK    8  A    between atoms: C_10  and  C_11
REMARK    9  A    between atoms: N_19  and  C_20
REMARK   10  A    between atoms: C_23  and  C_24
REMARK   11  A    between atoms: C_26  and  C_27
REMARK                            x       y       z     vdW  Elec       q    Type
REMARK                         _______ _______ _______ _____ _____    ______ ____
ROOT
ATOM      1  N   UNL     1       3.487   7.093  17.654  0.00  0.00    +0.000 N 
ATOM      2  C   UNL     1       2.866   8.246  18.087  0.00  0.00    +0.000 A 
ATOM      3  C   UNL     1       2.074   7.939  19.194  0.00  0.00    +0.000 A 
ATOM      4  C   UNL     1       2.304   6.554  19.468  0.00  0.00    +0.000 A 
ATOM      5  N   UNL     1       1.839   5.723  20.441  0.00  0.00    +0.000 NA
ATOM      6  C   UNL     1       2.291   4.444  20.368  0.00  0.00    +0.000 A 
ATOM      7  C   UNL     1       3.139   3.988  19.370  0.00  0.00    +0.000 A 
ATOM      8  N   UNL     1       3.609   4.786  18.380  0.00  0.00    +0.000 NA
ATOM      9  C   UNL     1       3.165   6.060  18.492  0.00  0.00    +0.000 A 
ENDROOT
BRANCH   3  10
ATOM     10  C   UNL     1       1.159   8.928  19.908  0.00  0.00    +0.000 A 
ATOM     11  N   UNL     1       0.310   9.727  19.265  0.00  0.00    +0.000 NA
ATOM     12  C   UNL     1      -0.391  10.422  20.232  0.00  0.00    +0.000 A 
ATOM     13  C   UNL     1      -1.423  11.374  20.120  0.00  0.00    +0.000 A 
ATOM     14  C   UNL     1      -1.965  11.944  21.284  0.00  0.00    +0.000 A 
ATOM     15  C   UNL     1      -1.496  11.577  22.546  0.00  0.00    +0.000 A 
ATOM     16  C   UNL     1      -0.482  10.627  22.677  0.00  0.00    +0.000 A 
ATOM     17  C   UNL     1       0.045  10.070  21.500  0.00  0.00    +0.000 A 
ATOM     18  N   UNL     1       1.031   9.135  21.271  0.00  0.00    +0.000 N 
ATOM     19  C   UNL     1       1.798   8.534  22.330  0.00  0.00    +0.000 C 
ENDBRANCH   3  10
BRANCH   2  20
ATOM     20  N   UNL     1       3.086   9.425  17.463  0.00  0.00    +0.000 N 
ATOM     21  H   UNL     1       2.334  10.104  17.315  0.00  0.00    +0.000 HD
ATOM     22  H   UNL     1       3.998   9.870  17.596  0.00  0.00    +0.000 HD
ENDBRANCH   2  20
BRANCH   6  23
ATOM     23  C   UNL     1       1.838   3.593  21.427  0.00  0.00    +0.000 C 
ATOM     24  N   UNL     1       1.473   2.897  22.282  0.00  0.00    +0.000 NA
ENDBRANCH   6  23
BRANCH   7  25
ATOM     25  C   UNL     1       3.582   2.628  19.315  0.00  0.00    +0.000 C 
ATOM     26  N   UNL     1       3.940   1.520  19.300  0.00  0.00    +0.000 NA
ENDBRANCH   7  25
BRANCH   1  27
ATOM     27  C   UNL     1       4.388   6.922  16.524  0.00  0.00    +0.000 C 
BRANCH  27  28
ATOM     28  C   UNL     1       5.855   7.181  16.878  0.00  0.00    +0.000 C 
BRANCH  28  29
ATOM     29  C   UNL     1       6.690   5.902  17.019  0.00  0.00    +0.000 C 
BRANCH  29  31
ATOM     30  C   UNL     1       8.135   7.250  18.440  0.00  0.00    +0.000 C 
ATOM     31  N   UNL     1       7.587   5.914  18.190  0.00  0.00    +0.000 NA
ATOM     32  C   UNL     1       6.856   5.453  19.376  0.00  0.00    +0.000 C 
ENDBRANCH  29  31
ENDBRANCH  28  29
ENDBRANCH  27  28
ENDBRANCH   1  27
TORSDOF 8
ENDMDL
MODEL 9
REMARK VINA RESULT:      -6.0      4.438      8.003
REMARK  Name = 
REMARK  11 active torsions:
REMARK  status: ('A' for Active; 'I' for Inactive)
REMARK    1  A    between atoms: C_1  and  N_2
REMARK    2  A    between atoms: N_2  and  C_3
REMARK    3  A    between atoms: N_2  and  C_4
REMARK    4  A    between atoms: C_4  and  C_5
REMARK    5  A    between atoms: C_5  and  C_6
REMARK    6  A    between atoms: C_6  and  N_7
REMARK    7  A    between atoms: C_8  and  N_9
REMARK    8  A    between atoms: C_10  and  C_11
REMARK    9  A    between atoms: N_19  and  C_20
REMARK   10  A    between atoms: C_23  and  C_24
REMARK   11  A    between atoms: C_26  and  C_27
REMARK                            x       y       z     vdW  Elec       q    Type
REMARK                         _______ _______ _______ _____ _____    ______ ____
ROOT
ATOM      1  N   UNL     1      -0.905  11.518  20.324  0.00  0.00    +0.000 N 
ATOM      2  C   UNL     1       0.260  10.780  20.304  0.00  0.00    +0.000 A 
ATOM      3  C   UNL     1       0.256   9.970  19.168  0.00  0.00    +0.000 A 
ATOM      4  C   UNL     1      -0.933  10.308  18.449  0.00  0.00    +0.000 A 
ATOM      5  N   UNL     1      -1.442   9.874  17.263  0.00  0.00    +0.000 NA
ATOM      6  C   UNL     1      -2.624  10.439  16.904  0.00  0.00    +0.000 A 
ATOM      7  C   UNL     1      -3.296  11.367  17.685  0.00  0.00    +0.000 A 
ATOM      8  N   UNL     1      -2.825  11.809  18.877  0.00  0.00    +0.000 NA
ATOM      9  C   UNL     1      -1.633  11.251  19.197  0.00  0.00    +0.000 A 
ENDROOT
BRANCH   3  10
ATOM     10  C   UNL     1       1.331   8.941  18.831  0.00  0.00    +0.000 A 
ATOM     11  N   UNL     1       2.044   8.976  17.708  0.00  0.00    +0.000 NA
ATOM     12  C   UNL     1       2.956   7.941  17.784  0.00  0.00    +0.000 A 
ATOM     13  C   UNL     1       3.966   7.531  16.891  0.00  0.00    +0.000 A 
ATOM     14  C   UNL     1       4.761   6.419  17.213  0.00  0.00    +0.000 A 
ATOM     15  C   UNL     1       4.565   5.718  18.403  0.00  0.00    +0.000 A 
ATOM     16  C   UNL     1       3.576   6.116  19.305  0.00  0.00    +0.000 A 
ATOM     17  C   UNL     1       2.793   7.230  18.964  0.00  0.00    +0.000 A 
ATOM     18  N   UNL     1       1.755   7.872  19.604  0.00  0.00    +0.000 N 
ATOM     19  C   UNL     1       1.216   7.424  20.861  0.00  0.00    +0.000 C 
ENDBRANCH   3  10
BRANCH   2  20
ATOM     20  N   UNL     1       1.186  10.924  21.278  0.00  0.00    +0.000 N 
ATOM     21  H   UNL     1       1.439  10.149  21.898  0.00  0.00    +0.000 HD
ATOM     22  H   UNL     1       1.969  11.558  21.099  0.00  0.00    +0.000 HD
ENDBRANCH   2  20
BRANCH   6  23
ATOM     23  C   UNL     1      -3.122  10.016  15.631  0.00  0.00    +0.000 C 
ATOM     24  N   UNL     1      -3.528   9.680  14.595  0.00  0.00    +0.000 NA
ENDBRANCH   6  23
BRANCH   7  25
ATOM     25  C   UNL     1      -4.550  11.930  17.283  0.00  0.00    +0.000 C 
ATOM     26  N   UNL     1      -5.564  12.379  16.928  0.00  0.00    +0.000 NA
ENDBRANCH   7  25
BRANCH   1  27
ATOM     27  C   UNL     1      -1.347  12.480  21.322  0.00  0.00    +0.000 C 
BRANCH  27  28
ATOM     28  C   UNL     1      -1.794  11.826  22.632  0.00  0.00    +0.000 C 
BRANCH  28  29
ATOM     29  C   UNL     1      -2.905  12.594  23.358  0.00  0.00    +0.000 C 
BRANCH  29  31
ATOM     30  C   UNL     1      -4.098  14.716  23.346  0.00  0.00    +0.000 C 
ATOM     31  N   UNL     1      -2.795  14.058  23.214  0.00  0.00    +0.000 NA
ATOM     32  C   UNL     1      -1.874  14.586  24.228  0.00  0.00    +0.000 C 
ENDBRANCH  29  31
ENDBRANCH  28  29
ENDBRANCH  27  28
ENDBRANCH   1  27
TORSDOF 8
ENDMDL
