MODEL 1
REMARK VINA RESULT:      -8.1      0.000      0.000
REMARK  Name = 
REMARK  8 active torsions:
REMARK  status: ('A' for Active; 'I' for Inactive)
REMARK    1  A    between atoms: C_1  and  O_2
REMARK    2  A    between atoms: O_2  and  C_3
REMARK    3  A    between atoms: C_6  and  C_7
REMARK    4  A    between atoms: C_8  and  C_9
REMARK    5  A    between atoms: N_19  and  N_20
REMARK    6  A    between atoms: N_20  and  C_21
REMARK    7  A    between atoms: C_28  and  O_29
REMARK    8  A    between atoms: O_29  and  C_30
REMARK                            x       y       z     vdW  Elec       q    Type
REMARK                         _______ _______ _______ _____ _____    ______ ____
ROOT
ATOM      1  C   UNL     1       2.253   7.465  19.058  0.00  0.00    +0.000 A 
ATOM      2  C   UNL     1       1.881   8.757  18.786  0.00  0.00    +0.000 A 
ATOM      3  C   UNL     1       2.565   9.734  17.845  0.00  0.00    +0.000 C 
ATOM      4  C   UNL     1       0.812   9.448  19.537  0.00  0.00    +0.000 A 
ATOM      5  C   UNL     1       0.110  10.571  19.065  0.00  0.00    +0.000 A 
ATOM      6  C   UNL     1      -0.701  11.314  19.926  0.00  0.00    +0.000 A 
ATOM      7 BR   UNL     1      -1.612  12.836  19.271  0.00  0.00    +0.000 Br
ATOM      8  C   UNL     1      -0.825  10.951  21.263  0.00  0.00    +0.000 A 
ATOM      9  C   UNL     1      -0.225   9.774  21.704  0.00  0.00    +0.000 A 
ATOM     10  C   UNL     1       0.533   9.019  20.809  0.00  0.00    +0.000 A 
ATOM     11  O   UNL     1       0.987   7.767  21.208  0.00  0.00    +0.000 OA
ATOM     12  C   UNL     1       1.784   6.892  20.453  0.00  0.00    +0.000 A 
ATOM     13  N   UNL     1       2.012   5.834  21.169  0.00  0.00    +0.000 NA
ENDROOT
BRANCH   1  17
ATOM     14  C   UNL     1       4.898   4.964  16.517  0.00  0.00    +0.000 A 
ATOM     15  C   UNL     1       3.595   4.597  16.831  0.00  0.00    +0.000 A 
ATOM     16  C   UNL     1       2.726   5.497  17.473  0.00  0.00    +0.000 A 
ATOM     17  C   UNL     1       3.135   6.676  18.074  0.00  0.00    +0.000 A 
ATOM     18  C   UNL     1       4.395   7.074  17.594  0.00  0.00    +0.000 A 
ATOM     19  C   UNL     1       5.283   6.257  16.851  0.00  0.00    +0.000 A 
BRANCH  14  21
ATOM     20  C   UNL     1       5.802   4.225  14.453  0.00  0.00    +0.000 C 
ATOM     21  O   UNL     1       5.766   4.131  15.875  0.00  0.00    +0.000 OA
ENDBRANCH  14  21
BRANCH  19  22
ATOM     22  O   UNL     1       6.443   6.920  16.546  0.00  0.00    +0.000 OA
ATOM     23  C   UNL     1       7.422   7.103  17.555  0.00  0.00    +0.000 C 
ENDBRANCH  19  22
ENDBRANCH   1  17
BRANCH  13  24
ATOM     24  N   UNL     1       3.017   4.985  20.926  0.00  0.00    +0.000 N 
ATOM     25  H   UNL     1       3.784   4.962  21.595  0.00  0.00    +0.000 HD
BRANCH  24  26
ATOM     26  C   UNL     1       2.789   3.750  20.273  0.00  0.00    +0.000 A 
ATOM     27  C   UNL     1       1.521   3.338  19.832  0.00  0.00    +0.000 A 
ATOM     28  C   UNL     1       1.372   2.165  19.079  0.00  0.00    +0.000 A 
ATOM     29  C   UNL     1       2.488   1.405  18.725  0.00  0.00    +0.000 A 
ATOM     30  C   UNL     1       3.754   1.822  19.117  0.00  0.00    +0.000 A 
ATOM     31  C   UNL     1       3.899   2.993  19.871  0.00  0.00    +0.000 A 
ENDBRANCH  24  26
ENDBRANCH  13  24
TORSDOF 5
ENDMDL
MODEL 2
REMARK VINA RESULT:      -7.3      4.690     10.526
REMARK  Name = 
REMARK  8 active torsions:
REMARK  status: ('A' for Active; 'I' for Inactive)
REMARK    1  A    between atoms: C_1  and  O_2
REMARK    2  A    between atoms: O_2  and  C_3
REMARK    3  A    between atoms: C_6  and  C_7
REMARK    4  A    between atoms: C_8  and  C_9
REMARK    5  A    between atoms: N_19  and  N_20
REMARK    6  A    between atoms: N_20  and  C_21
REMARK    7  A    between atoms: C_28  and  O_29
REMARK    8  A    between atoms: O_29  and  C_30
REMARK                            x       y       z     vdW  Elec       q    Type
REMARK                         _______ _______ _______ _____ _____    ______ ____
ROOT
ATOM      1  C   UNL     1      -0.312  11.305  20.740  0.00  0.00    +0.000 A 
ATOM      2  C   UNL     1       0.345  10.193  21.202  0.00  0.00    +0.000 A 
ATOM      3  C   UNL     1       0.754   9.893  22.634  0.00  0.00    +0.000 C 
ATOM      4  C   UNL     1       0.913   9.175  20.294  0.00  0.00    +0.000 A 
ATOM      5  C   UNL     1       1.215   7.855  20.671  0.00  0.00    +0.000 A 
ATOM      6  C   UNL     1       1.975   7.034  19.836  0.00  0.00    +0.000 A 
ATOM      7 BR   UNL     1       2.388   5.271  20.381  0.00  0.00    +0.000 Br
ATOM      8  C   UNL     1       2.445   7.513  18.617  0.00  0.00    +0.000 A 
ATOM      9  C   UNL     1       2.050   8.778  18.189  0.00  0.00    +0.000 A 
ATOM     10  C   UNL     1       1.242   9.556  19.018  0.00  0.00    +0.000 A 
ATOM     11  O   UNL     1       0.717  10.742  18.517  0.00  0.00    +0.000 OA
ATOM     12  C   UNL     1      -0.084  11.658  19.218  0.00  0.00    +0.000 A 
ATOM     13  N   UNL     1      -0.362  12.644  18.421  0.00  0.00    +0.000 NA
ENDROOT
BRANCH   1  17
ATOM     14  C   UNL     1      -2.588  13.606  23.779  0.00  0.00    +0.000 A 
ATOM     15  C   UNL     1      -1.267  13.889  23.460  0.00  0.00    +0.000 A 
ATOM     16  C   UNL     1      -0.639  13.272  22.363  0.00  0.00    +0.000 A 
ATOM     17  C   UNL     1      -1.152  12.174  21.692  0.00  0.00    +0.000 A 
ATOM     18  C   UNL     1      -2.531  12.037  21.935  0.00  0.00    +0.000 A 
ATOM     19  C   UNL     1      -3.253  12.705  22.955  0.00  0.00    +0.000 A 
BRANCH  14  21
ATOM     20  C   UNL     1      -3.725  15.521  24.594  0.00  0.00    +0.000 C 
ATOM     21  O   UNL     1      -3.241  14.199  24.818  0.00  0.00    +0.000 OA
ENDBRANCH  14  21
BRANCH  19  22
ATOM     22  O   UNL     1      -4.576  12.348  22.952  0.00  0.00    +0.000 OA
ATOM     23  C   UNL     1      -5.483  13.060  22.125  0.00  0.00    +0.000 C 
ENDBRANCH  19  22
ENDBRANCH   1  17
BRANCH  13  24
ATOM     24  N   UNL     1      -0.771  13.842  18.850  0.00  0.00    +0.000 N 
ATOM     25  H   UNL     1      -1.445  13.863  19.614  0.00  0.00    +0.000 HD
BRANCH  24  26
ATOM     26  C   UNL     1       0.090  14.965  18.815  0.00  0.00    +0.000 A 
ATOM     27  C   UNL     1       1.490  14.859  18.832  0.00  0.00    +0.000 A 
ATOM     28  C   UNL     1       2.295  15.994  18.666  0.00  0.00    +0.000 A 
ATOM     29  C   UNL     1       1.717  17.246  18.448  0.00  0.00    +0.000 A 
ATOM     30  C   UNL     1       0.334  17.361  18.386  0.00  0.00    +0.000 A 
ATOM     31  C   UNL     1      -0.468  16.226  18.554  0.00  0.00    +0.000 A 
ENDBRANCH  24  26
ENDBRANCH  13  24
TORSDOF 5
ENDMDL
MODEL 3
REMARK VINA RESULT:      -7.2      4.605     10.173
REMARK  Name = 
REMARK  8 active torsions:
REMARK  status: ('A' for Active; 'I' for Inactive)
REMARK    1  A    between atoms: C_1  and  O_2
REMARK    2  A    between atoms: O_2  and  C_3
REMARK    3  A    between atoms: C_6  and  C_7
REMARK    4  A    between atoms: C_8  and  C_9
REMARK    5  A    between atoms: N_19  and  N_20
REMARK    6  A    between atoms: N_20  and  C_21
REMARK    7  A    between atoms: C_28  and  O_29
REMARK    8  A    between atoms: O_29  and  C_30
REMARK                            x       y       z     vdW  Elec       q    Type
REMARK                         _______ _______ _______ _____ _____    ______ ____
ROOT
ATOM      1  C   UNL     1      -0.031  11.084  20.790  0.00  0.00    +0.000 A 
ATOM      2  C   UNL     1       0.725   9.993  21.134  0.00  0.00    +0.000 A 
ATOM      3  C   UNL     1       1.361   9.701  22.483  0.00  0.00    +0.000 C 
ATOM      4  C   UNL     1       1.178   8.998  20.140  0.00  0.00    +0.000 A 
ATOM      5  C   UNL     1       1.577   7.687  20.455  0.00  0.00    +0.000 A 
ATOM      6  C   UNL     1       2.225   6.895  19.504  0.00  0.00    +0.000 A 
ATOM      7 BR   UNL     1       2.774   5.144  19.964  0.00  0.00    +0.000 Br
ATOM      8  C   UNL     1       2.484   7.394  18.232  0.00  0.00    +0.000 A 
ATOM      9  C   UNL     1       1.987   8.647  17.882  0.00  0.00    +0.000 A 
ATOM     10  C   UNL     1       1.292   9.394  18.833  0.00  0.00    +0.000 A 
ATOM     11  O   UNL     1       0.658  10.564  18.430  0.00  0.00    +0.000 OA
ATOM     12  C   UNL     1      -0.053  11.450  19.254  0.00  0.00    +0.000 A 
ATOM     13  N   UNL     1      -0.483  12.429  18.519  0.00  0.00    +0.000 NA
ENDROOT
BRANCH   1  17
ATOM     14  C   UNL     1      -2.326  13.614  23.625  0.00  0.00    +0.000 A 
ATOM     15  C   UNL     1      -2.724  12.330  23.275  0.00  0.00    +0.000 A 
ATOM     16  C   UNL     1      -1.879  11.489  22.531  0.00  0.00    +0.000 A 
ATOM     17  C   UNL     1      -0.742  11.921  21.868  0.00  0.00    +0.000 A 
ATOM     18  C   UNL     1      -0.301  13.155  22.379  0.00  0.00    +0.000 A 
ATOM     19  C   UNL     1      -1.057  14.009  23.220  0.00  0.00    +0.000 A 
BRANCH  14  21
ATOM     20  C   UNL     1      -4.246  15.006  23.711  0.00  0.00    +0.000 C 
ATOM     21  O   UNL     1      -3.105  14.454  24.366  0.00  0.00    +0.000 OA
ENDBRANCH  14  21
BRANCH  19  22
ATOM     22  O   UNL     1      -0.364  15.149  23.534  0.00  0.00    +0.000 OA
ATOM     23  C   UNL     1       0.291  15.868  22.501  0.00  0.00    +0.000 C 
ENDBRANCH  19  22
ENDBRANCH   1  17
BRANCH  13  24
ATOM     24  N   UNL     1      -0.860  13.611  19.016  0.00  0.00    +0.000 N 
ATOM     25  H   UNL     1      -1.488  13.605  19.819  0.00  0.00    +0.000 HD
BRANCH  24  26
ATOM     26  C   UNL     1       0.005  14.732  18.974  0.00  0.00    +0.000 A 
ATOM     27  C   UNL     1       1.401  14.620  18.879  0.00  0.00    +0.000 A 
ATOM     28  C   UNL     1       2.200  15.760  18.712  0.00  0.00    +0.000 A 
ATOM     29  C   UNL     1       1.616  17.023  18.603  0.00  0.00    +0.000 A 
ATOM     30  C   UNL     1       0.233  17.146  18.653  0.00  0.00    +0.000 A 
ATOM     31  C   UNL     1      -0.562  16.006  18.822  0.00  0.00    +0.000 A 
ENDBRANCH  24  26
ENDBRANCH  13  24
TORSDOF 5
ENDMDL
MODEL 4
REMARK VINA RESULT:      -7.1      4.548     10.327
REMARK  Name = 
REMARK  8 active torsions:
REMARK  status: ('A' for Active; 'I' for Inactive)
REMARK    1  A    between atoms: C_1  and  O_2
REMARK    2  A    between atoms: O_2  and  C_3
REMARK    3  A    between atoms: C_6  and  C_7
REMARK    4  A    between atoms: C_8  and  C_9
REMARK    5  A    between atoms: N_19  and  N_20
REMARK    6  A    between atoms: N_20  and  C_21
REMARK    7  A    between atoms: C_28  and  O_29
REMARK    8  A    between atoms: O_29  and  C_30
REMARK                            x       y       z     vdW  Elec       q    Type
REMARK                         _______ _______ _______ _____ _____    ______ ____
ROOT
ATOM      1  C   UNL     1      -0.326  11.252  20.603  0.00  0.00    +0.000 A 
ATOM      2  C   UNL     1       0.382  10.170  21.063  0.00  0.00    +0.000 A 
ATOM      3  C   UNL     1       0.831   9.902  22.489  0.00  0.00    +0.000 C 
ATOM      4  C   UNL     1       0.968   9.163  20.154  0.00  0.00    +0.000 A 
ATOM      5  C   UNL     1       1.327   7.860  20.540  0.00  0.00    +0.000 A 
ATOM      6  C   UNL     1       2.099   7.057  19.697  0.00  0.00    +0.000 A 
ATOM      7 BR   UNL     1       2.588   5.317  20.253  0.00  0.00    +0.000 Br
ATOM      8  C   UNL     1       2.526   7.539  18.464  0.00  0.00    +0.000 A 
ATOM      9  C   UNL     1       2.075   8.784  18.031  0.00  0.00    +0.000 A 
ATOM     10  C   UNL     1       1.256   9.541  18.867  0.00  0.00    +0.000 A 
ATOM     11  O   UNL     1       0.677  10.701  18.365  0.00  0.00    +0.000 OA
ATOM     12  C   UNL     1      -0.142  11.595  19.072  0.00  0.00    +0.000 A 
ATOM     13  N   UNL     1      -0.473  12.560  18.271  0.00  0.00    +0.000 NA
ENDROOT
BRANCH   1  17
ATOM     14  C   UNL     1      -2.667  13.465  23.657  0.00  0.00    +0.000 A 
ATOM     15  C   UNL     1      -1.314  13.693  23.439  0.00  0.00    +0.000 A 
ATOM     16  C   UNL     1      -0.651  13.118  22.341  0.00  0.00    +0.000 A 
ATOM     17  C   UNL     1      -1.178  12.100  21.563  0.00  0.00    +0.000 A 
ATOM     18  C   UNL     1      -2.575  12.026  21.711  0.00  0.00    +0.000 A 
ATOM     19  C   UNL     1      -3.324  12.663  22.732  0.00  0.00    +0.000 A 
BRANCH  14  21
ATOM     20  C   UNL     1      -3.803  15.363  24.514  0.00  0.00    +0.000 C 
ATOM     21  O   UNL     1      -3.352  14.022  24.696  0.00  0.00    +0.000 OA
ENDBRANCH  14  21
BRANCH  19  22
ATOM     22  O   UNL     1      -4.661  12.384  22.623  0.00  0.00    +0.000 OA
ATOM     23  C   UNL     1      -5.333  12.674  21.408  0.00  0.00    +0.000 C 
ENDBRANCH  19  22
ENDBRANCH   1  17
BRANCH  13  24
ATOM     24  N   UNL     1      -0.918  13.748  18.695  0.00  0.00    +0.000 N 
ATOM     25  H   UNL     1      -1.795  13.763  19.213  0.00  0.00    +0.000 HD
BRANCH  24  26
ATOM     26  C   UNL     1      -0.019  14.778  19.061  0.00  0.00    +0.000 A 
ATOM     27  C   UNL     1      -0.383  15.861  19.876  0.00  0.00    +0.000 A 
ATOM     28  C   UNL     1       0.578  16.784  20.312  0.00  0.00    +0.000 A 
ATOM     29  C   UNL     1       1.921  16.621  19.969  0.00  0.00    +0.000 A 
ATOM     30  C   UNL     1       2.305  15.530  19.198  0.00  0.00    +0.000 A 
ATOM     31  C   UNL     1       1.342  14.612  18.763  0.00  0.00    +0.000 A 
ENDBRANCH  24  26
ENDBRANCH  13  24
TORSDOF 5
ENDMDL
MODEL 5
REMARK VINA RESULT:      -7.1      2.310      4.462
REMARK  Name = 
REMARK  8 active torsions:
REMARK  status: ('A' for Active; 'I' for Inactive)
REMARK    1  A    between atoms: C_1  and  O_2
REMARK    2  A    between atoms: O_2  and  C_3
REMARK    3  A    between atoms: C_6  and  C_7
REMARK    4  A    between atoms: C_8  and  C_9
REMARK    5  A    between atoms: N_19  and  N_20
REMARK    6  A    between atoms: N_20  and  C_21
REMARK    7  A    between atoms: C_28  and  O_29
REMARK    8  A    between atoms: O_29  and  C_30
REMARK                            x       y       z     vdW  Elec       q    Type
REMARK                         _______ _______ _______ _____ _____    ______ ____
ROOT
ATOM      1  C   UNL     1       2.177   7.554  19.349  0.00  0.00    +0.000 A 
ATOM      2  C   UNL     1       1.291   8.190  20.181  0.00  0.00    +0.000 A 
ATOM      3  C   UNL     1       0.293   7.546  21.128  0.00  0.00    +0.000 C 
ATOM      4  C   UNL     1       1.071   9.650  20.136  0.00  0.00    +0.000 A 
ATOM      5  C   UNL     1       0.522  10.403  21.190  0.00  0.00    +0.000 A 
ATOM      6  C   UNL     1       0.115  11.722  20.982  0.00  0.00    +0.000 A 
ATOM      7 BR   UNL     1      -0.643  12.702  22.411  0.00  0.00    +0.000 Br
ATOM      8  C   UNL     1       0.246  12.310  19.728  0.00  0.00    +0.000 A 
ATOM      9  C   UNL     1       0.895  11.607  18.716  0.00  0.00    +0.000 A 
ATOM     10  C   UNL     1       1.345  10.311  18.966  0.00  0.00    +0.000 A 
ATOM     11  O   UNL     1       2.135   9.682  18.011  0.00  0.00    +0.000 OA
ATOM     12  C   UNL     1       2.644   8.375  18.083  0.00  0.00    +0.000 A 
ATOM     13  N   UNL     1       3.317   8.144  16.998  0.00  0.00    +0.000 NA
ENDROOT
BRANCH   1  17
ATOM     14  C   UNL     1       3.516   3.342  19.762  0.00  0.00    +0.000 A 
ATOM     15  C   UNL     1       4.401   4.412  19.756  0.00  0.00    +0.000 A 
ATOM     16  C   UNL     1       3.934   5.737  19.818  0.00  0.00    +0.000 A 
ATOM     17  C   UNL     1       2.613   6.104  19.623  0.00  0.00    +0.000 A 
ATOM     18  C   UNL     1       1.755   5.004  19.798  0.00  0.00    +0.000 A 
ATOM     19  C   UNL     1       2.163   3.648  19.850  0.00  0.00    +0.000 A 
BRANCH  14  21
ATOM     20  C   UNL     1       3.880   1.395  18.457  0.00  0.00    +0.000 C 
ATOM     21  O   UNL     1       3.927   2.042  19.727  0.00  0.00    +0.000 OA
ENDBRANCH  14  21
BRANCH  19  22
ATOM     22  O   UNL     1       1.093   2.805  20.008  0.00  0.00    +0.000 OA
ATOM     23  C   UNL     1       0.465   2.262  18.859  0.00  0.00    +0.000 C 
ENDBRANCH  19  22
ENDBRANCH   1  17
BRANCH  13  24
ATOM     24  N   UNL     1       3.613   6.914  16.565  0.00  0.00    +0.000 N 
ATOM     25  H   UNL     1       3.085   6.556  15.770  0.00  0.00    +0.000 HD
BRANCH  24  26
ATOM     26  C   UNL     1       4.931   6.404  16.654  0.00  0.00    +0.000 A 
ATOM     27  C   UNL     1       5.988   7.110  17.250  0.00  0.00    +0.000 A 
ATOM     28  C   UNL     1       7.241   6.508  17.426  0.00  0.00    +0.000 A 
ATOM     29  C   UNL     1       7.449   5.183  17.042  0.00  0.00    +0.000 A 
ATOM     30  C   UNL     1       6.401   4.456  16.489  0.00  0.00    +0.000 A 
ATOM     31  C   UNL     1       5.151   5.061  16.313  0.00  0.00    +0.000 A 
ENDBRANCH  24  26
ENDBRANCH  13  24
TORSDOF 5
ENDMDL
MODEL 6
REMARK VINA RESULT:      -6.9      6.884     11.884
REMARK  Name = 
REMARK  8 active torsions:
REMARK  status: ('A' for Active; 'I' for Inactive)
REMARK    1  A    between atoms: C_1  and  O_2
REMARK    2  A    between atoms: O_2  and  C_3
REMARK    3  A    between atoms: C_6  and  C_7
REMARK    4  A    between atoms: C_8  and  C_9
REMARK    5  A    between atoms: N_19  and  N_20
REMARK    6  A    between atoms: N_20  and  C_21
REMARK    7  A    between atoms: C_28  and  O_29
REMARK    8  A    between atoms: O_29  and  C_30
REMARK                            x       y       z     vdW  Elec       q    Type
REMARK                         _______ _______ _______ _____ _____    ______ ____
ROOT
ATOM      1  C   UNL     1      -3.428  12.709  20.545  0.00  0.00    +0.000 A 
ATOM      2  C   UNL     1      -3.980  12.174  19.409  0.00  0.00    +0.000 A 
ATOM      3  C   UNL     1      -5.456  12.016  19.089  0.00  0.00    +0.000 C 
ATOM      4  C   UNL     1      -3.168  11.501  18.375  0.00  0.00    +0.000 A 
ATOM      5  C   UNL     1      -3.577  11.310  17.043  0.00  0.00    +0.000 A 
ATOM      6  C   UNL     1      -2.869  10.451  16.199  0.00  0.00    +0.000 A 
ATOM      7 BR   UNL     1      -3.459  10.194  14.421  0.00  0.00    +0.000 Br
ATOM      8  C   UNL     1      -1.748   9.773  16.666  0.00  0.00    +0.000 A 
ATOM      9  C   UNL     1      -1.273  10.050  17.945  0.00  0.00    +0.000 A 
ATOM     10  C   UNL     1      -1.966  10.955  18.749  0.00  0.00    +0.000 A 
ATOM     11  O   UNL     1      -1.397  11.351  19.954  0.00  0.00    +0.000 OA
ATOM     12  C   UNL     1      -1.966  12.223  20.895  0.00  0.00    +0.000 A 
ATOM     13  N   UNL     1      -1.144  12.334  21.892  0.00  0.00    +0.000 NA
ENDROOT
BRANCH   1  17
ATOM     14  C   UNL     1      -5.444  15.510  23.337  0.00  0.00    +0.000 A 
ATOM     15  C   UNL     1      -4.662  15.944  22.275  0.00  0.00    +0.000 A 
ATOM     16  C   UNL     1      -4.199  15.042  21.301  0.00  0.00    +0.000 A 
ATOM     17  C   UNL     1      -4.237  13.664  21.439  0.00  0.00    +0.000 A 
ATOM     18  C   UNL     1      -5.166  13.284  22.425  0.00  0.00    +0.000 A 
ATOM     19  C   UNL     1      -5.754  14.156  23.374  0.00  0.00    +0.000 A 
BRANCH  14  21
ATOM     20  C   UNL     1      -5.362  17.661  24.333  0.00  0.00    +0.000 C 
ATOM     21  O   UNL     1      -5.932  16.355  24.290  0.00  0.00    +0.000 OA
ENDBRANCH  14  21
BRANCH  19  22
ATOM     22  O   UNL     1      -6.603  13.485  24.216  0.00  0.00    +0.000 OA
ATOM     23  C   UNL     1      -7.436  12.464  23.690  0.00  0.00    +0.000 C 
ENDBRANCH  19  22
ENDBRANCH   1  17
BRANCH  13  24
ATOM     24  N   UNL     1      -1.511  12.767  23.103  0.00  0.00    +0.000 N 
ATOM     25  H   UNL     1      -1.424  12.116  23.882  0.00  0.00    +0.000 HD
BRANCH  24  26
ATOM     26  C   UNL     1      -1.355  14.125  23.472  0.00  0.00    +0.000 A 
ATOM     27  C   UNL     1      -0.691  15.067  22.670  0.00  0.00    +0.000 A 
ATOM     28  C   UNL     1      -0.677  16.423  23.022  0.00  0.00    +0.000 A 
ATOM     29  C   UNL     1      -1.352  16.865  24.161  0.00  0.00    +0.000 A 
ATOM     30  C   UNL     1      -2.049  15.952  24.942  0.00  0.00    +0.000 A 
ATOM     31  C   UNL     1      -2.060  14.598  24.589  0.00  0.00    +0.000 A 
ENDBRANCH  24  26
ENDBRANCH  13  24
TORSDOF 5
ENDMDL
MODEL 7
REMARK VINA RESULT:      -6.9      6.832      9.759
REMARK  Name = 
REMARK  8 active torsions:
REMARK  status: ('A' for Active; 'I' for Inactive)
REMARK    1  A    between atoms: C_1  and  O_2
REMARK    2  A    between atoms: O_2  and  C_3
REMARK    3  A    between atoms: C_6  and  C_7
REMARK    4  A    between atoms: C_8  and  C_9
REMARK    5  A    between atoms: N_19  and  N_20
REMARK    6  A    between atoms: N_20  and  C_21
REMARK    7  A    between atoms: C_28  and  O_29
REMARK    8  A    between atoms: O_29  and  C_30
REMARK                            x       y       z     vdW  Elec       q    Type
REMARK                         _______ _______ _______ _____ _____    ______ ____
ROOT
ATOM      1  C   UNL     1      -0.003  13.281  20.313  0.00  0.00    +0.000 A 
ATOM      2  C   UNL     1       0.721  14.445  20.253  0.00  0.00    +0.000 A 
ATOM      3  C   UNL     1       0.240  15.847  20.584  0.00  0.00    +0.000 C 
ATOM      4  C   UNL     1       2.078  14.504  19.670  0.00  0.00    +0.000 A 
ATOM      5  C   UNL     1       3.014  15.518  19.939  0.00  0.00    +0.000 A 
ATOM      6  C   UNL     1       4.170  15.641  19.165  0.00  0.00    +0.000 A 
ATOM      7 BR   UNL     1       5.398  17.030  19.535  0.00  0.00    +0.000 Br
ATOM      8  C   UNL     1       4.409  14.761  18.115  0.00  0.00    +0.000 A 
ATOM      9  C   UNL     1       3.544  13.687  17.920  0.00  0.00    +0.000 A 
ATOM     10  C   UNL     1       2.427  13.554  18.745  0.00  0.00    +0.000 A 
ATOM     11  O   UNL     1       1.665  12.395  18.654  0.00  0.00    +0.000 OA
ATOM     12  C   UNL     1       0.497  12.109  19.380  0.00  0.00    +0.000 A 
ATOM     13  N   UNL     1       0.066  10.943  19.008  0.00  0.00    +0.000 NA
ENDROOT
BRANCH   1  17
ATOM     14  C   UNL     1      -3.676  12.634  22.721  0.00  0.00    +0.000 A 
ATOM     15  C   UNL     1      -2.419  12.222  23.146  0.00  0.00    +0.000 A 
ATOM     16  C   UNL     1      -1.258  12.611  22.454  0.00  0.00    +0.000 A 
ATOM     17  C   UNL     1      -1.262  13.183  21.192  0.00  0.00    +0.000 A 
ATOM     18  C   UNL     1      -2.525  13.720  20.888  0.00  0.00    +0.000 A 
ATOM     19  C   UNL     1      -3.720  13.456  21.602  0.00  0.00    +0.000 A 
BRANCH  14  21
ATOM     20  C   UNL     1      -4.766  12.297  24.801  0.00  0.00    +0.000 C 
ATOM     21  O   UNL     1      -4.824  12.298  23.376  0.00  0.00    +0.000 OA
ENDBRANCH  14  21
BRANCH  19  22
ATOM     22  O   UNL     1      -4.792  14.110  21.050  0.00  0.00    +0.000 OA
ATOM     23  C   UNL     1      -5.645  13.411  20.158  0.00  0.00    +0.000 C 
ENDBRANCH  19  22
ENDBRANCH   1  17
BRANCH  13  24
ATOM     24  N   UNL     1      -1.190  10.528  19.203  0.00  0.00    +0.000 N 
ATOM     25  H   UNL     1      -1.590  10.661  20.131  0.00  0.00    +0.000 HD
BRANCH  24  26
ATOM     26  C   UNL     1      -2.144  10.566  18.157  0.00  0.00    +0.000 A 
ATOM     27  C   UNL     1      -3.267  11.408  18.173  0.00  0.00    +0.000 A 
ATOM     28  C   UNL     1      -4.109  11.499  17.056  0.00  0.00    +0.000 A 
ATOM     29  C   UNL     1      -3.825  10.777  15.896  0.00  0.00    +0.000 A 
ATOM     30  C   UNL     1      -2.694   9.972  15.849  0.00  0.00    +0.000 A 
ATOM     31  C   UNL     1      -1.856   9.882  16.966  0.00  0.00    +0.000 A 
ENDBRANCH  24  26
ENDBRANCH  13  24
TORSDOF 5
ENDMDL
MODEL 8
REMARK VINA RESULT:      -6.8      4.080      9.078
REMARK  Name = 
REMARK  8 active torsions:
REMARK  status: ('A' for Active; 'I' for Inactive)
REMARK    1  A    between atoms: C_1  and  O_2
REMARK    2  A    between atoms: O_2  and  C_3
REMARK    3  A    between atoms: C_6  and  C_7
REMARK    4  A    between atoms: C_8  and  C_9
REMARK    5  A    between atoms: N_19  and  N_20
REMARK    6  A    between atoms: N_20  and  C_21
REMARK    7  A    between atoms: C_28  and  O_29
REMARK    8  A    between atoms: O_29  and  C_30
REMARK                            x       y       z     vdW  Elec       q    Type
REMARK                         _______ _______ _______ _____ _____    ______ ____
ROOT
ATOM      1  C   UNL     1       1.165   9.771  19.302  0.00  0.00    +0.000 A 
ATOM      2  C   UNL     1       1.412   8.494  19.740  0.00  0.00    +0.000 A 
ATOM      3  C   UNL     1       1.154   7.930  21.127  0.00  0.00    +0.000 C 
ATOM      4  C   UNL     1       2.150   7.507  18.926  0.00  0.00    +0.000 A 
ATOM      5  C   UNL     1       2.082   6.115  19.112  0.00  0.00    +0.000 A 
ATOM      6  C   UNL     1       2.992   5.268  18.476  0.00  0.00    +0.000 A 
ATOM      7 BR   UNL     1       2.892   3.402  18.765  0.00  0.00    +0.000 Br
ATOM      8  C   UNL     1       3.981   5.792  17.649  0.00  0.00    +0.000 A 
ATOM      9  C   UNL     1       3.977   7.157  17.372  0.00  0.00    +0.000 A 
ATOM     10  C   UNL     1       3.021   7.973  17.975  0.00  0.00    +0.000 A 
ATOM     11  O   UNL     1       2.919   9.298  17.566  0.00  0.00    +0.000 OA
ATOM     12  C   UNL     1       2.041  10.263  18.084  0.00  0.00    +0.000 A 
ATOM     13  N   UNL     1       2.255  11.380  17.460  0.00  0.00    +0.000 NA
ENDROOT
BRANCH   1  17
ATOM     14  C   UNL     1      -1.936  12.029  21.536  0.00  0.00    +0.000 A 
ATOM     15  C   UNL     1      -0.742  11.621  22.117  0.00  0.00    +0.000 A 
ATOM     16  C   UNL     1       0.294  11.081  21.336  0.00  0.00    +0.000 A 
ATOM     17  C   UNL     1       0.141  10.665  20.023  0.00  0.00    +0.000 A 
ATOM     18  C   UNL     1      -1.004  11.241  19.444  0.00  0.00    +0.000 A 
ATOM     19  C   UNL     1      -2.041  11.893  20.157  0.00  0.00    +0.000 A 
BRANCH  14  21
ATOM     20  C   UNL     1      -3.062  12.181  23.618  0.00  0.00    +0.000 C 
ATOM     21  O   UNL     1      -2.957  12.580  22.253  0.00  0.00    +0.000 OA
ENDBRANCH  14  21
BRANCH  19  22
ATOM     22  O   UNL     1      -3.032  12.330  19.317  0.00  0.00    +0.000 OA
ATOM     23  C   UNL     1      -3.492  11.472  18.285  0.00  0.00    +0.000 C 
ENDBRANCH  19  22
ENDBRANCH   1  17
BRANCH  13  24
ATOM     24  N   UNL     1       1.880  12.572  17.938  0.00  0.00    +0.000 N 
ATOM     25  H   UNL     1       0.901  12.689  18.193  0.00  0.00    +0.000 HD
BRANCH  24  26
ATOM     26  C   UNL     1       2.770  13.367  18.700  0.00  0.00    +0.000 A 
ATOM     27  C   UNL     1       3.716  14.229  18.122  0.00  0.00    +0.000 A 
ATOM     28  C   UNL     1       4.483  15.088  18.920  0.00  0.00    +0.000 A 
ATOM     29  C   UNL     1       4.294  15.125  20.303  0.00  0.00    +0.000 A 
ATOM     30  C   UNL     1       3.332  14.310  20.886  0.00  0.00    +0.000 A 
ATOM     31  C   UNL     1       2.569  13.452  20.086  0.00  0.00    +0.000 A 
ENDBRANCH  24  26
ENDBRANCH  13  24
TORSDOF 5
ENDMDL
MODEL 9
REMARK VINA RESULT:      -6.8      4.446     10.210
REMARK  Name = 
REMARK  8 active torsions:
REMARK  status: ('A' for Active; 'I' for Inactive)
REMARK    1  A    between atoms: C_1  and  O_2
REMARK    2  A    between atoms: O_2  and  C_3
REMARK    3  A    between atoms: C_6  and  C_7
REMARK    4  A    between atoms: C_8  and  C_9
REMARK    5  A    between atoms: N_19  and  N_20
REMARK    6  A    between atoms: N_20  and  C_21
REMARK    7  A    between atoms: C_28  and  O_29
REMARK    8  A    between atoms: O_29  and  C_30
REMARK                            x       y       z     vdW  Elec       q    Type
REMARK                         _______ _______ _______ _____ _____    ______ ____
ROOT
ATOM      1  C   UNL     1      -0.286  11.112  20.330  0.00  0.00    +0.000 A 
ATOM      2  C   UNL     1       0.431  10.040  20.797  0.00  0.00    +0.000 A 
ATOM      3  C   UNL     1       0.811   9.743  22.237  0.00  0.00    +0.000 C 
ATOM      4  C   UNL     1       1.099   9.079  19.894  0.00  0.00    +0.000 A 
ATOM      5  C   UNL     1       1.478   7.777  20.261  0.00  0.00    +0.000 A 
ATOM      6  C   UNL     1       2.321   7.025  19.440  0.00  0.00    +0.000 A 
ATOM      7 BR   UNL     1       2.836   5.285  19.973  0.00  0.00    +0.000 Br
ATOM      8  C   UNL     1       2.798   7.557  18.247  0.00  0.00    +0.000 A 
ATOM      9  C   UNL     1       2.330   8.799  17.825  0.00  0.00    +0.000 A 
ATOM     10  C   UNL     1       1.443   9.505  18.636  0.00  0.00    +0.000 A 
ATOM     11  O   UNL     1       0.854  10.660  18.136  0.00  0.00    +0.000 OA
ATOM     12  C   UNL     1      -0.031  11.507  18.822  0.00  0.00    +0.000 A 
ATOM     13  N   UNL     1      -0.349  12.485  18.031  0.00  0.00    +0.000 NA
ENDROOT
BRANCH   1  17
ATOM     14  C   UNL     1      -2.973  13.087  23.260  0.00  0.00    +0.000 A 
ATOM     15  C   UNL     1      -1.593  13.048  23.416  0.00  0.00    +0.000 A 
ATOM     16  C   UNL     1      -0.761  12.588  22.381  0.00  0.00    +0.000 A 
ATOM     17  C   UNL     1      -1.216  11.904  21.265  0.00  0.00    +0.000 A 
ATOM     18  C   UNL     1      -2.594  12.114  21.075  0.00  0.00    +0.000 A 
ATOM     19  C   UNL     1      -3.477  12.669  22.034  0.00  0.00    +0.000 A 
BRANCH  14  21
ATOM     20  C   UNL     1      -4.494  12.562  25.002  0.00  0.00    +0.000 C 
ATOM     21  O   UNL     1      -3.814  13.548  24.230  0.00  0.00    +0.000 OA
ENDBRANCH  14  21
BRANCH  19  22
ATOM     22  O   UNL     1      -4.762  12.726  21.562  0.00  0.00    +0.000 OA
ATOM     23  C   UNL     1      -5.000  12.538  20.176  0.00  0.00    +0.000 C 
ENDBRANCH  19  22
ENDBRANCH   1  17
BRANCH  13  24
ATOM     24  N   UNL     1      -0.855  13.645  18.464  0.00  0.00    +0.000 N 
ATOM     25  H   UNL     1      -1.827  13.649  18.769  0.00  0.00    +0.000 HD
BRANCH  24  26
ATOM     26  C   UNL     1      -0.043  14.595  19.129  0.00  0.00    +0.000 A 
ATOM     27  C   UNL     1       1.318  14.779  18.836  0.00  0.00    +0.000 A 
ATOM     28  C   UNL     1       2.044  15.819  19.433  0.00  0.00    +0.000 A 
ATOM     29  C   UNL     1       1.415  16.711  20.303  0.00  0.00    +0.000 A 
ATOM     30  C   UNL     1       0.059  16.569  20.569  0.00  0.00    +0.000 A 
ATOM     31  C   UNL     1      -0.662  15.528  19.974  0.00  0.00    +0.000 A 
ENDBRANCH  24  26
ENDBRANCH  13  24
TORSDOF 5
ENDMDL
