MODEL 1
REMARK VINA RESULT:      -7.7      0.000      0.000
REMARK  Name = 
REMARK  10 active torsions:
REMARK  status: ('A' for Active; 'I' for Inactive)
REMARK    1  A    between atoms: C_1  and  C_2
REMARK    2  A    between atoms: C_2  and  C_3
REMARK    3  A    between atoms: C_3  and  N_4
REMARK    4  A    between atoms: N_4  and  C_5
REMARK    5  A    between atoms: C_5  and  C_6
REMARK    6  A    between atoms: C_6  and  C_7
REMARK    7  A    between atoms: C_7  and  C_8
REMARK    8  A    between atoms: C_8  and  N_9
REMARK    9  A    between atoms: N_12  and  C_13
REMARK   10  A    between atoms: C_25  and  C_26
REMARK                            x       y       z     vdW  Elec       q    Type
REMARK                         _______ _______ _______ _____ _____    ______ ____
ROOT
ATOM      1  C   UNL     1       3.472   7.425  18.019  0.00  0.00    +0.000 C 
ENDROOT
BRANCH   1   2
ATOM      2  N   UNL     1       3.621   6.012  18.364  0.00  0.00    +0.000 N 
ATOM      3  C   UNL     1       4.253   5.162  17.514  0.00  0.00    +0.000 A 
ATOM      4  N   UNL     1       4.460   3.848  17.687  0.00  0.00    +0.000 NA
ATOM      5  O   UNL     1       5.107   3.456  16.522  0.00  0.00    +0.000 OA
ATOM      6  C   UNL     1       5.236   4.575  15.752  0.00  0.00    +0.000 A 
ATOM      7  N   UNL     1       4.744   5.646  16.327  0.00  0.00    +0.000 NA
BRANCH   6   8
ATOM      8  C   UNL     1       5.890   4.424  14.459  0.00  0.00    +0.000 A 
ATOM      9  C   UNL     1       5.374   3.572  13.471  0.00  0.00    +0.000 A 
ATOM     10  C   UNL     1       6.039   3.405  12.254  0.00  0.00    +0.000 A 
ATOM     11  C   UNL     1       7.224   4.093  12.007  0.00  0.00    +0.000 A 
ATOM     12  C   UNL     1       7.741   4.957  12.970  0.00  0.00    +0.000 A 
ATOM     13  C   UNL     1       7.077   5.123  14.189  0.00  0.00    +0.000 A 
ENDBRANCH   6   8
BRANCH   2  14
ATOM     14  C   UNL     1       3.200   5.551  19.685  0.00  0.00    +0.000 C 
BRANCH  14  16
ATOM     15  C   UNL     1       1.656   3.855  20.834  0.00  0.00    +0.000 C 
ATOM     16  C   UNL     1       1.854   4.814  19.670  0.00  0.00    +0.000 C 
ENDBRANCH  14  16
ENDBRANCH   2  14
ENDBRANCH   1   2
BRANCH   1  17
ATOM     17  C   UNL     1       2.202   8.038  18.637  0.00  0.00    +0.000 C 
BRANCH  17  18
ATOM     18  C   UNL     1       1.658   9.240  17.855  0.00  0.00    +0.000 C 
BRANCH  18  19
ATOM     19  C   UNL     1       1.484  10.504  18.719  0.00  0.00    +0.000 C 
BRANCH  19  20
ATOM     20  N   UNL     1       0.889  10.250  20.045  0.00  0.00    +0.000 NA
ATOM     21  C   UNL     1       0.995  11.403  20.974  0.00  0.00    +0.000 C 
ATOM     22  C   UNL     1       0.201  12.644  20.520  0.00  0.00    +0.000 C 
ATOM     23  N   UNL     1      -1.223  12.327  20.334  0.00  0.00    +0.000 N 
ATOM     24  C   UNL     1      -1.505  11.107  19.549  0.00  0.00    +0.000 C 
ATOM     25  C   UNL     1      -0.559   9.927  19.919  0.00  0.00    +0.000 C 
BRANCH  23  26
ATOM     26  C   UNL     1      -2.159  12.740  21.281  0.00  0.00    +0.000 A 
ATOM     27  C   UNL     1      -2.939  13.883  21.025  0.00  0.00    +0.000 A 
ATOM     28  C   UNL     1      -3.841  14.390  21.969  0.00  0.00    +0.000 A 
ATOM     29  C   UNL     1      -4.002  13.756  23.197  0.00  0.00    +0.000 A 
ATOM     30  C   UNL     1      -3.254  12.618  23.477  0.00  0.00    +0.000 A 
ATOM     31  C   UNL     1      -2.348  12.129  22.536  0.00  0.00    +0.000 A 
ATOM     32  F   UNL     1      -1.672  11.015  22.867  0.00  0.00    +0.000 F 
ENDBRANCH  23  26
ENDBRANCH  19  20
ENDBRANCH  18  19
ENDBRANCH  17  18
ENDBRANCH   1  17
TORSDOF 9
ENDMDL
MODEL 2
REMARK VINA RESULT:      -7.6      1.146      1.746
REMARK  Name = 
REMARK  10 active torsions:
REMARK  status: ('A' for Active; 'I' for Inactive)
REMARK    1  A    between atoms: C_1  and  C_2
REMARK    2  A    between atoms: C_2  and  C_3
REMARK    3  A    between atoms: C_3  and  N_4
REMARK    4  A    between atoms: N_4  and  C_5
REMARK    5  A    between atoms: C_5  and  C_6
REMARK    6  A    between atoms: C_6  and  C_7
REMARK    7  A    between atoms: C_7  and  C_8
REMARK    8  A    between atoms: C_8  and  N_9
REMARK    9  A    between atoms: N_12  and  C_13
REMARK   10  A    between atoms: C_25  and  C_26
REMARK                            x       y       z     vdW  Elec       q    Type
REMARK                         _______ _______ _______ _____ _____    ______ ____
ROOT
ATOM      1  C   UNL     1       3.447   7.529  17.688  0.00  0.00    +0.000 C 
ENDROOT
BRANCH   1   2
ATOM      2  N   UNL     1       3.654   6.142  18.102  0.00  0.00    +0.000 N 
ATOM      3  C   UNL     1       4.349   5.287  17.309  0.00  0.00    +0.000 A 
ATOM      4  N   UNL     1       4.615   3.994  17.548  0.00  0.00    +0.000 NA
ATOM      5  O   UNL     1       5.312   3.582  16.419  0.00  0.00    +0.000 OA
ATOM      6  C   UNL     1       5.407   4.670  15.601  0.00  0.00    +0.000 A 
ATOM      7  N   UNL     1       4.848   5.741  16.113  0.00  0.00    +0.000 NA
BRANCH   6   8
ATOM      8  C   UNL     1       6.103   4.493  14.333  0.00  0.00    +0.000 A 
ATOM      9  C   UNL     1       7.257   5.228  14.021  0.00  0.00    +0.000 A 
ATOM     10  C   UNL     1       7.885   5.077  12.783  0.00  0.00    +0.000 A 
ATOM     11  C   UNL     1       7.373   4.186  11.844  0.00  0.00    +0.000 A 
ATOM     12  C   UNL     1       6.239   3.435  12.145  0.00  0.00    +0.000 A 
ATOM     13  C   UNL     1       5.608   3.586  13.383  0.00  0.00    +0.000 A 
ENDBRANCH   6   8
BRANCH   2  14
ATOM     14  C   UNL     1       3.220   5.721  19.432  0.00  0.00    +0.000 C 
BRANCH  14  16
ATOM     15  C   UNL     1       1.172   4.689  20.582  0.00  0.00    +0.000 C 
ATOM     16  C   UNL     1       2.130   4.641  19.401  0.00  0.00    +0.000 C 
ENDBRANCH  14  16
ENDBRANCH   2  14
ENDBRANCH   1   2
BRANCH   1  17
ATOM     17  C   UNL     1       2.208   8.150  18.358  0.00  0.00    +0.000 C 
BRANCH  17  18
ATOM     18  C   UNL     1       1.951   9.605  17.943  0.00  0.00    +0.000 C 
BRANCH  18  19
ATOM     19  C   UNL     1       0.605  10.158  18.451  0.00  0.00    +0.000 C 
BRANCH  19  20
ATOM     20  N   UNL     1       0.681  11.530  18.988  0.00  0.00    +0.000 NA
ATOM     21  C   UNL     1      -0.615  12.251  18.960  0.00  0.00    +0.000 C 
ATOM     22  C   UNL     1      -1.694  11.631  19.870  0.00  0.00    +0.000 C 
ATOM     23  N   UNL     1      -1.234  11.555  21.266  0.00  0.00    +0.000 N 
ATOM     24  C   UNL     1       0.119  10.993  21.460  0.00  0.00    +0.000 C 
ATOM     25  C   UNL     1       1.138  11.516  20.405  0.00  0.00    +0.000 C 
BRANCH  23  26
ATOM     26  C   UNL     1      -1.723  12.457  22.210  0.00  0.00    +0.000 A 
ATOM     27  C   UNL     1      -2.726  12.042  23.104  0.00  0.00    +0.000 A 
ATOM     28  C   UNL     1      -3.309  12.923  24.024  0.00  0.00    +0.000 A 
ATOM     29  C   UNL     1      -2.890  14.248  24.088  0.00  0.00    +0.000 A 
ATOM     30  C   UNL     1      -1.892  14.688  23.225  0.00  0.00    +0.000 A 
ATOM     31  C   UNL     1      -1.329  13.807  22.303  0.00  0.00    +0.000 A 
ATOM     32  F   UNL     1      -0.357  14.295  21.513  0.00  0.00    +0.000 F 
ENDBRANCH  23  26
ENDBRANCH  19  20
ENDBRANCH  18  19
ENDBRANCH  17  18
ENDBRANCH   1  17
TORSDOF 9
ENDMDL
MODEL 3
REMARK VINA RESULT:      -7.5      6.783     11.048
REMARK  Name = 
REMARK  10 active torsions:
REMARK  status: ('A' for Active; 'I' for Inactive)
REMARK    1  A    between atoms: C_1  and  C_2
REMARK    2  A    between atoms: C_2  and  C_3
REMARK    3  A    between atoms: C_3  and  N_4
REMARK    4  A    between atoms: N_4  and  C_5
REMARK    5  A    between atoms: C_5  and  C_6
REMARK    6  A    between atoms: C_6  and  C_7
REMARK    7  A    between atoms: C_7  and  C_8
REMARK    8  A    between atoms: C_8  and  N_9
REMARK    9  A    between atoms: N_12  and  C_13
REMARK   10  A    between atoms: C_25  and  C_26
REMARK                            x       y       z     vdW  Elec       q    Type
REMARK                         _______ _______ _______ _____ _____    ______ ____
ROOT
ATOM      1  C   UNL     1       9.371  10.412  18.677  0.00  0.00    +0.000 C 
ENDROOT
BRANCH   1   2
ATOM      2  N   UNL     1       9.375  11.873  18.658  0.00  0.00    +0.000 N 
ATOM      3  C   UNL     1       9.136  12.574  19.796  0.00  0.00    +0.000 A 
ATOM      4  N   UNL     1       9.100  13.908  19.934  0.00  0.00    +0.000 NA
ATOM      5  O   UNL     1       8.784  14.096  21.273  0.00  0.00    +0.000 OA
ATOM      6  C   UNL     1       8.661  12.854  21.823  0.00  0.00    +0.000 A 
ATOM      7  N   UNL     1       8.887  11.892  20.960  0.00  0.00    +0.000 NA
BRANCH   6   8
ATOM      8  C   UNL     1       8.326  12.781  23.239  0.00  0.00    +0.000 A 
ATOM      9  C   UNL     1       7.707  11.649  23.790  0.00  0.00    +0.000 A 
ATOM     10  C   UNL     1       7.353  11.614  25.140  0.00  0.00    +0.000 A 
ATOM     11  C   UNL     1       7.618  12.708  25.959  0.00  0.00    +0.000 A 
ATOM     12  C   UNL     1       8.249  13.834  25.433  0.00  0.00    +0.000 A 
ATOM     13  C   UNL     1       8.602  13.870  24.081  0.00  0.00    +0.000 A 
ENDBRANCH   6   8
BRANCH   2  14
ATOM     14  C   UNL     1       9.765  12.570  17.434  0.00  0.00    +0.000 C 
BRANCH  14  16
ATOM     15  C   UNL     1      12.168  12.103  18.201  0.00  0.00    +0.000 C 
ATOM     16  C   UNL     1      11.231  13.024  17.435  0.00  0.00    +0.000 C 
ENDBRANCH  14  16
ENDBRANCH   2  14
ENDBRANCH   1   2
BRANCH   1  17
ATOM     17  C   UNL     1       8.020   9.833  18.216  0.00  0.00    +0.000 C 
BRANCH  17  18
ATOM     18  C   UNL     1       8.153   8.543  17.396  0.00  0.00    +0.000 C 
BRANCH  18  19
ATOM     19  C   UNL     1       7.898   7.266  18.220  0.00  0.00    +0.000 C 
BRANCH  19  20
ATOM     20  N   UNL     1       7.350   6.142  17.435  0.00  0.00    +0.000 NA
ATOM     21  C   UNL     1       7.031   4.947  18.254  0.00  0.00    +0.000 C 
ATOM     22  C   UNL     1       5.904   5.176  19.280  0.00  0.00    +0.000 C 
ATOM     23  N   UNL     1       4.670   5.631  18.623  0.00  0.00    +0.000 N 
ATOM     24  C   UNL     1       4.836   6.731  17.649  0.00  0.00    +0.000 C 
ATOM     25  C   UNL     1       6.092   6.544  16.748  0.00  0.00    +0.000 C 
BRANCH  23  26
ATOM     26  C   UNL     1       3.603   4.749  18.454  0.00  0.00    +0.000 A 
ATOM     27  C   UNL     1       2.465   4.880  19.270  0.00  0.00    +0.000 A 
ATOM     28  C   UNL     1       1.395   3.979  19.200  0.00  0.00    +0.000 A 
ATOM     29  C   UNL     1       1.426   2.924  18.294  0.00  0.00    +0.000 A 
ATOM     30  C   UNL     1       2.532   2.772  17.465  0.00  0.00    +0.000 A 
ATOM     31  C   UNL     1       3.598   3.666  17.553  0.00  0.00    +0.000 A 
ATOM     32  F   UNL     1       4.626   3.469  16.709  0.00  0.00    +0.000 F 
ENDBRANCH  23  26
ENDBRANCH  19  20
ENDBRANCH  18  19
ENDBRANCH  17  18
ENDBRANCH   1  17
TORSDOF 9
ENDMDL
MODEL 4
REMARK VINA RESULT:      -7.5      6.633     11.023
REMARK  Name = 
REMARK  10 active torsions:
REMARK  status: ('A' for Active; 'I' for Inactive)
REMARK    1  A    between atoms: C_1  and  C_2
REMARK    2  A    between atoms: C_2  and  C_3
REMARK    3  A    between atoms: C_3  and  N_4
REMARK    4  A    between atoms: N_4  and  C_5
REMARK    5  A    between atoms: C_5  and  C_6
REMARK    6  A    between atoms: C_6  and  C_7
REMARK    7  A    between atoms: C_7  and  C_8
REMARK    8  A    between atoms: C_8  and  N_9
REMARK    9  A    between atoms: N_12  and  C_13
REMARK   10  A    between atoms: C_25  and  C_26
REMARK                            x       y       z     vdW  Elec       q    Type
REMARK                         _______ _______ _______ _____ _____    ______ ____
ROOT
ATOM      1  C   UNL     1       9.265  10.018  19.147  0.00  0.00    +0.000 C 
ENDROOT
BRANCH   1   2
ATOM      2  N   UNL     1       9.387  11.469  19.015  0.00  0.00    +0.000 N 
ATOM      3  C   UNL     1       9.187  12.274  20.090  0.00  0.00    +0.000 A 
ATOM      4  N   UNL     1       9.257  13.614  20.123  0.00  0.00    +0.000 NA
ATOM      5  O   UNL     1       8.934  13.932  21.436  0.00  0.00    +0.000 OA
ATOM      6  C   UNL     1       8.703  12.750  22.078  0.00  0.00    +0.000 A 
ATOM      7  N   UNL     1       8.864  11.708  21.298  0.00  0.00    +0.000 NA
BRANCH   6   8
ATOM      8  C   UNL     1       8.339  12.816  23.487  0.00  0.00    +0.000 A 
ATOM      9  C   UNL     1       8.362  14.028  24.195  0.00  0.00    +0.000 A 
ATOM     10  C   UNL     1       8.053  14.065  25.556  0.00  0.00    +0.000 A 
ATOM     11  C   UNL     1       7.710  12.894  26.227  0.00  0.00    +0.000 A 
ATOM     12  C   UNL     1       7.665  11.685  25.535  0.00  0.00    +0.000 A 
ATOM     13  C   UNL     1       7.976  11.646  24.173  0.00  0.00    +0.000 A 
ENDBRANCH   6   8
BRANCH   2  14
ATOM     14  C   UNL     1       9.852  12.034  17.750  0.00  0.00    +0.000 C 
BRANCH  14  16
ATOM     15  C   UNL     1      11.589  13.547  16.619  0.00  0.00    +0.000 C 
ATOM     16  C   UNL     1      10.962  13.079  17.925  0.00  0.00    +0.000 C 
ENDBRANCH  14  16
ENDBRANCH   2  14
ENDBRANCH   1   2
BRANCH   1  17
ATOM     17  C   UNL     1       8.420   9.406  18.015  0.00  0.00    +0.000 C 
BRANCH  17  18
ATOM     18  C   UNL     1       8.194   7.896  18.167  0.00  0.00    +0.000 C 
BRANCH  18  19
ATOM     19  C   UNL     1       6.886   7.405  17.515  0.00  0.00    +0.000 C 
BRANCH  19  20
ATOM     20  N   UNL     1       6.748   5.936  17.475  0.00  0.00    +0.000 NA
ATOM     21  C   UNL     1       6.429   5.334  18.793  0.00  0.00    +0.000 C 
ATOM     22  C   UNL     1       5.056   5.751  19.354  0.00  0.00    +0.000 C 
ATOM     23  N   UNL     1       3.973   5.415  18.417  0.00  0.00    +0.000 N 
ATOM     24  C   UNL     1       4.201   5.815  17.012  0.00  0.00    +0.000 C 
ATOM     25  C   UNL     1       5.659   5.535  16.542  0.00  0.00    +0.000 C 
BRANCH  23  26
ATOM     26  C   UNL     1       3.144   4.324  18.671  0.00  0.00    +0.000 A 
ATOM     27  C   UNL     1       3.245   3.178  17.861  0.00  0.00    +0.000 A 
ATOM     28  C   UNL     1       2.389   2.081  18.020  0.00  0.00    +0.000 A 
ATOM     29  C   UNL     1       1.412   2.091  19.010  0.00  0.00    +0.000 A 
ATOM     30  C   UNL     1       1.292   3.204  19.835  0.00  0.00    +0.000 A 
ATOM     31  C   UNL     1       2.140   4.297  19.660  0.00  0.00    +0.000 A 
ATOM     32  F   UNL     1       1.980   5.331  20.504  0.00  0.00    +0.000 F 
ENDBRANCH  23  26
ENDBRANCH  19  20
ENDBRANCH  18  19
ENDBRANCH  17  18
ENDBRANCH   1  17
TORSDOF 9
ENDMDL
MODEL 5
REMARK VINA RESULT:      -7.5      6.380     10.716
REMARK  Name = 
REMARK  10 active torsions:
REMARK  status: ('A' for Active; 'I' for Inactive)
REMARK    1  A    between atoms: C_1  and  C_2
REMARK    2  A    between atoms: C_2  and  C_3
REMARK    3  A    between atoms: C_3  and  N_4
REMARK    4  A    between atoms: N_4  and  C_5
REMARK    5  A    between atoms: C_5  and  C_6
REMARK    6  A    between atoms: C_6  and  C_7
REMARK    7  A    between atoms: C_7  and  C_8
REMARK    8  A    between atoms: C_8  and  N_9
REMARK    9  A    between atoms: N_12  and  C_13
REMARK   10  A    between atoms: C_25  and  C_26
REMARK                            x       y       z     vdW  Elec       q    Type
REMARK                         _______ _______ _______ _____ _____    ______ ____
ROOT
ATOM      1  C   UNL     1       8.311  10.355  18.573  0.00  0.00    +0.000 C 
ENDROOT
BRANCH   1   2
ATOM      2  N   UNL     1       9.449  11.244  18.799  0.00  0.00    +0.000 N 
ATOM      3  C   UNL     1       9.602  11.870  19.995  0.00  0.00    +0.000 A 
ATOM      4  N   UNL     1      10.583  12.714  20.347  0.00  0.00    +0.000 NA
ATOM      5  O   UNL     1      10.250  13.090  21.643  0.00  0.00    +0.000 OA
ATOM      6  C   UNL     1       9.096  12.432  21.955  0.00  0.00    +0.000 A 
ATOM      7  N   UNL     1       8.673  11.660  20.983  0.00  0.00    +0.000 NA
BRANCH   6   8
ATOM      8  C   UNL     1       8.533  12.664  23.278  0.00  0.00    +0.000 A 
ATOM      9  C   UNL     1       7.981  11.618  24.034  0.00  0.00    +0.000 A 
ATOM     10  C   UNL     1       7.405  11.866  25.282  0.00  0.00    +0.000 A 
ATOM     11  C   UNL     1       7.381  13.161  25.794  0.00  0.00    +0.000 A 
ATOM     12  C   UNL     1       7.941  14.208  25.065  0.00  0.00    +0.000 A 
ATOM     13  C   UNL     1       8.515  13.961  23.815  0.00  0.00    +0.000 A 
ENDBRANCH   6   8
BRANCH   2  14
ATOM     14  C   UNL     1      10.486  11.352  17.775  0.00  0.00    +0.000 C 
BRANCH  14  16
ATOM     15  C   UNL     1      11.852  13.286  16.786  0.00  0.00    +0.000 C 
ATOM     16  C   UNL     1      10.471  12.697  17.036  0.00  0.00    +0.000 C 
ENDBRANCH  14  16
ENDBRANCH   2  14
ENDBRANCH   1   2
BRANCH   1  17
ATOM     17  C   UNL     1       8.741   8.879  18.490  0.00  0.00    +0.000 C 
BRANCH  17  18
ATOM     18  C   UNL     1       7.989   8.080  17.418  0.00  0.00    +0.000 C 
BRANCH  18  19
ATOM     19  C   UNL     1       6.559   7.687  17.837  0.00  0.00    +0.000 C 
BRANCH  19  20
ATOM     20  N   UNL     1       6.060   6.455  17.197  0.00  0.00    +0.000 NA
ATOM     21  C   UNL     1       6.106   5.266  18.083  0.00  0.00    +0.000 C 
ATOM     22  C   UNL     1       5.178   5.365  19.310  0.00  0.00    +0.000 C 
ATOM     23  N   UNL     1       3.781   5.589  18.905  0.00  0.00    +0.000 N 
ATOM     24  C   UNL     1       3.574   6.653  17.899  0.00  0.00    +0.000 C 
ATOM     25  C   UNL     1       4.644   6.621  16.768  0.00  0.00    +0.000 C 
BRANCH  23  26
ATOM     26  C   UNL     1       2.861   4.544  18.967  0.00  0.00    +0.000 A 
ATOM     27  C   UNL     1       2.931   3.507  18.019  0.00  0.00    +0.000 A 
ATOM     28  C   UNL     1       1.990   2.470  17.984  0.00  0.00    +0.000 A 
ATOM     29  C   UNL     1       0.955   2.431  18.913  0.00  0.00    +0.000 A 
ATOM     30  C   UNL     1       0.863   3.435  19.871  0.00  0.00    +0.000 A 
ATOM     31  C   UNL     1       1.797   4.471  19.888  0.00  0.00    +0.000 A 
ATOM     32  F   UNL     1       1.658   5.397  20.852  0.00  0.00    +0.000 F 
ENDBRANCH  23  26
ENDBRANCH  19  20
ENDBRANCH  18  19
ENDBRANCH  17  18
ENDBRANCH   1  17
TORSDOF 9
ENDMDL
MODEL 6
REMARK VINA RESULT:      -7.4      6.693     11.071
REMARK  Name = 
REMARK  10 active torsions:
REMARK  status: ('A' for Active; 'I' for Inactive)
REMARK    1  A    between atoms: C_1  and  C_2
REMARK    2  A    between atoms: C_2  and  C_3
REMARK    3  A    between atoms: C_3  and  N_4
REMARK    4  A    between atoms: N_4  and  C_5
REMARK    5  A    between atoms: C_5  and  C_6
REMARK    6  A    between atoms: C_6  and  C_7
REMARK    7  A    between atoms: C_7  and  C_8
REMARK    8  A    between atoms: C_8  and  N_9
REMARK    9  A    between atoms: N_12  and  C_13
REMARK   10  A    between atoms: C_25  and  C_26
REMARK                            x       y       z     vdW  Elec       q    Type
REMARK                         _______ _______ _______ _____ _____    ______ ____
ROOT
ATOM      1  C   UNL     1       9.689  10.631  18.600  0.00  0.00    +0.000 C 
ENDROOT
BRANCH   1   2
ATOM      2  N   UNL     1       9.589  12.090  18.591  0.00  0.00    +0.000 N 
ATOM      3  C   UNL     1       9.289  12.763  19.731  0.00  0.00    +0.000 A 
ATOM      4  N   UNL     1       9.157  14.090  19.878  0.00  0.00    +0.000 NA
ATOM      5  O   UNL     1       8.812  14.245  21.215  0.00  0.00    +0.000 OA
ATOM      6  C   UNL     1       8.773  12.993  21.755  0.00  0.00    +0.000 A 
ATOM      7  N   UNL     1       9.075  12.056  20.888  0.00  0.00    +0.000 NA
BRANCH   6   8
ATOM      8  C   UNL     1       8.428  12.886  23.166  0.00  0.00    +0.000 A 
ATOM      9  C   UNL     1       7.884  11.708  23.701  0.00  0.00    +0.000 A 
ATOM     10  C   UNL     1       7.518  11.638  25.047  0.00  0.00    +0.000 A 
ATOM     11  C   UNL     1       7.698  12.741  25.877  0.00  0.00    +0.000 A 
ATOM     12  C   UNL     1       8.254  13.913  25.367  0.00  0.00    +0.000 A 
ATOM     13  C   UNL     1       8.618  13.984  24.019  0.00  0.00    +0.000 A 
ENDBRANCH   6   8
BRANCH   2  14
ATOM     14  C   UNL     1       9.942  12.822  17.376  0.00  0.00    +0.000 C 
BRANCH  14  16
ATOM     15  C   UNL     1      12.070  14.251  17.479  0.00  0.00    +0.000 C 
ATOM     16  C   UNL     1      11.455  12.903  17.134  0.00  0.00    +0.000 C 
ENDBRANCH  14  16
ENDBRANCH   2  14
ENDBRANCH   1   2
BRANCH   1  17
ATOM     17  C   UNL     1       8.304   9.959  18.572  0.00  0.00    +0.000 C 
BRANCH  17  18
ATOM     18  C   UNL     1       8.217   8.773  17.602  0.00  0.00    +0.000 C 
BRANCH  18  19
ATOM     19  C   UNL     1       8.009   7.419  18.309  0.00  0.00    +0.000 C 
BRANCH  19  20
ATOM     20  N   UNL     1       7.428   6.373  17.446  0.00  0.00    +0.000 NA
ATOM     21  C   UNL     1       7.202   5.084  18.147  0.00  0.00    +0.000 C 
ATOM     22  C   UNL     1       6.153   5.163  19.274  0.00  0.00    +0.000 C 
ATOM     23  N   UNL     1       4.860   5.649  18.766  0.00  0.00    +0.000 N 
ATOM     24  C   UNL     1       4.925   6.854  17.913  0.00  0.00    +0.000 C 
ATOM     25  C   UNL     1       6.111   6.808  16.905  0.00  0.00    +0.000 C 
BRANCH  23  26
ATOM     26  C   UNL     1       3.805   4.757  18.579  0.00  0.00    +0.000 A 
ATOM     27  C   UNL     1       3.844   3.860  17.496  0.00  0.00    +0.000 A 
ATOM     28  C   UNL     1       2.781   2.993  17.213  0.00  0.00    +0.000 A 
ATOM     29  C   UNL     1       1.648   2.987  18.020  0.00  0.00    +0.000 A 
ATOM     30  C   UNL     1       1.581   3.854  19.105  0.00  0.00    +0.000 A 
ATOM     31  C   UNL     1       2.639   4.723  19.370  0.00  0.00    +0.000 A 
ATOM     32  F   UNL     1       2.515   5.520  20.445  0.00  0.00    +0.000 F 
ENDBRANCH  23  26
ENDBRANCH  19  20
ENDBRANCH  18  19
ENDBRANCH  17  18
ENDBRANCH   1  17
TORSDOF 9
ENDMDL
MODEL 7
REMARK VINA RESULT:      -7.4      1.175      1.680
REMARK  Name = 
REMARK  10 active torsions:
REMARK  status: ('A' for Active; 'I' for Inactive)
REMARK    1  A    between atoms: C_1  and  C_2
REMARK    2  A    between atoms: C_2  and  C_3
REMARK    3  A    between atoms: C_3  and  N_4
REMARK    4  A    between atoms: N_4  and  C_5
REMARK    5  A    between atoms: C_5  and  C_6
REMARK    6  A    between atoms: C_6  and  C_7
REMARK    7  A    between atoms: C_7  and  C_8
REMARK    8  A    between atoms: C_8  and  N_9
REMARK    9  A    between atoms: N_12  and  C_13
REMARK   10  A    between atoms: C_25  and  C_26
REMARK                            x       y       z     vdW  Elec       q    Type
REMARK                         _______ _______ _______ _____ _____    ______ ____
ROOT
ATOM      1  C   UNL     1       3.569   7.414  18.039  0.00  0.00    +0.000 C 
ENDROOT
BRANCH   1   2
ATOM      2  N   UNL     1       3.670   5.991  18.358  0.00  0.00    +0.000 N 
ATOM      3  C   UNL     1       4.300   5.141  17.507  0.00  0.00    +0.000 A 
ATOM      4  N   UNL     1       4.465   3.819  17.658  0.00  0.00    +0.000 NA
ATOM      5  O   UNL     1       5.132   3.432  16.502  0.00  0.00    +0.000 OA
ATOM      6  C   UNL     1       5.311   4.562  15.759  0.00  0.00    +0.000 A 
ATOM      7  N   UNL     1       4.834   5.635  16.343  0.00  0.00    +0.000 NA
BRANCH   6   8
ATOM      8  C   UNL     1       5.995   4.418  14.480  0.00  0.00    +0.000 A 
ATOM      9  C   UNL     1       7.174   5.122  14.195  0.00  0.00    +0.000 A 
ATOM     10  C   UNL     1       7.792   5.006  12.948  0.00  0.00    +0.000 A 
ATOM     11  C   UNL     1       7.241   4.180  11.971  0.00  0.00    +0.000 A 
ATOM     12  C   UNL     1       6.080   3.459  12.244  0.00  0.00    +0.000 A 
ATOM     13  C   UNL     1       5.461   3.576  13.491  0.00  0.00    +0.000 A 
ENDBRANCH   6   8
BRANCH   2  14
ATOM     14  C   UNL     1       3.202   5.516  19.658  0.00  0.00    +0.000 C 
BRANCH  14  16
ATOM     15  C   UNL     1       1.566   3.825  20.680  0.00  0.00    +0.000 C 
ATOM     16  C   UNL     1       1.810   4.871  19.604  0.00  0.00    +0.000 C 
ENDBRANCH  14  16
ENDBRANCH   2  14
ENDBRANCH   1   2
BRANCH   1  17
ATOM     17  C   UNL     1       2.111   7.850  17.801  0.00  0.00    +0.000 C 
BRANCH  17  18
ATOM     18  C   UNL     1       1.620   8.912  18.793  0.00  0.00    +0.000 C 
BRANCH  18  19
ATOM     19  C   UNL     1       1.543  10.327  18.186  0.00  0.00    +0.000 C 
BRANCH  19  20
ATOM     20  N   UNL     1       1.429  11.406  19.186  0.00  0.00    +0.000 NA
ATOM     21  C   UNL     1       0.602  12.551  18.730  0.00  0.00    +0.000 C 
ATOM     22  C   UNL     1      -0.880  12.198  18.498  0.00  0.00    +0.000 C 
ATOM     23  N   UNL     1      -1.491  11.639  19.713  0.00  0.00    +0.000 N 
ATOM     24  C   UNL     1      -0.713  10.577  20.385  0.00  0.00    +0.000 C 
ATOM     25  C   UNL     1       0.810  10.898  20.440  0.00  0.00    +0.000 C 
BRANCH  23  26
ATOM     26  C   UNL     1      -2.355  12.418  20.481  0.00  0.00    +0.000 A 
ATOM     27  C   UNL     1      -1.891  12.977  21.686  0.00  0.00    +0.000 A 
ATOM     28  C   UNL     1      -2.732  13.705  22.537  0.00  0.00    +0.000 A 
ATOM     29  C   UNL     1      -4.066  13.910  22.197  0.00  0.00    +0.000 A 
ATOM     30  C   UNL     1      -4.554  13.380  21.008  0.00  0.00    +0.000 A 
ATOM     31  C   UNL     1      -3.712  12.644  20.175  0.00  0.00    +0.000 A 
ATOM     32  F   UNL     1      -4.246  12.176  19.033  0.00  0.00    +0.000 F 
ENDBRANCH  23  26
ENDBRANCH  19  20
ENDBRANCH  18  19
ENDBRANCH  17  18
ENDBRANCH   1  17
TORSDOF 9
ENDMDL
MODEL 8
REMARK VINA RESULT:      -7.4      1.184      1.975
REMARK  Name = 
REMARK  10 active torsions:
REMARK  status: ('A' for Active; 'I' for Inactive)
REMARK    1  A    between atoms: C_1  and  C_2
REMARK    2  A    between atoms: C_2  and  C_3
REMARK    3  A    between atoms: C_3  and  N_4
REMARK    4  A    between atoms: N_4  and  C_5
REMARK    5  A    between atoms: C_5  and  C_6
REMARK    6  A    between atoms: C_6  and  C_7
REMARK    7  A    between atoms: C_7  and  C_8
REMARK    8  A    between atoms: C_8  and  N_9
REMARK    9  A    between atoms: N_12  and  C_13
REMARK   10  A    between atoms: C_25  and  C_26
REMARK                            x       y       z     vdW  Elec       q    Type
REMARK                         _______ _______ _______ _____ _____    ______ ____
ROOT
ATOM      1  C   UNL     1       3.902   6.629  18.581  0.00  0.00    +0.000 C 
ENDROOT
BRANCH   1   2
ATOM      2  N   UNL     1       3.902   5.168  18.584  0.00  0.00    +0.000 N 
ATOM      3  C   UNL     1       4.476   4.480  17.563  0.00  0.00    +0.000 A 
ATOM      4  N   UNL     1       4.548   3.148  17.423  0.00  0.00    +0.000 NA
ATOM      5  O   UNL     1       5.191   2.976  16.203  0.00  0.00    +0.000 OA
ATOM      6  C   UNL     1       5.453   4.225  15.720  0.00  0.00    +0.000 A 
ATOM      7  N   UNL     1       5.048   5.176  16.528  0.00  0.00    +0.000 NA
BRANCH   6   8
ATOM      8  C   UNL     1       6.130   4.315  14.434  0.00  0.00    +0.000 A 
ATOM      9  C   UNL     1       7.188   5.213  14.223  0.00  0.00    +0.000 A 
ATOM     10  C   UNL     1       7.797   5.316  12.970  0.00  0.00    +0.000 A 
ATOM     11  C   UNL     1       7.361   4.520  11.914  0.00  0.00    +0.000 A 
ATOM     12  C   UNL     1       6.324   3.610  12.111  0.00  0.00    +0.000 A 
ATOM     13  C   UNL     1       5.713   3.507  13.364  0.00  0.00    +0.000 A 
ENDBRANCH   6   8
BRANCH   2  14
ATOM     14  C   UNL     1       3.396   4.455  19.756  0.00  0.00    +0.000 C 
BRANCH  14  16
ATOM     15  C   UNL     1       0.926   4.188  20.395  0.00  0.00    +0.000 C 
ATOM     16  C   UNL     1       2.068   3.732  19.499  0.00  0.00    +0.000 C 
ENDBRANCH  14  16
ENDBRANCH   2  14
ENDBRANCH   1   2
BRANCH   1  17
ATOM     17  C   UNL     1       2.475   7.205  18.626  0.00  0.00    +0.000 C 
BRANCH  17  18
ATOM     18  C   UNL     1       2.246   8.354  17.635  0.00  0.00    +0.000 C 
BRANCH  18  19
ATOM     19  C   UNL     1       2.322   9.749  18.288  0.00  0.00    +0.000 C 
BRANCH  19  20
ATOM     20  N   UNL     1       1.134  10.591  18.051  0.00  0.00    +0.000 NA
ATOM     21  C   UNL     1      -0.134   9.969  18.508  0.00  0.00    +0.000 C 
ATOM     22  C   UNL     1      -0.212   9.761  20.033  0.00  0.00    +0.000 C 
ATOM     23  N   UNL     1      -0.030  11.030  20.755  0.00  0.00    +0.000 N 
ATOM     24  C   UNL     1       1.116  11.853  20.313  0.00  0.00    +0.000 C 
ATOM     25  C   UNL     1       1.260  11.892  18.763  0.00  0.00    +0.000 C 
BRANCH  23  26
ATOM     26  C   UNL     1      -1.127  11.670  21.329  0.00  0.00    +0.000 A 
ATOM     27  C   UNL     1      -1.373  11.516  22.705  0.00  0.00    +0.000 A 
ATOM     28  C   UNL     1      -2.500  12.071  23.324  0.00  0.00    +0.000 A 
ATOM     29  C   UNL     1      -3.412  12.815  22.581  0.00  0.00    +0.000 A 
ATOM     30  C   UNL     1      -3.193  12.995  21.220  0.00  0.00    +0.000 A 
ATOM     31  C   UNL     1      -2.075  12.426  20.611  0.00  0.00    +0.000 A 
ATOM     32  F   UNL     1      -1.918  12.655  19.296  0.00  0.00    +0.000 F 
ENDBRANCH  23  26
ENDBRANCH  19  20
ENDBRANCH  18  19
ENDBRANCH  17  18
ENDBRANCH   1  17
TORSDOF 9
ENDMDL
MODEL 9
REMARK VINA RESULT:      -7.3      6.648      9.566
REMARK  Name = 
REMARK  10 active torsions:
REMARK  status: ('A' for Active; 'I' for Inactive)
REMARK    1  A    between atoms: C_1  and  C_2
REMARK    2  A    between atoms: C_2  and  C_3
REMARK    3  A    between atoms: C_3  and  N_4
REMARK    4  A    between atoms: N_4  and  C_5
REMARK    5  A    between atoms: C_5  and  C_6
REMARK    6  A    between atoms: C_6  and  C_7
REMARK    7  A    between atoms: C_7  and  C_8
REMARK    8  A    between atoms: C_8  and  N_9
REMARK    9  A    between atoms: N_12  and  C_13
REMARK   10  A    between atoms: C_25  and  C_26
REMARK                            x       y       z     vdW  Elec       q    Type
REMARK                         _______ _______ _______ _____ _____    ______ ____
ROOT
ATOM      1  C   UNL     1       6.930   6.633  18.020  0.00  0.00    +0.000 C 
ENDROOT
BRANCH   1   2
ATOM      2  N   UNL     1       6.294   5.840  16.970  0.00  0.00    +0.000 N 
ATOM      3  C   UNL     1       5.225   5.053  17.258  0.00  0.00    +0.000 A 
ATOM      4  N   UNL     1       4.544   4.269  16.409  0.00  0.00    +0.000 NA
ATOM      5  O   UNL     1       3.586   3.662  17.211  0.00  0.00    +0.000 OA
ATOM      6  C   UNL     1       3.774   4.142  18.475  0.00  0.00    +0.000 A 
ATOM      7  N   UNL     1       4.755   5.010  18.547  0.00  0.00    +0.000 NA
BRANCH   6   8
ATOM      8  C   UNL     1       2.882   3.649  19.516  0.00  0.00    +0.000 A 
ATOM      9  C   UNL     1       3.355   2.854  20.571  0.00  0.00    +0.000 A 
ATOM     10  C   UNL     1       2.478   2.354  21.536  0.00  0.00    +0.000 A 
ATOM     11  C   UNL     1       1.118   2.647  21.462  0.00  0.00    +0.000 A 
ATOM     12  C   UNL     1       0.635   3.451  20.431  0.00  0.00    +0.000 A 
ATOM     13  C   UNL     1       1.512   3.950  19.464  0.00  0.00    +0.000 A 
ENDBRANCH   6   8
BRANCH   2  14
ATOM     14  C   UNL     1       6.736   6.000  15.587  0.00  0.00    +0.000 C 
BRANCH  14  16
ATOM     15  C   UNL     1       7.121   4.746  13.382  0.00  0.00    +0.000 C 
ATOM     16  C   UNL     1       7.077   4.670  14.900  0.00  0.00    +0.000 C 
ENDBRANCH  14  16
ENDBRANCH   2  14
ENDBRANCH   1   2
BRANCH   1  17
ATOM     17  C   UNL     1       7.687   7.846  17.448  0.00  0.00    +0.000 C 
BRANCH  17  18
ATOM     18  C   UNL     1       8.558   8.569  18.483  0.00  0.00    +0.000 C 
BRANCH  18  19
ATOM     19  C   UNL     1       8.712  10.078  18.206  0.00  0.00    +0.000 C 
BRANCH  19  20
ATOM     20  N   UNL     1       9.959  10.663  18.735  0.00  0.00    +0.000 NA
ATOM     21  C   UNL     1      10.649  11.557  17.772  0.00  0.00    +0.000 C 
ATOM     22  C   UNL     1       9.849  12.825  17.414  0.00  0.00    +0.000 C 
ATOM     23  N   UNL     1       9.518  13.604  18.617  0.00  0.00    +0.000 N 
ATOM     24  C   UNL     1       8.954  12.828  19.742  0.00  0.00    +0.000 C 
ATOM     25  C   UNL     1       9.685  11.470  19.955  0.00  0.00    +0.000 C 
BRANCH  23  26
ATOM     26  C   UNL     1      10.216  14.777  18.902  0.00  0.00    +0.000 A 
ATOM     27  C   UNL     1      11.398  14.708  19.661  0.00  0.00    +0.000 A 
ATOM     28  C   UNL     1      12.102  15.858  20.043  0.00  0.00    +0.000 A 
ATOM     29  C   UNL     1      11.649  17.116  19.660  0.00  0.00    +0.000 A 
ATOM     30  C   UNL     1      10.489  17.219  18.900  0.00  0.00    +0.000 A 
ATOM     31  C   UNL     1       9.788  16.069  18.537  0.00  0.00    +0.000 A 
ATOM     32  F   UNL     1       8.686  16.242  17.787  0.00  0.00    +0.000 F 
ENDBRANCH  23  26
ENDBRANCH  19  20
ENDBRANCH  18  19
ENDBRANCH  17  18
ENDBRANCH   1  17
TORSDOF 9
ENDMDL
