MODEL 1
REMARK VINA RESULT:      -8.9      0.000      0.000
REMARK  Name = 
REMARK  10 active torsions:
REMARK  status: ('A' for Active; 'I' for Inactive)
REMARK    1  A    between atoms: C_1  and  C_2
REMARK    2  A    between atoms: C_2  and  C_3
REMARK    3  A    between atoms: C_2  and  O_4
REMARK    4  A    between atoms: C_2  and  C_5
REMARK    5  A    between atoms: C_5  and  C_7
REMARK    6  A    between atoms: C_7  and  N_8
REMARK    7  A    between atoms: C_9  and  C_11
REMARK    8  A    between atoms: C_14  and  N_15
REMARK    9  A    between atoms: C_26  and  N_27
REMARK   10  A    between atoms: N_27  and  C_28
REMARK                            x       y       z     vdW  Elec       q    Type
REMARK                         _______ _______ _______ _____ _____    ______ ____
ROOT
ATOM      1  C   UNL     1       2.685   7.383  18.500  0.00  0.00    +0.000 A 
ATOM      2  C   UNL     1       2.339   8.694  18.105  0.00  0.00    +0.000 A 
ATOM      3  N   UNL     1       1.670   9.666  18.867  0.00  0.00    +0.000 NA
ATOM      4  C   UNL     1       1.164   9.273  20.058  0.00  0.00    +0.000 A 
ATOM      5  C   UNL     1       1.364   7.960  20.471  0.00  0.00    +0.000 A 
ATOM      6  C   UNL     1       2.283   7.089  19.812  0.00  0.00    +0.000 A 
ENDROOT
BRANCH   4   7
ATOM      7  N   UNL     1       0.387  10.121  20.946  0.00  0.00    +0.000 N 
ATOM      8  N   UNL     1       0.524   9.941  22.312  0.00  0.00    +0.000 NA
ATOM      9  C   UNL     1      -0.530  10.565  22.842  0.00  0.00    +0.000 A 
ATOM     10  C   UNL     1      -1.245  11.318  21.903  0.00  0.00    +0.000 A 
ATOM     11  C   UNL     1      -2.356  12.179  21.951  0.00  0.00    +0.000 A 
ATOM     12  C   UNL     1      -2.498  13.043  20.888  0.00  0.00    +0.000 A 
ATOM     13  F   UNL     1      -3.435  13.977  20.921  0.00  0.00    +0.000 F 
ATOM     14  C   UNL     1      -1.609  12.976  19.828  0.00  0.00    +0.000 A 
ATOM     15  N   UNL     1      -0.636  12.024  19.651  0.00  0.00    +0.000 NA
ATOM     16  C   UNL     1      -0.516  11.183  20.714  0.00  0.00    +0.000 A 
ENDBRANCH   4   7
BRANCH   1  18
ATOM     17  N   UNL     1       4.701   6.946  16.924  0.00  0.00    +0.000 N 
ATOM     18  C   UNL     1       3.503   6.493  17.523  0.00  0.00    +0.000 C 
ATOM     19  O   UNL     1       3.086   5.358  17.291  0.00  0.00    +0.000 OA
ATOM     20  H   UNL     1       5.143   7.748  17.360  0.00  0.00    +0.000 HD
BRANCH  17  21
ATOM     21  C   UNL     1       5.653   6.121  16.035  0.00  0.00    +0.000 C 
BRANCH  21  22
ATOM     22  C   UNL     1       7.090   5.878  16.635  0.00  0.00    +0.000 C 
ATOM     23  F   UNL     1       7.609   7.128  16.895  0.00  0.00    +0.000 F 
BRANCH  22  25
ATOM     24  C   UNL     1       6.050   4.239  18.334  0.00  0.00    +0.000 C 
ATOM     25  C   UNL     1       7.346   5.003  17.952  0.00  0.00    +0.000 C 
ATOM     26  C   UNL     1       7.776   5.783  19.204  0.00  0.00    +0.000 C 
BRANCH  25  27
ATOM     27  O   UNL     1       8.362   4.010  17.726  0.00  0.00    +0.000 OA
ATOM     28  H   UNL     1       7.964   3.264  17.215  0.00  0.00    +0.000 HD
ENDBRANCH  25  27
ENDBRANCH  22  25
ENDBRANCH  21  22
ENDBRANCH  17  21
ENDBRANCH   1  18
BRANCH   6  29
ATOM     29  N   UNL     1       2.767   5.969  20.536  0.00  0.00    +0.000 N 
ATOM     30  H   UNL     1       3.083   6.288  21.455  0.00  0.00    +0.000 HD
BRANCH  29  31
ATOM     31  C   UNL     1       1.762   4.882  20.754  0.00  0.00    +0.000 C 
ATOM     32  C   UNL     1       2.315   3.813  21.716  0.00  0.00    +0.000 C 
ATOM     33  C   UNL     1       1.551   2.509  21.638  0.00  0.00    +0.000 C 
ATOM     34  O   UNL     1       1.451   2.080  20.285  0.00  0.00    +0.000 OA
ATOM     35  C   UNL     1       0.676   2.987  19.506  0.00  0.00    +0.000 C 
ATOM     36  C   UNL     1       1.375   4.328  19.388  0.00  0.00    +0.000 C 
ENDBRANCH  29  31
ENDBRANCH   6  29
TORSDOF 8
ENDMDL
MODEL 2
REMARK VINA RESULT:      -8.8      0.997      1.004
REMARK  Name = 
REMARK  10 active torsions:
REMARK  status: ('A' for Active; 'I' for Inactive)
REMARK    1  A    between atoms: C_1  and  C_2
REMARK    2  A    between atoms: C_2  and  C_3
REMARK    3  A    between atoms: C_2  and  O_4
REMARK    4  A    between atoms: C_2  and  C_5
REMARK    5  A    between atoms: C_5  and  C_7
REMARK    6  A    between atoms: C_7  and  N_8
REMARK    7  A    between atoms: C_9  and  C_11
REMARK    8  A    between atoms: C_14  and  N_15
REMARK    9  A    between atoms: C_26  and  N_27
REMARK   10  A    between atoms: N_27  and  C_28
REMARK                            x       y       z     vdW  Elec       q    Type
REMARK                         _______ _______ _______ _____ _____    ______ ____
ROOT
ATOM      1  C   UNL     1       2.569   7.406  18.733  0.00  0.00    +0.000 A 
ATOM      2  C   UNL     1       2.209   8.745  18.465  0.00  0.00    +0.000 A 
ATOM      3  N   UNL     1       1.582   9.651  19.337  0.00  0.00    +0.000 NA
ATOM      4  C   UNL     1       1.133   9.161  20.515  0.00  0.00    +0.000 A 
ATOM      5  C   UNL     1       1.348   7.818  20.808  0.00  0.00    +0.000 A 
ATOM      6  C   UNL     1       2.230   7.005  20.035  0.00  0.00    +0.000 A 
ENDROOT
BRANCH   4   7
ATOM      7  N   UNL     1       0.404   9.932  21.507  0.00  0.00    +0.000 N 
ATOM      8  N   UNL     1      -0.186   9.254  22.560  0.00  0.00    +0.000 NA
ATOM      9  C   UNL     1      -1.055  10.126  23.078  0.00  0.00    +0.000 A 
ATOM     10  C   UNL     1      -0.920  11.412  22.540  0.00  0.00    +0.000 A 
ATOM     11  C   UNL     1      -1.524  12.660  22.776  0.00  0.00    +0.000 A 
ATOM     12  C   UNL     1      -0.828  13.762  22.328  0.00  0.00    +0.000 A 
ATOM     13  F   UNL     1      -1.258  14.977  22.630  0.00  0.00    +0.000 F 
ATOM     14  C   UNL     1       0.357  13.587  21.633  0.00  0.00    +0.000 A 
ATOM     15  N   UNL     1       0.876  12.388  21.213  0.00  0.00    +0.000 NA
ATOM     16  C   UNL     1       0.171  11.316  21.666  0.00  0.00    +0.000 A 
ENDBRANCH   4   7
BRANCH   1  18
ATOM     17  N   UNL     1       4.565   7.048  17.111  0.00  0.00    +0.000 N 
ATOM     18  C   UNL     1       3.335   6.600  17.647  0.00  0.00    +0.000 C 
ATOM     19  O   UNL     1       2.846   5.535  17.268  0.00  0.00    +0.000 OA
ATOM     20  H   UNL     1       5.055   7.754  17.648  0.00  0.00    +0.000 HD
BRANCH  17  21
ATOM     21  C   UNL     1       5.467   6.285  16.121  0.00  0.00    +0.000 C 
BRANCH  21  22
ATOM     22  C   UNL     1       6.923   5.977  16.640  0.00  0.00    +0.000 C 
ATOM     23  F   UNL     1       7.494   7.200  16.919  0.00  0.00    +0.000 F 
BRANCH  22  25
ATOM     24  C   UNL     1       5.926   4.272  18.300  0.00  0.00    +0.000 C 
ATOM     25  C   UNL     1       7.214   5.046  17.911  0.00  0.00    +0.000 C 
ATOM     26  C   UNL     1       7.684   5.772  19.182  0.00  0.00    +0.000 C 
BRANCH  25  27
ATOM     27  O   UNL     1       8.218   4.060  17.614  0.00  0.00    +0.000 OA
ATOM     28  H   UNL     1       8.582   3.717  18.466  0.00  0.00    +0.000 HD
ENDBRANCH  25  27
ENDBRANCH  22  25
ENDBRANCH  21  22
ENDBRANCH  17  21
ENDBRANCH   1  18
BRANCH   6  29
ATOM     29  N   UNL     1       2.745   5.828  20.639  0.00  0.00    +0.000 N 
ATOM     30  H   UNL     1       3.112   6.071  21.562  0.00  0.00    +0.000 HD
BRANCH  29  31
ATOM     31  C   UNL     1       1.746   4.730  20.823  0.00  0.00    +0.000 C 
ATOM     32  C   UNL     1       2.295   3.648  21.773  0.00  0.00    +0.000 C 
ATOM     33  C   UNL     1       1.542   2.339  21.660  0.00  0.00    +0.000 C 
ATOM     34  O   UNL     1       1.464   1.935  20.299  0.00  0.00    +0.000 OA
ATOM     35  C   UNL     1       0.693   2.850  19.525  0.00  0.00    +0.000 C 
ATOM     36  C   UNL     1       1.383   4.198  19.442  0.00  0.00    +0.000 C 
ENDBRANCH  29  31
ENDBRANCH   6  29
TORSDOF 8
ENDMDL
MODEL 3
REMARK VINA RESULT:      -8.7      2.178      2.736
REMARK  Name = 
REMARK  10 active torsions:
REMARK  status: ('A' for Active; 'I' for Inactive)
REMARK    1  A    between atoms: C_1  and  C_2
REMARK    2  A    between atoms: C_2  and  C_3
REMARK    3  A    between atoms: C_2  and  O_4
REMARK    4  A    between atoms: C_2  and  C_5
REMARK    5  A    between atoms: C_5  and  C_7
REMARK    6  A    between atoms: C_7  and  N_8
REMARK    7  A    between atoms: C_9  and  C_11
REMARK    8  A    between atoms: C_14  and  N_15
REMARK    9  A    between atoms: C_26  and  N_27
REMARK   10  A    between atoms: N_27  and  C_28
REMARK                            x       y       z     vdW  Elec       q    Type
REMARK                         _______ _______ _______ _____ _____    ______ ____
ROOT
ATOM      1  C   UNL     1       3.587   6.678  18.189  0.00  0.00    +0.000 A 
ATOM      2  C   UNL     1       3.494   7.791  17.326  0.00  0.00    +0.000 A 
ATOM      3  N   UNL     1       2.679   8.925  17.479  0.00  0.00    +0.000 NA
ATOM      4  C   UNL     1       1.770   8.898  18.479  0.00  0.00    +0.000 A 
ATOM      5  C   UNL     1       1.719   7.783  19.309  0.00  0.00    +0.000 A 
ATOM      6  C   UNL     1       2.740   6.786  19.303  0.00  0.00    +0.000 A 
ENDROOT
BRANCH   4   7
ATOM      7  N   UNL     1       0.801   9.948  18.744  0.00  0.00    +0.000 N 
ATOM      8  N   UNL     1       1.183  11.002  19.557  0.00  0.00    +0.000 NA
ATOM      9  C   UNL     1       0.036  11.589  19.909  0.00  0.00    +0.000 A 
ATOM     10  C   UNL     1      -1.067  11.092  19.204  0.00  0.00    +0.000 A 
ATOM     11  C   UNL     1      -2.439  11.398  19.153  0.00  0.00    +0.000 A 
ATOM     12  C   UNL     1      -3.116  10.960  18.036  0.00  0.00    +0.000 A 
ATOM     13  F   UNL     1      -4.373  11.324  17.845  0.00  0.00    +0.000 F 
ATOM     14  C   UNL     1      -2.448  10.207  17.083  0.00  0.00    +0.000 A 
ATOM     15  N   UNL     1      -1.168   9.722  17.191  0.00  0.00    +0.000 NA
ATOM     16  C   UNL     1      -0.523  10.168  18.303  0.00  0.00    +0.000 A 
ENDBRANCH   4   7
BRANCH   1  18
ATOM     17  N   UNL     1       5.884   5.852  17.307  0.00  0.00    +0.000 N 
ATOM     18  C   UNL     1       4.621   5.562  17.872  0.00  0.00    +0.000 C 
ATOM     19  O   UNL     1       4.317   4.400  18.144  0.00  0.00    +0.000 OA
ATOM     20  H   UNL     1       6.193   6.816  17.372  0.00  0.00    +0.000 HD
BRANCH  17  21
ATOM     21  C   UNL     1       7.030   4.851  17.055  0.00  0.00    +0.000 C 
BRANCH  21  22
ATOM     22  C   UNL     1       6.952   4.071  15.688  0.00  0.00    +0.000 C 
ATOM     23  F   UNL     1       6.004   3.086  15.866  0.00  0.00    +0.000 F 
BRANCH  22  25
ATOM     24  C   UNL     1       5.822   3.802  13.385  0.00  0.00    +0.000 C 
ATOM     25  C   UNL     1       6.600   4.786  14.299  0.00  0.00    +0.000 C 
ATOM     26  C   UNL     1       7.798   5.286  13.477  0.00  0.00    +0.000 C 
BRANCH  25  27
ATOM     27  O   UNL     1       5.746   5.926  14.503  0.00  0.00    +0.000 OA
ATOM     28  H   UNL     1       6.081   6.433  15.282  0.00  0.00    +0.000 HD
ENDBRANCH  25  27
ENDBRANCH  22  25
ENDBRANCH  21  22
ENDBRANCH  17  21
ENDBRANCH   1  18
BRANCH   6  29
ATOM     29  N   UNL     1       2.864   5.960  20.451  0.00  0.00    +0.000 N 
ATOM     30  H   UNL     1       2.839   6.554  21.283  0.00  0.00    +0.000 HD
BRANCH  29  31
ATOM     31  C   UNL     1       1.790   4.928  20.598  0.00  0.00    +0.000 C 
ATOM     32  C   UNL     1       2.201   3.858  21.628  0.00  0.00    +0.000 C 
ATOM     33  C   UNL     1       1.383   2.590  21.507  0.00  0.00    +0.000 C 
ATOM     34  O   UNL     1       1.385   2.133  20.160  0.00  0.00    +0.000 OA
ATOM     35  C   UNL     1       0.730   3.056  19.294  0.00  0.00    +0.000 C 
ATOM     36  C   UNL     1       1.502   4.359  19.213  0.00  0.00    +0.000 C 
ENDBRANCH  29  31
ENDBRANCH   6  29
TORSDOF 8
ENDMDL
MODEL 4
REMARK VINA RESULT:      -8.5      2.551      3.326
REMARK  Name = 
REMARK  10 active torsions:
REMARK  status: ('A' for Active; 'I' for Inactive)
REMARK    1  A    between atoms: C_1  and  C_2
REMARK    2  A    between atoms: C_2  and  C_3
REMARK    3  A    between atoms: C_2  and  O_4
REMARK    4  A    between atoms: C_2  and  C_5
REMARK    5  A    between atoms: C_5  and  C_7
REMARK    6  A    between atoms: C_7  and  N_8
REMARK    7  A    between atoms: C_9  and  C_11
REMARK    8  A    between atoms: C_14  and  N_15
REMARK    9  A    between atoms: C_26  and  N_27
REMARK   10  A    between atoms: N_27  and  C_28
REMARK                            x       y       z     vdW  Elec       q    Type
REMARK                         _______ _______ _______ _____ _____    ______ ____
ROOT
ATOM      1  C   UNL     1       4.220   6.230  17.721  0.00  0.00    +0.000 A 
ATOM      2  C   UNL     1       3.827   7.497  17.237  0.00  0.00    +0.000 A 
ATOM      3  N   UNL     1       2.981   8.426  17.865  0.00  0.00    +0.000 NA
ATOM      4  C   UNL     1       2.347   8.020  18.988  0.00  0.00    +0.000 A 
ATOM      5  C   UNL     1       2.593   6.738  19.471  0.00  0.00    +0.000 A 
ATOM      6  C   UNL     1       3.662   5.934  18.975  0.00  0.00    +0.000 A 
ENDROOT
BRANCH   4   7
ATOM      7  N   UNL     1       1.387   8.819  19.731  0.00  0.00    +0.000 N 
ATOM      8  N   UNL     1       0.901   8.317  20.926  0.00  0.00    +0.000 NA
ATOM      9  C   UNL     1      -0.184   9.051  21.184  0.00  0.00    +0.000 A 
ATOM     10  C   UNL     1      -0.319  10.143  20.318  0.00  0.00    +0.000 A 
ATOM     11  C   UNL     1      -1.216  11.221  20.204  0.00  0.00    +0.000 A 
ATOM     12  C   UNL     1      -0.771  12.303  19.477  0.00  0.00    +0.000 A 
ATOM     13  F   UNL     1      -1.496  13.409  19.436  0.00  0.00    +0.000 F 
ATOM     14  C   UNL     1       0.468  12.251  18.860  0.00  0.00    +0.000 A 
ATOM     15  N   UNL     1       1.285  11.150  18.784  0.00  0.00    +0.000 NA
ATOM     16  C   UNL     1       0.823  10.095  19.508  0.00  0.00    +0.000 A 
ENDBRANCH   4   7
BRANCH   1  18
ATOM     17  N   UNL     1       5.524   5.682  15.545  0.00  0.00    +0.000 N 
ATOM     18  C   UNL     1       5.236   5.390  16.898  0.00  0.00    +0.000 C 
ATOM     19  O   UNL     1       5.806   4.458  17.465  0.00  0.00    +0.000 OA
ATOM     20  H   UNL     1       5.260   6.606  15.221  0.00  0.00    +0.000 HD
BRANCH  17  21
ATOM     21  C   UNL     1       6.589   4.998  14.665  0.00  0.00    +0.000 C 
BRANCH  21  22
ATOM     22  C   UNL     1       6.109   3.695  13.920  0.00  0.00    +0.000 C 
ATOM     23  F   UNL     1       4.777   3.541  14.244  0.00  0.00    +0.000 F 
BRANCH  22  25
ATOM     24  C   UNL     1       7.095   4.637  11.731  0.00  0.00    +0.000 C 
ATOM     25  C   UNL     1       6.207   3.515  12.332  0.00  0.00    +0.000 C 
ATOM     26  C   UNL     1       4.875   3.558  11.566  0.00  0.00    +0.000 C 
BRANCH  25  27
ATOM     27  O   UNL     1       6.830   2.264  11.989  0.00  0.00    +0.000 OA
ATOM     28  H   UNL     1       7.439   2.416  11.226  0.00  0.00    +0.000 HD
ENDBRANCH  25  27
ENDBRANCH  22  25
ENDBRANCH  21  22
ENDBRANCH  17  21
ENDBRANCH   1  18
BRANCH   6  29
ATOM     29  N   UNL     1       4.129   4.876  19.798  0.00  0.00    +0.000 N 
ATOM     30  H   UNL     1       4.186   5.214  20.761  0.00  0.00    +0.000 HD
BRANCH  29  31
ATOM     31  C   UNL     1       3.267   3.653  19.795  0.00  0.00    +0.000 C 
ATOM     32  C   UNL     1       2.431   3.579  18.503  0.00  0.00    +0.000 C 
ATOM     33  C   UNL     1       1.252   2.636  18.626  0.00  0.00    +0.000 C 
ATOM     34  O   UNL     1       0.498   2.945  19.792  0.00  0.00    +0.000 OA
ATOM     35  C   UNL     1       1.254   2.717  20.978  0.00  0.00    +0.000 C 
ATOM     36  C   UNL     1       2.423   3.680  21.064  0.00  0.00    +0.000 C 
ENDBRANCH  29  31
ENDBRANCH   6  29
TORSDOF 8
ENDMDL
MODEL 5
REMARK VINA RESULT:      -8.5      2.077      2.717
REMARK  Name = 
REMARK  10 active torsions:
REMARK  status: ('A' for Active; 'I' for Inactive)
REMARK    1  A    between atoms: C_1  and  C_2
REMARK    2  A    between atoms: C_2  and  C_3
REMARK    3  A    between atoms: C_2  and  O_4
REMARK    4  A    between atoms: C_2  and  C_5
REMARK    5  A    between atoms: C_5  and  C_7
REMARK    6  A    between atoms: C_7  and  N_8
REMARK    7  A    between atoms: C_9  and  C_11
REMARK    8  A    between atoms: C_14  and  N_15
REMARK    9  A    between atoms: C_26  and  N_27
REMARK   10  A    between atoms: N_27  and  C_28
REMARK                            x       y       z     vdW  Elec       q    Type
REMARK                         _______ _______ _______ _____ _____    ______ ____
ROOT
ATOM      1  C   UNL     1       3.602   6.597  18.157  0.00  0.00    +0.000 A 
ATOM      2  C   UNL     1       3.469   7.747  17.349  0.00  0.00    +0.000 A 
ATOM      3  N   UNL     1       2.692   8.889  17.608  0.00  0.00    +0.000 NA
ATOM      4  C   UNL     1       1.859   8.837  18.672  0.00  0.00    +0.000 A 
ATOM      5  C   UNL     1       1.846   7.689  19.458  0.00  0.00    +0.000 A 
ATOM      6  C   UNL     1       2.842   6.674  19.335  0.00  0.00    +0.000 A 
ENDROOT
BRANCH   4   7
ATOM      7  N   UNL     1       0.936   9.893  19.050  0.00  0.00    +0.000 N 
ATOM      8  N   UNL     1      -0.186   9.550  19.787  0.00  0.00    +0.000 NA
ATOM      9  C   UNL     1      -0.998  10.604  19.674  0.00  0.00    +0.000 A 
ATOM     10  C   UNL     1      -0.381  11.703  19.064  0.00  0.00    +0.000 A 
ATOM     11  C   UNL     1      -0.761  13.026  18.773  0.00  0.00    +0.000 A 
ATOM     12  C   UNL     1       0.268  13.913  18.540  0.00  0.00    +0.000 A 
ATOM     13  F   UNL     1       0.004  15.201  18.395  0.00  0.00    +0.000 F 
ATOM     14  C   UNL     1       1.576  13.458  18.538  0.00  0.00    +0.000 A 
ATOM     15  N   UNL     1       1.974  12.147  18.621  0.00  0.00    +0.000 NA
ATOM     16  C   UNL     1       0.941  11.291  18.850  0.00  0.00    +0.000 A 
ENDBRANCH   4   7
BRANCH   1  18
ATOM     17  N   UNL     1       5.942   5.744  17.427  0.00  0.00    +0.000 N 
ATOM     18  C   UNL     1       4.585   5.476  17.719  0.00  0.00    +0.000 C 
ATOM     19  O   UNL     1       4.152   4.326  17.646  0.00  0.00    +0.000 OA
ATOM     20  H   UNL     1       6.308   6.624  17.774  0.00  0.00    +0.000 HD
BRANCH  17  21
ATOM     21  C   UNL     1       7.032   4.706  17.095  0.00  0.00    +0.000 C 
BRANCH  21  22
ATOM     22  C   UNL     1       6.908   4.031  15.677  0.00  0.00    +0.000 C 
ATOM     23  F   UNL     1       5.939   3.058  15.803  0.00  0.00    +0.000 F 
BRANCH  22  25
ATOM     24  C   UNL     1       5.552   4.039  13.483  0.00  0.00    +0.000 C 
ATOM     25  C   UNL     1       6.548   4.854  14.351  0.00  0.00    +0.000 C 
ATOM     26  C   UNL     1       7.731   5.208  13.437  0.00  0.00    +0.000 C 
BRANCH  25  27
ATOM     27  O   UNL     1       5.898   6.097  14.672  0.00  0.00    +0.000 OA
ATOM     28  H   UNL     1       5.476   6.450  13.852  0.00  0.00    +0.000 HD
ENDBRANCH  25  27
ENDBRANCH  22  25
ENDBRANCH  21  22
ENDBRANCH  17  21
ENDBRANCH   1  18
BRANCH   6  29
ATOM     29  N   UNL     1       3.032   5.799  20.436  0.00  0.00    +0.000 N 
ATOM     30  H   UNL     1       3.126   6.360  21.285  0.00  0.00    +0.000 HD
BRANCH  29  31
ATOM     31  C   UNL     1       1.920   4.823  20.658  0.00  0.00    +0.000 C 
ATOM     32  C   UNL     1       2.325   3.765  21.704  0.00  0.00    +0.000 C 
ATOM     33  C   UNL     1       1.447   2.533  21.655  0.00  0.00    +0.000 C 
ATOM     34  O   UNL     1       1.370   2.038  20.323  0.00  0.00    +0.000 OA
ATOM     35  C   UNL     1       0.722   2.965  19.458  0.00  0.00    +0.000 C 
ATOM     36  C   UNL     1       1.548   4.228  19.305  0.00  0.00    +0.000 C 
ENDBRANCH  29  31
ENDBRANCH   6  29
TORSDOF 8
ENDMDL
MODEL 6
REMARK VINA RESULT:      -8.5      2.453      3.395
REMARK  Name = 
REMARK  10 active torsions:
REMARK  status: ('A' for Active; 'I' for Inactive)
REMARK    1  A    between atoms: C_1  and  C_2
REMARK    2  A    between atoms: C_2  and  C_3
REMARK    3  A    between atoms: C_2  and  O_4
REMARK    4  A    between atoms: C_2  and  C_5
REMARK    5  A    between atoms: C_5  and  C_7
REMARK    6  A    between atoms: C_7  and  N_8
REMARK    7  A    between atoms: C_9  and  C_11
REMARK    8  A    between atoms: C_14  and  N_15
REMARK    9  A    between atoms: C_26  and  N_27
REMARK   10  A    between atoms: N_27  and  C_28
REMARK                            x       y       z     vdW  Elec       q    Type
REMARK                         _______ _______ _______ _____ _____    ______ ____
ROOT
ATOM      1  C   UNL     1       4.089   6.808  17.523  0.00  0.00    +0.000 A 
ATOM      2  C   UNL     1       3.854   8.119  17.054  0.00  0.00    +0.000 A 
ATOM      3  N   UNL     1       2.890   9.032  17.515  0.00  0.00    +0.000 NA
ATOM      4  C   UNL     1       1.982   8.570  18.404  0.00  0.00    +0.000 A 
ATOM      5  C   UNL     1       2.075   7.249  18.833  0.00  0.00    +0.000 A 
ATOM      6  C   UNL     1       3.223   6.444  18.566  0.00  0.00    +0.000 A 
ENDROOT
BRANCH   4   7
ATOM      7  N   UNL     1       0.876   9.348  18.936  0.00  0.00    +0.000 N 
ATOM      8  N   UNL     1       0.015   9.960  18.040  0.00  0.00    +0.000 NA
ATOM      9  C   UNL     1      -0.644  10.863  18.770  0.00  0.00    +0.000 A 
ATOM     10  C   UNL     1      -0.399  10.735  20.143  0.00  0.00    +0.000 A 
ATOM     11  C   UNL     1      -0.873  11.372  21.304  0.00  0.00    +0.000 A 
ATOM     12  C   UNL     1      -0.698  10.684  22.485  0.00  0.00    +0.000 A 
ATOM     13  F   UNL     1      -1.236  11.148  23.601  0.00  0.00    +0.000 F 
ATOM     14  C   UNL     1      -0.027   9.472  22.478  0.00  0.00    +0.000 A 
ATOM     15  N   UNL     1       0.620   8.915  21.403  0.00  0.00    +0.000 NA
ATOM     16  C   UNL     1       0.433   9.614  20.250  0.00  0.00    +0.000 A 
ENDBRANCH   4   7
BRANCH   1  18
ATOM     17  N   UNL     1       5.459   5.868  15.529  0.00  0.00    +0.000 N 
ATOM     18  C   UNL     1       5.269   5.993  16.924  0.00  0.00    +0.000 C 
ATOM     19  O   UNL     1       6.058   5.462  17.707  0.00  0.00    +0.000 OA
ATOM     20  H   UNL     1       4.972   6.543  14.949  0.00  0.00    +0.000 HD
BRANCH  17  21
ATOM     21  C   UNL     1       6.647   5.187  14.821  0.00  0.00    +0.000 C 
BRANCH  21  22
ATOM     22  C   UNL     1       6.315   3.817  14.118  0.00  0.00    +0.000 C 
ATOM     23  F   UNL     1       5.068   3.446  14.577  0.00  0.00    +0.000 F 
BRANCH  22  25
ATOM     24  C   UNL     1       7.176   4.718  11.859  0.00  0.00    +0.000 C 
ATOM     25  C   UNL     1       6.274   3.645  12.526  0.00  0.00    +0.000 C 
ATOM     26  C   UNL     1       4.889   3.773  11.871  0.00  0.00    +0.000 C 
BRANCH  25  27
ATOM     27  O   UNL     1       6.791   2.362  12.129  0.00  0.00    +0.000 OA
ATOM     28  H   UNL     1       7.763   2.350  12.300  0.00  0.00    +0.000 HD
ENDBRANCH  25  27
ENDBRANCH  22  25
ENDBRANCH  21  22
ENDBRANCH  17  21
ENDBRANCH   1  18
BRANCH   6  29
ATOM     29  N   UNL     1       3.445   5.315  19.396  0.00  0.00    +0.000 N 
ATOM     30  H   UNL     1       3.888   5.630  20.262  0.00  0.00    +0.000 HD
BRANCH  29  31
ATOM     31  C   UNL     1       2.209   4.558  19.768  0.00  0.00    +0.000 C 
ATOM     32  C   UNL     1       2.390   3.855  21.128  0.00  0.00    +0.000 C 
ATOM     33  C   UNL     1       1.378   2.750  21.350  0.00  0.00    +0.000 C 
ATOM     34  O   UNL     1       1.363   1.868  20.234  0.00  0.00    +0.000 OA
ATOM     35  C   UNL     1       0.909   2.526  19.054  0.00  0.00    +0.000 C 
ATOM     36  C   UNL     1       1.891   3.600  18.626  0.00  0.00    +0.000 C 
ENDBRANCH  29  31
ENDBRANCH   6  29
TORSDOF 8
ENDMDL
MODEL 7
REMARK VINA RESULT:      -8.5      3.478      5.947
REMARK  Name = 
REMARK  10 active torsions:
REMARK  status: ('A' for Active; 'I' for Inactive)
REMARK    1  A    between atoms: C_1  and  C_2
REMARK    2  A    between atoms: C_2  and  C_3
REMARK    3  A    between atoms: C_2  and  O_4
REMARK    4  A    between atoms: C_2  and  C_5
REMARK    5  A    between atoms: C_5  and  C_7
REMARK    6  A    between atoms: C_7  and  N_8
REMARK    7  A    between atoms: C_9  and  C_11
REMARK    8  A    between atoms: C_14  and  N_15
REMARK    9  A    between atoms: C_26  and  N_27
REMARK   10  A    between atoms: N_27  and  C_28
REMARK                            x       y       z     vdW  Elec       q    Type
REMARK                         _______ _______ _______ _____ _____    ______ ____
ROOT
ATOM      1  C   UNL     1       0.527   9.453  20.738  0.00  0.00    +0.000 A 
ATOM      2  C   UNL     1       0.324   9.285  22.125  0.00  0.00    +0.000 A 
ATOM      3  N   UNL     1      -0.510  10.043  22.964  0.00  0.00    +0.000 NA
ATOM      4  C   UNL     1      -1.076  11.149  22.432  0.00  0.00    +0.000 A 
ATOM      5  C   UNL     1      -0.833  11.450  21.095  0.00  0.00    +0.000 A 
ATOM      6  C   UNL     1      -0.221  10.515  20.207  0.00  0.00    +0.000 A 
ENDROOT
BRANCH   4   7
ATOM      7  N   UNL     1      -1.909  12.086  23.166  0.00  0.00    +0.000 N 
ATOM      8  N   UNL     1      -3.082  11.616  23.732  0.00  0.00    +0.000 NA
ATOM      9  C   UNL     1      -3.789  12.715  24.005  0.00  0.00    +0.000 A 
ATOM     10  C   UNL     1      -3.052  13.892  23.831  0.00  0.00    +0.000 A 
ATOM     11  C   UNL     1      -3.296  15.263  24.035  0.00  0.00    +0.000 A 
ATOM     12  C   UNL     1      -2.183  16.068  24.134  0.00  0.00    +0.000 A 
ATOM     13  F   UNL     1      -2.321  17.342  24.462  0.00  0.00    +0.000 F 
ATOM     14  C   UNL     1      -0.923  15.516  23.967  0.00  0.00    +0.000 A 
ATOM     15  N   UNL     1      -0.652  14.229  23.573  0.00  0.00    +0.000 NA
ATOM     16  C   UNL     1      -1.768  13.456  23.481  0.00  0.00    +0.000 A 
ENDBRANCH   4   7
BRANCH   1  18
ATOM     17  N   UNL     1       1.825   7.212  20.555  0.00  0.00    +0.000 N 
ATOM     18  C   UNL     1       1.436   8.445  19.982  0.00  0.00    +0.000 C 
ATOM     19  O   UNL     1       1.805   8.742  18.845  0.00  0.00    +0.000 OA
ATOM     20  H   UNL     1       1.275   6.894  21.346  0.00  0.00    +0.000 HD
BRANCH  17  21
ATOM     21  C   UNL     1       2.624   6.089  19.865  0.00  0.00    +0.000 C 
BRANCH  21  22
ATOM     22  C   UNL     1       1.967   4.659  19.932  0.00  0.00    +0.000 C 
ATOM     23  F   UNL     1       0.703   4.845  20.449  0.00  0.00    +0.000 F 
BRANCH  22  25
ATOM     24  C   UNL     1       0.798   2.573  18.965  0.00  0.00    +0.000 C 
ATOM     25  C   UNL     1       1.791   3.722  18.645  0.00  0.00    +0.000 C 
ATOM     26  C   UNL     1       3.072   3.054  18.118  0.00  0.00    +0.000 C 
BRANCH  25  27
ATOM     27  O   UNL     1       1.235   4.456  17.540  0.00  0.00    +0.000 OA
ATOM     28  H   UNL     1       1.234   5.417  17.771  0.00  0.00    +0.000 HD
ENDBRANCH  25  27
ENDBRANCH  22  25
ENDBRANCH  21  22
ENDBRANCH  17  21
ENDBRANCH   1  18
BRANCH   6  29
ATOM     29  N   UNL     1      -0.423  10.698  18.814  0.00  0.00    +0.000 N 
ATOM     30  H   UNL     1       0.237  10.100  18.309  0.00  0.00    +0.000 HD
BRANCH  29  31
ATOM     31  C   UNL     1      -1.799  10.365  18.331  0.00  0.00    +0.000 C 
ATOM     32  C   UNL     1      -1.750   9.786  16.904  0.00  0.00    +0.000 C 
ATOM     33  C   UNL     1      -3.094   9.837  16.209  0.00  0.00    +0.000 C 
ATOM     34  O   UNL     1      -3.637  11.149  16.288  0.00  0.00    +0.000 OA
ATOM     35  C   UNL     1      -3.924  11.516  17.634  0.00  0.00    +0.000 C 
ATOM     36  C   UNL     1      -2.648  11.626  18.446  0.00  0.00    +0.000 C 
ENDBRANCH  29  31
ENDBRANCH   6  29
TORSDOF 8
ENDMDL
MODEL 8
REMARK VINA RESULT:      -8.4      2.058      2.528
REMARK  Name = 
REMARK  10 active torsions:
REMARK  status: ('A' for Active; 'I' for Inactive)
REMARK    1  A    between atoms: C_1  and  C_2
REMARK    2  A    between atoms: C_2  and  C_3
REMARK    3  A    between atoms: C_2  and  O_4
REMARK    4  A    between atoms: C_2  and  C_5
REMARK    5  A    between atoms: C_5  and  C_7
REMARK    6  A    between atoms: C_7  and  N_8
REMARK    7  A    between atoms: C_9  and  C_11
REMARK    8  A    between atoms: C_14  and  N_15
REMARK    9  A    between atoms: C_26  and  N_27
REMARK   10  A    between atoms: N_27  and  C_28
REMARK                            x       y       z     vdW  Elec       q    Type
REMARK                         _______ _______ _______ _____ _____    ______ ____
ROOT
ATOM      1  C   UNL     1       3.201   6.621  18.429  0.00  0.00    +0.000 A 
ATOM      2  C   UNL     1       3.190   7.684  17.501  0.00  0.00    +0.000 A 
ATOM      3  N   UNL     1       2.480   8.893  17.595  0.00  0.00    +0.000 NA
ATOM      4  C   UNL     1       1.590   9.006  18.606  0.00  0.00    +0.000 A 
ATOM      5  C   UNL     1       1.456   7.951  19.503  0.00  0.00    +0.000 A 
ATOM      6  C   UNL     1       2.386   6.869  19.545  0.00  0.00    +0.000 A 
ENDROOT
BRANCH   4   7
ATOM      7  N   UNL     1       0.721  10.151  18.818  0.00  0.00    +0.000 N 
ATOM      8  N   UNL     1       1.213  11.220  19.549  0.00  0.00    +0.000 NA
ATOM      9  C   UNL     1       0.129  11.926  19.884  0.00  0.00    +0.000 A 
ATOM     10  C   UNL     1      -1.030  11.481  19.237  0.00  0.00    +0.000 A 
ATOM     11  C   UNL     1      -2.372  11.901  19.194  0.00  0.00    +0.000 A 
ATOM     12  C   UNL     1      -3.112  11.450  18.123  0.00  0.00    +0.000 A 
ATOM     13  F   UNL     1      -4.339  11.908  17.934  0.00  0.00    +0.000 F 
ATOM     14  C   UNL     1      -2.537  10.580  17.211  0.00  0.00    +0.000 A 
ATOM     15  N   UNL     1      -1.301   9.994  17.325  0.00  0.00    +0.000 NA
ATOM     16  C   UNL     1      -0.590  10.455  18.391  0.00  0.00    +0.000 A 
ENDBRANCH   4   7
BRANCH   1  18
ATOM     17  N   UNL     1       4.019   4.617  16.996  0.00  0.00    +0.000 N 
ATOM     18  C   UNL     1       4.127   5.401  18.168  0.00  0.00    +0.000 C 
ATOM     19  O   UNL     1       4.984   5.136  19.012  0.00  0.00    +0.000 OA
ATOM     20  H   UNL     1       3.514   5.036  16.223  0.00  0.00    +0.000 HD
BRANCH  17  21
ATOM     21  C   UNL     1       4.949   3.462  16.575  0.00  0.00    +0.000 C 
BRANCH  21  22
ATOM     22  C   UNL     1       6.226   3.891  15.759  0.00  0.00    +0.000 C 
ATOM     23  F   UNL     1       6.143   3.235  14.549  0.00  0.00    +0.000 F 
BRANCH  22  25
ATOM     24  C   UNL     1       7.510   5.483  14.187  0.00  0.00    +0.000 C 
ATOM     25  C   UNL     1       6.566   5.419  15.417  0.00  0.00    +0.000 C 
ATOM     26  C   UNL     1       7.253   6.221  16.534  0.00  0.00    +0.000 C 
BRANCH  25  27
ATOM     27  O   UNL     1       5.377   6.150  15.068  0.00  0.00    +0.000 OA
ATOM     28  H   UNL     1       5.393   7.018  15.539  0.00  0.00    +0.000 HD
ENDBRANCH  25  27
ENDBRANCH  22  25
ENDBRANCH  21  22
ENDBRANCH  17  21
ENDBRANCH   1  18
BRANCH   6  29
ATOM     29  N   UNL     1       2.457   6.105  20.739  0.00  0.00    +0.000 N 
ATOM     30  H   UNL     1       2.192   6.704  21.525  0.00  0.00    +0.000 HD
BRANCH  29  31
ATOM     31  C   UNL     1       1.567   4.902  20.766  0.00  0.00    +0.000 C 
ATOM     32  C   UNL     1       2.159   3.808  21.676  0.00  0.00    +0.000 C 
ATOM     33  C   UNL     1       1.557   2.444  21.412  0.00  0.00    +0.000 C 
ATOM     34  O   UNL     1       1.616   2.143  20.023  0.00  0.00    +0.000 OA
ATOM     35  C   UNL     1       0.809   3.035  19.260  0.00  0.00    +0.000 C 
ATOM     36  C   UNL     1       1.359   4.448  19.326  0.00  0.00    +0.000 C 
ENDBRANCH  29  31
ENDBRANCH   6  29
TORSDOF 8
ENDMDL
MODEL 9
REMARK VINA RESULT:      -8.4      2.542      3.407
REMARK  Name = 
REMARK  10 active torsions:
REMARK  status: ('A' for Active; 'I' for Inactive)
REMARK    1  A    between atoms: C_1  and  C_2
REMARK    2  A    between atoms: C_2  and  C_3
REMARK    3  A    between atoms: C_2  and  O_4
REMARK    4  A    between atoms: C_2  and  C_5
REMARK    5  A    between atoms: C_5  and  C_7
REMARK    6  A    between atoms: C_7  and  N_8
REMARK    7  A    between atoms: C_9  and  C_11
REMARK    8  A    between atoms: C_14  and  N_15
REMARK    9  A    between atoms: C_26  and  N_27
REMARK   10  A    between atoms: N_27  and  C_28
REMARK                            x       y       z     vdW  Elec       q    Type
REMARK                         _______ _______ _______ _____ _____    ______ ____
ROOT
ATOM      1  C   UNL     1       4.274   5.873  17.323  0.00  0.00    +0.000 A 
ATOM      2  C   UNL     1       3.889   7.181  16.957  0.00  0.00    +0.000 A 
ATOM      3  N   UNL     1       3.119   8.086  17.708  0.00  0.00    +0.000 NA
ATOM      4  C   UNL     1       2.553   7.617  18.843  0.00  0.00    +0.000 A 
ATOM      5  C   UNL     1       2.791   6.298  19.216  0.00  0.00    +0.000 A 
ATOM      6  C   UNL     1       3.797   5.503  18.590  0.00  0.00    +0.000 A 
ENDROOT
BRANCH   4   7
ATOM      7  N   UNL     1       1.674   8.387  19.706  0.00  0.00    +0.000 N 
ATOM      8  N   UNL     1       1.381   7.882  20.962  0.00  0.00    +0.000 NA
ATOM      9  C   UNL     1       0.313   8.575  21.364  0.00  0.00    +0.000 A 
ATOM     10  C   UNL     1       0.013   9.649  20.517  0.00  0.00    +0.000 A 
ATOM     11  C   UNL     1      -0.937  10.687  20.521  0.00  0.00    +0.000 A 
ATOM     12  C   UNL     1      -0.644  11.777  19.731  0.00  0.00    +0.000 A 
ATOM     13  F   UNL     1      -1.413  12.852  19.783  0.00  0.00    +0.000 F 
ATOM     14  C   UNL     1       0.498  11.766  18.946  0.00  0.00    +0.000 A 
ATOM     15  N   UNL     1       1.341  10.699  18.765  0.00  0.00    +0.000 NA
ATOM     16  C   UNL     1       1.030   9.635  19.555  0.00  0.00    +0.000 A 
ENDBRANCH   4   7
BRANCH   1  18
ATOM     17  N   UNL     1       6.118   5.705  15.504  0.00  0.00    +0.000 N 
ATOM     18  C   UNL     1       5.202   5.067  16.372  0.00  0.00    +0.000 C 
ATOM     19  O   UNL     1       5.132   3.838  16.403  0.00  0.00    +0.000 OA
ATOM     20  H   UNL     1       6.340   6.670  15.719  0.00  0.00    +0.000 HD
BRANCH  17  21
ATOM     21  C   UNL     1       7.164   5.015  14.604  0.00  0.00    +0.000 C 
BRANCH  21  22
ATOM     22  C   UNL     1       6.730   4.814  13.103  0.00  0.00    +0.000 C 
ATOM     23  F   UNL     1       7.873   4.984  12.351  0.00  0.00    +0.000 F 
BRANCH  22  25
ATOM     24  C   UNL     1       7.005   2.732  11.605  0.00  0.00    +0.000 C 
ATOM     25  C   UNL     1       6.039   3.470  12.570  0.00  0.00    +0.000 C 
ATOM     26  C   UNL     1       4.717   3.650  11.808  0.00  0.00    +0.000 C 
BRANCH  25  27
ATOM     27  O   UNL     1       5.761   2.565  13.653  0.00  0.00    +0.000 OA
ATOM     28  H   UNL     1       5.086   2.980  14.243  0.00  0.00    +0.000 HD
ENDBRANCH  25  27
ENDBRANCH  22  25
ENDBRANCH  21  22
ENDBRANCH  17  21
ENDBRANCH   1  18
BRANCH   6  29
ATOM     29  N   UNL     1       4.286   4.376  19.301  0.00  0.00    +0.000 N 
ATOM     30  H   UNL     1       4.618   4.689  20.216  0.00  0.00    +0.000 HD
BRANCH  29  31
ATOM     31  C   UNL     1       3.279   3.294  19.529  0.00  0.00    +0.000 C 
ATOM     32  C   UNL     1       2.273   3.231  18.363  0.00  0.00    +0.000 C 
ATOM     33  C   UNL     1       1.009   2.480  18.725  0.00  0.00    +0.000 C 
ATOM     34  O   UNL     1       0.466   2.991  19.937  0.00  0.00    +0.000 OA
ATOM     35  C   UNL     1       1.339   2.759  21.039  0.00  0.00    +0.000 C 
ATOM     36  C   UNL     1       2.624   3.548  20.883  0.00  0.00    +0.000 C 
ENDBRANCH  29  31
ENDBRANCH   6  29
TORSDOF 8
ENDMDL
