MODEL 1
REMARK VINA RESULT:      -7.8      0.000      0.000
REMARK  Name = 
REMARK  4 active torsions:
REMARK  status: ('A' for Active; 'I' for Inactive)
REMARK    1  A    between atoms: C_1  and  C_2
REMARK    2  A    between atoms: C_5  and  N_6
REMARK    3  A    between atoms: C_7  and  C_10
REMARK    4  A    between atoms: N_8  and  O_9
REMARK                            x       y       z     vdW  Elec       q    Type
REMARK                         _______ _______ _______ _____ _____    ______ ____
ROOT
ATOM      1  N   UNL     1       5.472   3.542  16.210  0.00  0.00    +0.000 N 
ATOM      2  C   UNL     1       6.657   4.257  16.150  0.00  0.00    +0.000 C 
ATOM      3  N   UNL     1       7.503   4.615  17.070  0.00  0.00    +0.000 NA
ATOM      4  H   UNL     1       5.113   3.269  15.296  0.00  0.00    +0.000 HD
ENDROOT
BRANCH   2   5
ATOM      5  C   UNL     1       7.026   4.589  14.767  0.00  0.00    +0.000 A 
ATOM      6  N   UNL     1       7.859   5.606  14.491  0.00  0.00    +0.000 NA
ATOM      7  O   UNL     1       7.972   5.617  13.106  0.00  0.00    +0.000 OA
ATOM      8  N   UNL     1       7.183   4.637  12.527  0.00  0.00    +0.000 NA
ATOM      9  C   UNL     1       6.601   4.003  13.545  0.00  0.00    +0.000 A 
ATOM     10  N   UNL     1       5.727   2.988  13.397  0.00  0.00    +0.000 N 
ATOM     11  H   UNL     1       5.330   2.807  12.482  0.00  0.00    +0.000 HD
ATOM     12  H   UNL     1       5.150   2.701  14.184  0.00  0.00    +0.000 HD
ENDBRANCH   2   5
BRANCH   1  17
ATOM     13  C   UNL     1       1.056   3.968  19.868  0.00  0.00    +0.000 C 
ATOM     14  C   UNL     1       2.233   3.894  18.940  0.00  0.00    +0.000 A 
ATOM     15  C   UNL     1       2.751   5.040  18.328  0.00  0.00    +0.000 A 
ATOM     16  C   UNL     1       3.825   4.951  17.430  0.00  0.00    +0.000 A 
ATOM     17  C   UNL     1       4.396   3.715  17.111  0.00  0.00    +0.000 A 
ATOM     18  C   UNL     1       3.880   2.574  17.744  0.00  0.00    +0.000 A 
ATOM     19  C   UNL     1       2.810   2.658  18.642  0.00  0.00    +0.000 A 
ENDBRANCH   1  17
BRANCH   3  20
ATOM     20  O   UNL     1       7.152   4.115  18.328  0.00  0.00    +0.000 OA
ATOM     21  H   UNL     1       8.015   3.993  18.763  0.00  0.00    +0.000 HD
ENDBRANCH   3  20
TORSDOF 3
ENDMDL
MODEL 2
REMARK VINA RESULT:      -7.7      1.459      2.152
REMARK  Name = 
REMARK  4 active torsions:
REMARK  status: ('A' for Active; 'I' for Inactive)
REMARK    1  A    between atoms: C_1  and  C_2
REMARK    2  A    between atoms: C_5  and  N_6
REMARK    3  A    between atoms: C_7  and  C_10
REMARK    4  A    between atoms: N_8  and  O_9
REMARK                            x       y       z     vdW  Elec       q    Type
REMARK                         _______ _______ _______ _____ _____    ______ ____
ROOT
ATOM      1  N   UNL     1       5.939   4.019  16.316  0.00  0.00    +0.000 N 
ATOM      2  C   UNL     1       6.748   4.878  15.591  0.00  0.00    +0.000 C 
ATOM      3  N   UNL     1       7.515   5.863  15.954  0.00  0.00    +0.000 NA
ATOM      4  H   UNL     1       5.588   3.232  15.772  0.00  0.00    +0.000 HD
ENDROOT
BRANCH   2   5
ATOM      5  C   UNL     1       6.772   4.532  14.164  0.00  0.00    +0.000 A 
ATOM      6  N   UNL     1       5.931   3.616  13.652  0.00  0.00    +0.000 NA
ATOM      7  O   UNL     1       6.241   3.554  12.299  0.00  0.00    +0.000 OA
ATOM      8  N   UNL     1       7.292   4.399  11.982  0.00  0.00    +0.000 NA
ATOM      9  C   UNL     1       7.619   5.002  13.125  0.00  0.00    +0.000 A 
ATOM     10  N   UNL     1       8.625   5.890  13.245  0.00  0.00    +0.000 N 
ATOM     11  H   UNL     1       9.300   5.978  12.494  0.00  0.00    +0.000 HD
ATOM     12  H   UNL     1       8.972   6.139  14.169  0.00  0.00    +0.000 HD
ENDBRANCH   2   5
BRANCH   1  17
ATOM     13  C   UNL     1       2.115   5.591  20.312  0.00  0.00    +0.000 C 
ATOM     14  C   UNL     1       3.096   5.131  19.274  0.00  0.00    +0.000 A 
ATOM     15  C   UNL     1       3.964   4.061  19.514  0.00  0.00    +0.000 A 
ATOM     16  C   UNL     1       4.905   3.669  18.551  0.00  0.00    +0.000 A 
ATOM     17  C   UNL     1       5.012   4.346  17.332  0.00  0.00    +0.000 A 
ATOM     18  C   UNL     1       4.125   5.407  17.094  0.00  0.00    +0.000 A 
ATOM     19  C   UNL     1       3.183   5.800  18.051  0.00  0.00    +0.000 A 
ENDBRANCH   1  17
BRANCH   3  20
ATOM     20  O   UNL     1       7.553   6.012  17.344  0.00  0.00    +0.000 OA
ATOM     21  H   UNL     1       8.503   6.129  17.525  0.00  0.00    +0.000 HD
ENDBRANCH   3  20
TORSDOF 3
ENDMDL
MODEL 3
REMARK VINA RESULT:      -7.7      0.565      1.294
REMARK  Name = 
REMARK  4 active torsions:
REMARK  status: ('A' for Active; 'I' for Inactive)
REMARK    1  A    between atoms: C_1  and  C_2
REMARK    2  A    between atoms: C_5  and  N_6
REMARK    3  A    between atoms: C_7  and  C_10
REMARK    4  A    between atoms: N_8  and  O_9
REMARK                            x       y       z     vdW  Elec       q    Type
REMARK                         _______ _______ _______ _____ _____    ______ ____
ROOT
ATOM      1  N   UNL     1       5.638   3.744  16.018  0.00  0.00    +0.000 N 
ATOM      2  C   UNL     1       6.886   4.332  15.899  0.00  0.00    +0.000 C 
ATOM      3  N   UNL     1       7.817   4.580  16.771  0.00  0.00    +0.000 NA
ATOM      4  H   UNL     1       5.200   3.529  15.123  0.00  0.00    +0.000 HD
ENDROOT
BRANCH   2   5
ATOM      5  C   UNL     1       7.207   4.653  14.501  0.00  0.00    +0.000 A 
ATOM      6  N   UNL     1       8.030   5.668  14.188  0.00  0.00    +0.000 NA
ATOM      7  O   UNL     1       8.095   5.669  12.800  0.00  0.00    +0.000 OA
ATOM      8  N   UNL     1       7.288   4.683  12.256  0.00  0.00    +0.000 NA
ATOM      9  C   UNL     1       6.743   4.057  13.299  0.00  0.00    +0.000 A 
ATOM     10  N   UNL     1       5.865   3.040  13.189  0.00  0.00    +0.000 N 
ATOM     11  H   UNL     1       5.437   2.851  12.290  0.00  0.00    +0.000 HD
ATOM     12  H   UNL     1       5.315   2.758  13.997  0.00  0.00    +0.000 HD
ENDBRANCH   2   5
BRANCH   1  17
ATOM     13  C   UNL     1       1.650   5.093  19.935  0.00  0.00    +0.000 C 
ATOM     14  C   UNL     1       2.658   4.706  18.893  0.00  0.00    +0.000 A 
ATOM     15  C   UNL     1       3.015   3.370  18.684  0.00  0.00    +0.000 A 
ATOM     16  C   UNL     1       3.989   3.026  17.736  0.00  0.00    +0.000 A 
ATOM     17  C   UNL     1       4.640   4.009  16.984  0.00  0.00    +0.000 A 
ATOM     18  C   UNL     1       4.263   5.345  17.189  0.00  0.00    +0.000 A 
ATOM     19  C   UNL     1       3.290   5.692  18.132  0.00  0.00    +0.000 A 
ENDBRANCH   1  17
BRANCH   3  20
ATOM     20  O   UNL     1       7.489   4.093  18.041  0.00  0.00    +0.000 OA
ATOM     21  H   UNL     1       6.515   4.130  18.043  0.00  0.00    +0.000 HD
ENDBRANCH   3  20
TORSDOF 3
ENDMDL
MODEL 4
REMARK VINA RESULT:      -7.6      1.432      1.861
REMARK  Name = 
REMARK  4 active torsions:
REMARK  status: ('A' for Active; 'I' for Inactive)
REMARK    1  A    between atoms: C_1  and  C_2
REMARK    2  A    between atoms: C_5  and  N_6
REMARK    3  A    between atoms: C_7  and  C_10
REMARK    4  A    between atoms: N_8  and  O_9
REMARK                            x       y       z     vdW  Elec       q    Type
REMARK                         _______ _______ _______ _____ _____    ______ ____
ROOT
ATOM      1  N   UNL     1       5.832   4.067  16.287  0.00  0.00    +0.000 N 
ATOM      2  C   UNL     1       6.715   4.869  15.583  0.00  0.00    +0.000 C 
ATOM      3  N   UNL     1       7.543   5.795  15.966  0.00  0.00    +0.000 NA
ATOM      4  H   UNL     1       5.437   3.310  15.732  0.00  0.00    +0.000 HD
ENDROOT
BRANCH   2   5
ATOM      5  C   UNL     1       6.743   4.528  14.154  0.00  0.00    +0.000 A 
ATOM      6  N   UNL     1       5.891   3.628  13.633  0.00  0.00    +0.000 NA
ATOM      7  O   UNL     1       6.210   3.566  12.282  0.00  0.00    +0.000 OA
ATOM      8  N   UNL     1       7.276   4.395  11.975  0.00  0.00    +0.000 NA
ATOM      9  C   UNL     1       7.605   4.988  13.123  0.00  0.00    +0.000 A 
ATOM     10  N   UNL     1       8.625   5.859  13.254  0.00  0.00    +0.000 N 
ATOM     11  H   UNL     1       9.306   5.938  12.507  0.00  0.00    +0.000 HD
ATOM     12  H   UNL     1       8.969   6.099  14.181  0.00  0.00    +0.000 HD
ENDBRANCH   2   5
BRANCH   1  17
ATOM     13  C   UNL     1       2.116   5.399  20.468  0.00  0.00    +0.000 C 
ATOM     14  C   UNL     1       3.103   5.100  19.378  0.00  0.00    +0.000 A 
ATOM     15  C   UNL     1       3.189   5.899  18.233  0.00  0.00    +0.000 A 
ATOM     16  C   UNL     1       4.088   5.584  17.203  0.00  0.00    +0.000 A 
ATOM     17  C   UNL     1       4.910   4.456  17.285  0.00  0.00    +0.000 A 
ATOM     18  C   UNL     1       4.828   3.671  18.445  0.00  0.00    +0.000 A 
ATOM     19  C   UNL     1       3.935   3.983  19.477  0.00  0.00    +0.000 A 
ENDBRANCH   1  17
BRANCH   3  20
ATOM     20  O   UNL     1       7.564   5.936  17.358  0.00  0.00    +0.000 OA
ATOM     21  H   UNL     1       7.347   6.877  17.485  0.00  0.00    +0.000 HD
ENDBRANCH   3  20
TORSDOF 3
ENDMDL
MODEL 5
REMARK VINA RESULT:      -7.6      2.695      3.642
REMARK  Name = 
REMARK  4 active torsions:
REMARK  status: ('A' for Active; 'I' for Inactive)
REMARK    1  A    between atoms: C_1  and  C_2
REMARK    2  A    between atoms: C_5  and  N_6
REMARK    3  A    between atoms: C_7  and  C_10
REMARK    4  A    between atoms: N_8  and  O_9
REMARK                            x       y       z     vdW  Elec       q    Type
REMARK                         _______ _______ _______ _____ _____    ______ ____
ROOT
ATOM      1  N   UNL     1       4.608   5.768  17.564  0.00  0.00    +0.000 N 
ATOM      2  C   UNL     1       5.923   5.376  17.380  0.00  0.00    +0.000 C 
ATOM      3  N   UNL     1       6.448   4.258  16.973  0.00  0.00    +0.000 NA
ATOM      4  H   UNL     1       4.499   6.767  17.730  0.00  0.00    +0.000 HD
ENDROOT
BRANCH   2   5
ATOM      5  C   UNL     1       6.862   6.478  17.629  0.00  0.00    +0.000 A 
ATOM      6  N   UNL     1       6.917   7.547  16.817  0.00  0.00    +0.000 NA
ATOM      7  O   UNL     1       7.903   8.364  17.358  0.00  0.00    +0.000 OA
ATOM      8  N   UNL     1       8.481   7.786  18.477  0.00  0.00    +0.000 NA
ATOM      9  C   UNL     1       7.842   6.628  18.646  0.00  0.00    +0.000 A 
ATOM     10  N   UNL     1       8.132   5.747  19.624  0.00  0.00    +0.000 N 
ATOM     11  H   UNL     1       8.993   5.855  20.148  0.00  0.00    +0.000 HD
ATOM     12  H   UNL     1       7.777   4.795  19.567  0.00  0.00    +0.000 HD
ENDBRANCH   2   5
BRANCH   1  17
ATOM     13  C   UNL     1       0.565   2.880  20.459  0.00  0.00    +0.000 C 
ATOM     14  C   UNL     1       1.583   3.663  19.681  0.00  0.00    +0.000 A 
ATOM     15  C   UNL     1       1.471   3.831  18.298  0.00  0.00    +0.000 A 
ATOM     16  C   UNL     1       2.452   4.529  17.578  0.00  0.00    +0.000 A 
ATOM     17  C   UNL     1       3.574   5.062  18.220  0.00  0.00    +0.000 A 
ATOM     18  C   UNL     1       3.668   4.901  19.611  0.00  0.00    +0.000 A 
ATOM     19  C   UNL     1       2.690   4.208  20.334  0.00  0.00    +0.000 A 
ENDBRANCH   1  17
BRANCH   3  20
ATOM     20  O   UNL     1       5.474   3.325  16.604  0.00  0.00    +0.000 OA
ATOM     21  H   UNL     1       5.963   2.483  16.616  0.00  0.00    +0.000 HD
ENDBRANCH   3  20
TORSDOF 3
ENDMDL
MODEL 6
REMARK VINA RESULT:      -7.5      1.179      1.592
REMARK  Name = 
REMARK  4 active torsions:
REMARK  status: ('A' for Active; 'I' for Inactive)
REMARK    1  A    between atoms: C_1  and  C_2
REMARK    2  A    between atoms: C_5  and  N_6
REMARK    3  A    between atoms: C_7  and  C_10
REMARK    4  A    between atoms: N_8  and  O_9
REMARK                            x       y       z     vdW  Elec       q    Type
REMARK                         _______ _______ _______ _____ _____    ______ ____
ROOT
ATOM      1  N   UNL     1       5.374   4.625  15.842  0.00  0.00    +0.000 N 
ATOM      2  C   UNL     1       6.753   4.622  15.717  0.00  0.00    +0.000 C 
ATOM      3  N   UNL     1       7.704   4.438  16.585  0.00  0.00    +0.000 NA
ATOM      4  H   UNL     1       4.883   4.628  14.949  0.00  0.00    +0.000 HD
ENDROOT
BRANCH   2   5
ATOM      5  C   UNL     1       7.176   4.787  14.320  0.00  0.00    +0.000 A 
ATOM      6  N   UNL     1       8.049   5.745  13.962  0.00  0.00    +0.000 NA
ATOM      7  O   UNL     1       8.206   5.598  12.589  0.00  0.00    +0.000 OA
ATOM      8  N   UNL     1       7.406   4.581  12.094  0.00  0.00    +0.000 NA
ATOM      9  C   UNL     1       6.774   4.081  13.156  0.00  0.00    +0.000 A 
ATOM     10  N   UNL     1       5.873   3.080  13.090  0.00  0.00    +0.000 N 
ATOM     11  H   UNL     1       5.500   2.808  12.188  0.00  0.00    +0.000 HD
ATOM     12  H   UNL     1       5.263   2.897  13.883  0.00  0.00    +0.000 HD
ENDBRANCH   2   5
BRANCH   1  17
ATOM     13  C   UNL     1       2.050   7.061  19.852  0.00  0.00    +0.000 C 
ATOM     14  C   UNL     1       2.957   6.454  18.822  0.00  0.00    +0.000 A 
ATOM     15  C   UNL     1       3.734   7.251  17.975  0.00  0.00    +0.000 A 
ATOM     16  C   UNL     1       4.546   6.671  16.989  0.00  0.00    +0.000 A 
ATOM     17  C   UNL     1       4.590   5.284  16.817  0.00  0.00    +0.000 A 
ATOM     18  C   UNL     1       3.820   4.493  17.683  0.00  0.00    +0.000 A 
ATOM     19  C   UNL     1       3.011   5.067  18.670  0.00  0.00    +0.000 A 
ENDBRANCH   1  17
BRANCH   3  20
ATOM     20  O   UNL     1       7.203   4.127  17.853  0.00  0.00    +0.000 OA
ATOM     21  H   UNL     1       7.753   4.671  18.444  0.00  0.00    +0.000 HD
ENDBRANCH   3  20
TORSDOF 3
ENDMDL
MODEL 7
REMARK VINA RESULT:      -7.5      2.455      3.688
REMARK  Name = 
REMARK  4 active torsions:
REMARK  status: ('A' for Active; 'I' for Inactive)
REMARK    1  A    between atoms: C_1  and  C_2
REMARK    2  A    between atoms: C_5  and  N_6
REMARK    3  A    between atoms: C_7  and  C_10
REMARK    4  A    between atoms: N_8  and  O_9
REMARK                            x       y       z     vdW  Elec       q    Type
REMARK                         _______ _______ _______ _____ _____    ______ ____
ROOT
ATOM      1  N   UNL     1       4.884   5.606  17.492  0.00  0.00    +0.000 N 
ATOM      2  C   UNL     1       6.217   5.338  17.229  0.00  0.00    +0.000 C 
ATOM      3  N   UNL     1       6.802   4.339  16.639  0.00  0.00    +0.000 NA
ATOM      4  H   UNL     1       4.715   6.556  17.820  0.00  0.00    +0.000 HD
ENDROOT
BRANCH   2   5
ATOM      5  C   UNL     1       7.088   6.447  17.641  0.00  0.00    +0.000 A 
ATOM      6  N   UNL     1       7.217   7.553  16.888  0.00  0.00    +0.000 NA
ATOM      7  O   UNL     1       8.106   8.364  17.584  0.00  0.00    +0.000 OA
ATOM      8  N   UNL     1       8.553   7.748  18.741  0.00  0.00    +0.000 NA
ATOM      9  C   UNL     1       7.929   6.571  18.779  0.00  0.00    +0.000 A 
ATOM     10  N   UNL     1       8.116   5.653  19.748  0.00  0.00    +0.000 N 
ATOM     11  H   UNL     1       8.902   5.754  20.381  0.00  0.00    +0.000 HD
ATOM     12  H   UNL     1       7.795   4.698  19.607  0.00  0.00    +0.000 HD
ENDBRANCH   2   5
BRANCH   1  17
ATOM     13  C   UNL     1       0.739   2.218  19.591  0.00  0.00    +0.000 C 
ATOM     14  C   UNL     1       1.850   3.060  19.037  0.00  0.00    +0.000 A 
ATOM     15  C   UNL     1       3.153   2.970  19.538  0.00  0.00    +0.000 A 
ATOM     16  C   UNL     1       4.173   3.793  19.040  0.00  0.00    +0.000 A 
ATOM     17  C   UNL     1       3.913   4.735  18.039  0.00  0.00    +0.000 A 
ATOM     18  C   UNL     1       2.607   4.805  17.531  0.00  0.00    +0.000 A 
ATOM     19  C   UNL     1       1.587   3.984  18.023  0.00  0.00    +0.000 A 
ENDBRANCH   1  17
BRANCH   3  20
ATOM     20  O   UNL     1       5.881   3.414  16.137  0.00  0.00    +0.000 OA
ATOM     21  H   UNL     1       5.252   3.311  16.873  0.00  0.00    +0.000 HD
ENDBRANCH   3  20
TORSDOF 3
ENDMDL
MODEL 8
REMARK VINA RESULT:      -7.4      3.836      6.545
REMARK  Name = 
REMARK  4 active torsions:
REMARK  status: ('A' for Active; 'I' for Inactive)
REMARK    1  A    between atoms: C_1  and  C_2
REMARK    2  A    between atoms: C_5  and  N_6
REMARK    3  A    between atoms: C_7  and  C_10
REMARK    4  A    between atoms: N_8  and  O_9
REMARK                            x       y       z     vdW  Elec       q    Type
REMARK                         _______ _______ _______ _____ _____    ______ ____
ROOT
ATOM      1  N   UNL     1       5.161   3.935  19.533  0.00  0.00    +0.000 N 
ATOM      2  C   UNL     1       4.090   3.224  19.020  0.00  0.00    +0.000 C 
ATOM      3  N   UNL     1       3.862   2.724  17.842  0.00  0.00    +0.000 NA
ATOM      4  H   UNL     1       5.131   4.047  20.545  0.00  0.00    +0.000 HD
ENDROOT
BRANCH   2   5
ATOM      5  C   UNL     1       3.080   2.939  20.049  0.00  0.00    +0.000 A 
ATOM      6  N   UNL     1       3.433   2.642  21.312  0.00  0.00    +0.000 NA
ATOM      7  O   UNL     1       2.234   2.438  21.984  0.00  0.00    +0.000 OA
ATOM      8  N   UNL     1       1.148   2.571  21.135  0.00  0.00    +0.000 NA
ATOM      9  C   UNL     1       1.665   2.880  19.946  0.00  0.00    +0.000 A 
ATOM     10  N   UNL     1       0.928   3.068  18.833  0.00  0.00    +0.000 N 
ATOM     11  H   UNL     1      -0.044   2.780  18.828  0.00  0.00    +0.000 HD
ATOM     12  H   UNL     1       1.382   3.074  17.923  0.00  0.00    +0.000 HD
ENDBRANCH   2   5
BRANCH   1  17
ATOM     13  C   UNL     1       8.081   8.394  17.374  0.00  0.00    +0.000 C 
ATOM     14  C   UNL     1       7.307   7.216  17.889  0.00  0.00    +0.000 A 
ATOM     15  C   UNL     1       5.997   6.965  17.470  0.00  0.00    +0.000 A 
ATOM     16  C   UNL     1       5.270   5.884  17.991  0.00  0.00    +0.000 A 
ATOM     17  C   UNL     1       5.831   5.038  18.953  0.00  0.00    +0.000 A 
ATOM     18  C   UNL     1       7.152   5.288  19.354  0.00  0.00    +0.000 A 
ATOM     19  C   UNL     1       7.881   6.364  18.835  0.00  0.00    +0.000 A 
ENDBRANCH   1  17
BRANCH   3  20
ATOM     20  O   UNL     1       4.948   2.904  16.978  0.00  0.00    +0.000 OA
ATOM     21  H   UNL     1       4.961   3.868  16.842  0.00  0.00    +0.000 HD
ENDBRANCH   3  20
TORSDOF 3
ENDMDL
MODEL 9
REMARK VINA RESULT:      -7.4      1.940      2.357
REMARK  Name = 
REMARK  4 active torsions:
REMARK  status: ('A' for Active; 'I' for Inactive)
REMARK    1  A    between atoms: C_1  and  C_2
REMARK    2  A    between atoms: C_5  and  N_6
REMARK    3  A    between atoms: C_7  and  C_10
REMARK    4  A    between atoms: N_8  and  O_9
REMARK                            x       y       z     vdW  Elec       q    Type
REMARK                         _______ _______ _______ _____ _____    ______ ____
ROOT
ATOM      1  N   UNL     1       5.727   3.669  18.289  0.00  0.00    +0.000 N 
ATOM      2  C   UNL     1       6.500   4.793  18.051  0.00  0.00    +0.000 C 
ATOM      3  N   UNL     1       7.060   5.649  18.853  0.00  0.00    +0.000 NA
ATOM      4  H   UNL     1       5.571   3.097  17.461  0.00  0.00    +0.000 HD
ENDROOT
BRANCH   2   5
ATOM      5  C   UNL     1       6.775   4.973  16.619  0.00  0.00    +0.000 A 
ATOM      6  N   UNL     1       7.813   4.362  16.024  0.00  0.00    +0.000 NA
ATOM      7  O   UNL     1       7.757   4.761  14.694  0.00  0.00    +0.000 OA
ATOM      8  N   UNL     1       6.712   5.644  14.475  0.00  0.00    +0.000 NA
ATOM      9  C   UNL     1       6.107   5.775  15.656  0.00  0.00    +0.000 A 
ATOM     10  N   UNL     1       5.046   6.579  15.871  0.00  0.00    +0.000 N 
ATOM     11  H   UNL     1       4.799   7.269  15.171  0.00  0.00    +0.000 HD
ATOM     12  H   UNL     1       4.774   6.812  16.823  0.00  0.00    +0.000 HD
ENDBRANCH   2   5
BRANCH   1  17
ATOM     13  C   UNL     1       1.325   2.875  21.903  0.00  0.00    +0.000 C 
ATOM     14  C   UNL     1       2.481   3.130  20.980  0.00  0.00    +0.000 A 
ATOM     15  C   UNL     1       2.549   4.288  20.200  0.00  0.00    +0.000 A 
ATOM     16  C   UNL     1       3.614   4.494  19.311  0.00  0.00    +0.000 A 
ATOM     17  C   UNL     1       4.627   3.540  19.170  0.00  0.00    +0.000 A 
ATOM     18  C   UNL     1       4.558   2.390  19.969  0.00  0.00    +0.000 A 
ATOM     19  C   UNL     1       3.499   2.182  20.860  0.00  0.00    +0.000 A 
ENDBRANCH   1  17
BRANCH   3  20
ATOM     20  O   UNL     1       6.880   5.303  20.196  0.00  0.00    +0.000 OA
ATOM     21  H   UNL     1       7.604   5.778  20.643  0.00  0.00    +0.000 HD
ENDBRANCH   3  20
TORSDOF 3
ENDMDL
