MODEL 1
REMARK VINA RESULT:      -6.7      0.000      0.000
REMARK  Name = 
REMARK  2 active torsions:
REMARK  status: ('A' for Active; 'I' for Inactive)
REMARK    1  A    between atoms: C_1  and  C_2
REMARK    2  A    between atoms: C_5  and  N_6
REMARK                            x       y       z     vdW  Elec       q    Type
REMARK                         _______ _______ _______ _____ _____    ______ ____
ROOT
ATOM      1  N   UNL     1       5.028   4.486  16.698  0.00  0.00    +0.000 N 
ATOM      2  C   UNL     1       5.890   5.549  16.643  0.00  0.00    +0.000 C 
ATOM      3  O   UNL     1       6.071   6.385  17.525  0.00  0.00    +0.000 OA
ATOM      4  N   UNL     1       6.669   5.621  15.512  0.00  0.00    +0.000 N 
ATOM      5  C   UNL     1       6.539   4.881  14.356  0.00  0.00    +0.000 A 
ATOM      6  C   UNL     1       7.454   4.888  13.280  0.00  0.00    +0.000 A 
ATOM      7  C   UNL     1       6.920   4.015  12.368  0.00  0.00    +0.000 A 
ATOM      8  O   UNL     1       5.755   3.520  12.847  0.00  0.00    +0.000 OA
ATOM      9  N   UNL     1       5.524   4.043  14.099  0.00  0.00    +0.000 NA
ATOM     10  H   UNL     1       5.112   3.831  15.931  0.00  0.00    +0.000 HD
ATOM     11  H   UNL     1       7.392   6.320  15.555  0.00  0.00    +0.000 HD
ENDROOT
BRANCH   1  16
ATOM     12  C   UNL     1       1.134   3.192  20.661  0.00  0.00    +0.000 C 
ATOM     13  C   UNL     1       2.175   3.528  19.635  0.00  0.00    +0.000 A 
ATOM     14  C   UNL     1       3.520   3.203  19.849  0.00  0.00    +0.000 A 
ATOM     15  C   UNL     1       4.486   3.499  18.884  0.00  0.00    +0.000 A 
ATOM     16  C   UNL     1       4.118   4.141  17.704  0.00  0.00    +0.000 A 
ATOM     17  C   UNL     1       2.779   4.489  17.499  0.00  0.00    +0.000 A 
ATOM     18  C   UNL     1       1.810   4.173  18.452  0.00  0.00    +0.000 A 
ENDBRANCH   1  16
TORSDOF 1
ENDMDL
MODEL 2
REMARK VINA RESULT:      -6.7      0.401      1.172
REMARK  Name = 
REMARK  2 active torsions:
REMARK  status: ('A' for Active; 'I' for Inactive)
REMARK    1  A    between atoms: C_1  and  C_2
REMARK    2  A    between atoms: C_5  and  N_6
REMARK                            x       y       z     vdW  Elec       q    Type
REMARK                         _______ _______ _______ _____ _____    ______ ____
ROOT
ATOM      1  N   UNL     1       4.873   4.537  16.531  0.00  0.00    +0.000 N 
ATOM      2  C   UNL     1       5.767   5.574  16.504  0.00  0.00    +0.000 C 
ATOM      3  O   UNL     1       5.934   6.415  17.384  0.00  0.00    +0.000 OA
ATOM      4  N   UNL     1       6.595   5.612  15.407  0.00  0.00    +0.000 N 
ATOM      5  C   UNL     1       6.493   4.863  14.253  0.00  0.00    +0.000 A 
ATOM      6  C   UNL     1       7.454   4.833  13.217  0.00  0.00    +0.000 A 
ATOM      7  C   UNL     1       6.933   3.965  12.291  0.00  0.00    +0.000 A 
ATOM      8  O   UNL     1       5.735   3.509  12.725  0.00  0.00    +0.000 OA
ATOM      9  N   UNL     1       5.466   4.052  13.961  0.00  0.00    +0.000 NA
ATOM     10  H   UNL     1       4.970   3.871  15.775  0.00  0.00    +0.000 HD
ATOM     11  H   UNL     1       7.336   6.291  15.474  0.00  0.00    +0.000 HD
ENDROOT
BRANCH   1  16
ATOM     12  C   UNL     1       1.082   3.062  20.532  0.00  0.00    +0.000 C 
ATOM     13  C   UNL     1       2.063   3.466  19.471  0.00  0.00    +0.000 A 
ATOM     14  C   UNL     1       1.867   4.632  18.723  0.00  0.00    +0.000 A 
ATOM     15  C   UNL     1       2.791   5.017  17.748  0.00  0.00    +0.000 A 
ATOM     16  C   UNL     1       3.911   4.229  17.501  0.00  0.00    +0.000 A 
ATOM     17  C   UNL     1       4.098   3.050  18.230  0.00  0.00    +0.000 A 
ATOM     18  C   UNL     1       3.187   2.676  19.220  0.00  0.00    +0.000 A 
ENDBRANCH   1  16
TORSDOF 1
ENDMDL
MODEL 3
REMARK VINA RESULT:      -6.5      1.273      1.695
REMARK  Name = 
REMARK  2 active torsions:
REMARK  status: ('A' for Active; 'I' for Inactive)
REMARK    1  A    between atoms: C_1  and  C_2
REMARK    2  A    between atoms: C_5  and  N_6
REMARK                            x       y       z     vdW  Elec       q    Type
REMARK                         _______ _______ _______ _____ _____    ______ ____
ROOT
ATOM      1  N   UNL     1       5.543   4.882  16.216  0.00  0.00    +0.000 N 
ATOM      2  C   UNL     1       6.719   5.527  15.938  0.00  0.00    +0.000 C 
ATOM      3  O   UNL     1       7.322   6.294  16.684  0.00  0.00    +0.000 OA
ATOM      4  N   UNL     1       7.297   5.208  14.732  0.00  0.00    +0.000 N 
ATOM      5  C   UNL     1       6.737   4.489  13.697  0.00  0.00    +0.000 A 
ATOM      6  C   UNL     1       7.424   4.063  12.539  0.00  0.00    +0.000 A 
ATOM      7  C   UNL     1       6.478   3.394  11.804  0.00  0.00    +0.000 A 
ATOM      8  O   UNL     1       5.296   3.421  12.461  0.00  0.00    +0.000 OA
ATOM      9  N   UNL     1       5.458   4.087  13.656  0.00  0.00    +0.000 NA
ATOM     10  H   UNL     1       5.267   4.188  15.533  0.00  0.00    +0.000 HD
ATOM     11  H   UNL     1       8.226   5.578  14.610  0.00  0.00    +0.000 HD
ENDROOT
BRANCH   1  16
ATOM     12  C   UNL     1       2.271   5.075  20.885  0.00  0.00    +0.000 C 
ATOM     13  C   UNL     1       3.120   5.044  19.649  0.00  0.00    +0.000 A 
ATOM     14  C   UNL     1       3.175   6.149  18.792  0.00  0.00    +0.000 A 
ATOM     15  C   UNL     1       3.981   6.125  17.651  0.00  0.00    +0.000 A 
ATOM     16  C   UNL     1       4.726   4.989  17.348  0.00  0.00    +0.000 A 
ATOM     17  C   UNL     1       4.654   3.874  18.189  0.00  0.00    +0.000 A 
ATOM     18  C   UNL     1       3.867   3.904  19.341  0.00  0.00    +0.000 A 
ENDBRANCH   1  16
TORSDOF 1
ENDMDL
MODEL 4
REMARK VINA RESULT:      -6.5      3.467      4.217
REMARK  Name = 
REMARK  2 active torsions:
REMARK  status: ('A' for Active; 'I' for Inactive)
REMARK    1  A    between atoms: C_1  and  C_2
REMARK    2  A    between atoms: C_5  and  N_6
REMARK                            x       y       z     vdW  Elec       q    Type
REMARK                         _______ _______ _______ _____ _____    ______ ____
ROOT
ATOM      1  N   UNL     1       3.273   6.224  17.796  0.00  0.00    +0.000 N 
ATOM      2  C   UNL     1       3.080   4.868  17.759  0.00  0.00    +0.000 C 
ATOM      3  O   UNL     1       2.170   4.247  18.303  0.00  0.00    +0.000 OA
ATOM      4  N   UNL     1       3.961   4.168  16.968  0.00  0.00    +0.000 N 
ATOM      5  C   UNL     1       5.120   4.635  16.387  0.00  0.00    +0.000 A 
ATOM      6  C   UNL     1       5.912   3.917  15.463  0.00  0.00    +0.000 A 
ATOM      7  C   UNL     1       6.947   4.767  15.164  0.00  0.00    +0.000 A 
ATOM      8  O   UNL     1       6.803   5.916  15.864  0.00  0.00    +0.000 OA
ATOM      9  N   UNL     1       5.651   5.846  16.614  0.00  0.00    +0.000 NA
ATOM     10  H   UNL     1       3.999   6.568  17.180  0.00  0.00    +0.000 HD
ATOM     11  H   UNL     1       3.716   3.199  16.839  0.00  0.00    +0.000 HD
ENDROOT
BRANCH   1  16
ATOM     12  C   UNL     1       0.327  10.333  20.440  0.00  0.00    +0.000 C 
ATOM     13  C   UNL     1       1.107   9.243  19.767  0.00  0.00    +0.000 A 
ATOM     14  C   UNL     1       1.533   8.119  20.485  0.00  0.00    +0.000 A 
ATOM     15  C   UNL     1       2.244   7.097  19.852  0.00  0.00    +0.000 A 
ATOM     16  C   UNL     1       2.551   7.197  18.498  0.00  0.00    +0.000 A 
ATOM     17  C   UNL     1       2.148   8.330  17.783  0.00  0.00    +0.000 A 
ATOM     18  C   UNL     1       1.419   9.342  18.409  0.00  0.00    +0.000 A 
ENDBRANCH   1  16
TORSDOF 1
ENDMDL
MODEL 5
REMARK VINA RESULT:      -6.5      3.504      4.383
REMARK  Name = 
REMARK  2 active torsions:
REMARK  status: ('A' for Active; 'I' for Inactive)
REMARK    1  A    between atoms: C_1  and  C_2
REMARK    2  A    between atoms: C_5  and  N_6
REMARK                            x       y       z     vdW  Elec       q    Type
REMARK                         _______ _______ _______ _____ _____    ______ ____
ROOT
ATOM      1  N   UNL     1       3.250   6.325  17.788  0.00  0.00    +0.000 N 
ATOM      2  C   UNL     1       3.030   4.974  17.757  0.00  0.00    +0.000 C 
ATOM      3  O   UNL     1       2.086   4.378  18.272  0.00  0.00    +0.000 OA
ATOM      4  N   UNL     1       3.924   4.246  17.007  0.00  0.00    +0.000 N 
ATOM      5  C   UNL     1       5.115   4.682  16.466  0.00  0.00    +0.000 A 
ATOM      6  C   UNL     1       5.925   3.937  15.580  0.00  0.00    +0.000 A 
ATOM      7  C   UNL     1       6.989   4.761  15.312  0.00  0.00    +0.000 A 
ATOM      8  O   UNL     1       6.844   5.921  15.995  0.00  0.00    +0.000 OA
ATOM      9  N   UNL     1       5.662   5.884  16.701  0.00  0.00    +0.000 NA
ATOM     10  H   UNL     1       4.006   6.647  17.197  0.00  0.00    +0.000 HD
ATOM     11  H   UNL     1       3.663   3.282  16.878  0.00  0.00    +0.000 HD
ENDROOT
BRANCH   1  16
ATOM     12  C   UNL     1       0.303  10.241  20.708  0.00  0.00    +0.000 C 
ATOM     13  C   UNL     1       1.071   9.222  19.920  0.00  0.00    +0.000 A 
ATOM     14  C   UNL     1       1.302   9.402  18.551  0.00  0.00    +0.000 A 
ATOM     15  C   UNL     1       2.033   8.461  17.822  0.00  0.00    +0.000 A 
ATOM     16  C   UNL     1       2.524   7.321  18.452  0.00  0.00    +0.000 A 
ATOM     17  C   UNL     1       2.274   7.126  19.814  0.00  0.00    +0.000 A 
ATOM     18  C   UNL     1       1.563   8.076  20.549  0.00  0.00    +0.000 A 
ENDBRANCH   1  16
TORSDOF 1
ENDMDL
MODEL 6
REMARK VINA RESULT:      -6.5      4.009      6.957
REMARK  Name = 
REMARK  2 active torsions:
REMARK  status: ('A' for Active; 'I' for Inactive)
REMARK    1  A    between atoms: C_1  and  C_2
REMARK    2  A    between atoms: C_5  and  N_6
REMARK                            x       y       z     vdW  Elec       q    Type
REMARK                         _______ _______ _______ _____ _____    ______ ____
ROOT
ATOM      1  N   UNL     1       3.069   6.467  18.888  0.00  0.00    +0.000 N 
ATOM      2  C   UNL     1       2.558   5.881  20.015  0.00  0.00    +0.000 C 
ATOM      3  O   UNL     1       2.704   4.709  20.356  0.00  0.00    +0.000 OA
ATOM      4  N   UNL     1       1.885   6.724  20.867  0.00  0.00    +0.000 N 
ATOM      5  C   UNL     1       1.491   8.024  20.623  0.00  0.00    +0.000 A 
ATOM      6  C   UNL     1       0.934   8.897  21.584  0.00  0.00    +0.000 A 
ATOM      7  C   UNL     1       0.703  10.061  20.896  0.00  0.00    +0.000 A 
ATOM      8  O   UNL     1       1.081   9.905  19.606  0.00  0.00    +0.000 OA
ATOM      9  N   UNL     1       1.594   8.639  19.436  0.00  0.00    +0.000 NA
ATOM     10  H   UNL     1       2.956   7.472  18.842  0.00  0.00    +0.000 HD
ATOM     11  H   UNL     1       1.645   6.309  21.753  0.00  0.00    +0.000 HD
ENDROOT
BRANCH   1  16
ATOM     12  C   UNL     1       6.110   4.322  14.563  0.00  0.00    +0.000 C 
ATOM     13  C   UNL     1       5.298   4.865  15.701  0.00  0.00    +0.000 A 
ATOM     14  C   UNL     1       4.506   4.016  16.484  0.00  0.00    +0.000 A 
ATOM     15  C   UNL     1       3.766   4.521  17.556  0.00  0.00    +0.000 A 
ATOM     16  C   UNL     1       3.795   5.883  17.843  0.00  0.00    +0.000 A 
ATOM     17  C   UNL     1       4.566   6.737  17.048  0.00  0.00    +0.000 A 
ATOM     18  C   UNL     1       5.324   6.231  15.991  0.00  0.00    +0.000 A 
ENDBRANCH   1  16
TORSDOF 1
ENDMDL
MODEL 7
REMARK VINA RESULT:      -6.4      3.900      6.905
REMARK  Name = 
REMARK  2 active torsions:
REMARK  status: ('A' for Active; 'I' for Inactive)
REMARK    1  A    between atoms: C_1  and  C_2
REMARK    2  A    between atoms: C_5  and  N_6
REMARK                            x       y       z     vdW  Elec       q    Type
REMARK                         _______ _______ _______ _____ _____    ______ ____
ROOT
ATOM      1  N   UNL     1       3.208   6.427  18.784  0.00  0.00    +0.000 N 
ATOM      2  C   UNL     1       2.756   5.799  19.914  0.00  0.00    +0.000 C 
ATOM      3  O   UNL     1       2.972   4.633  20.234  0.00  0.00    +0.000 OA
ATOM      4  N   UNL     1       2.060   6.594  20.794  0.00  0.00    +0.000 N 
ATOM      5  C   UNL     1       1.592   7.874  20.578  0.00  0.00    +0.000 A 
ATOM      6  C   UNL     1       1.011   8.703  21.563  0.00  0.00    +0.000 A 
ATOM      7  C   UNL     1       0.702   9.862  20.898  0.00  0.00    +0.000 A 
ATOM      8  O   UNL     1       1.057   9.743  19.598  0.00  0.00    +0.000 OA
ATOM      9  N   UNL     1       1.633   8.509  19.398  0.00  0.00    +0.000 NA
ATOM     10  H   UNL     1       3.040   7.425  18.755  0.00  0.00    +0.000 HD
ATOM     11  H   UNL     1       1.863   6.155  21.678  0.00  0.00    +0.000 HD
ENDROOT
BRANCH   1  16
ATOM     12  C   UNL     1       6.103   4.031  14.492  0.00  0.00    +0.000 C 
ATOM     13  C   UNL     1       5.355   4.681  15.617  0.00  0.00    +0.000 A 
ATOM     14  C   UNL     1       5.463   6.058  15.846  0.00  0.00    +0.000 A 
ATOM     15  C   UNL     1       4.750   6.664  16.884  0.00  0.00    +0.000 A 
ATOM     16  C   UNL     1       3.939   5.896  17.714  0.00  0.00    +0.000 A 
ATOM     17  C   UNL     1       3.849   4.516  17.503  0.00  0.00    +0.000 A 
ATOM     18  C   UNL     1       4.542   3.912  16.453  0.00  0.00    +0.000 A 
ENDBRANCH   1  16
TORSDOF 1
ENDMDL
MODEL 8
REMARK VINA RESULT:      -6.3      0.891      1.441
REMARK  Name = 
REMARK  2 active torsions:
REMARK  status: ('A' for Active; 'I' for Inactive)
REMARK    1  A    between atoms: C_1  and  C_2
REMARK    2  A    between atoms: C_5  and  N_6
REMARK                            x       y       z     vdW  Elec       q    Type
REMARK                         _______ _______ _______ _____ _____    ______ ____
ROOT
ATOM      1  N   UNL     1       5.153   4.388  17.433  0.00  0.00    +0.000 N 
ATOM      2  C   UNL     1       6.212   5.255  17.471  0.00  0.00    +0.000 C 
ATOM      3  O   UNL     1       6.596   5.893  18.448  0.00  0.00    +0.000 OA
ATOM      4  N   UNL     1       6.945   5.345  16.310  0.00  0.00    +0.000 N 
ATOM      5  C   UNL     1       6.619   4.832  15.071  0.00  0.00    +0.000 A 
ATOM      6  C   UNL     1       7.474   4.824  13.947  0.00  0.00    +0.000 A 
ATOM      7  C   UNL     1       6.735   4.225  12.958  0.00  0.00    +0.000 A 
ATOM      8  O   UNL     1       5.513   3.902  13.442  0.00  0.00    +0.000 OA
ATOM      9  N   UNL     1       5.444   4.261  14.769  0.00  0.00    +0.000 NA
ATOM     10  H   UNL     1       5.069   3.855  16.576  0.00  0.00    +0.000 HD
ATOM     11  H   UNL     1       7.797   5.872  16.402  0.00  0.00    +0.000 HD
ENDROOT
BRANCH   1  16
ATOM     12  C   UNL     1       1.542   2.923  21.600  0.00  0.00    +0.000 C 
ATOM     13  C   UNL     1       2.474   3.323  20.495  0.00  0.00    +0.000 A 
ATOM     14  C   UNL     1       2.182   4.417  19.674  0.00  0.00    +0.000 A 
ATOM     15  C   UNL     1       3.061   4.800  18.657  0.00  0.00    +0.000 A 
ATOM     16  C   UNL     1       4.231   4.078  18.440  0.00  0.00    +0.000 A 
ATOM     17  C   UNL     1       4.514   2.969  19.243  0.00  0.00    +0.000 A 
ATOM     18  C   UNL     1       3.649   2.599  20.274  0.00  0.00    +0.000 A 
ENDBRANCH   1  16
TORSDOF 1
ENDMDL
MODEL 9
REMARK VINA RESULT:      -6.3      1.359      1.406
REMARK  Name = 
REMARK  2 active torsions:
REMARK  status: ('A' for Active; 'I' for Inactive)
REMARK    1  A    between atoms: C_1  and  C_2
REMARK    2  A    between atoms: C_5  and  N_6
REMARK                            x       y       z     vdW  Elec       q    Type
REMARK                         _______ _______ _______ _____ _____    ______ ____
ROOT
ATOM      1  N   UNL     1       5.205   3.924  17.617  0.00  0.00    +0.000 N 
ATOM      2  C   UNL     1       6.424   4.536  17.740  0.00  0.00    +0.000 C 
ATOM      3  O   UNL     1       6.961   4.884  18.789  0.00  0.00    +0.000 OA
ATOM      4  N   UNL     1       7.125   4.698  16.568  0.00  0.00    +0.000 N 
ATOM      5  C   UNL     1       6.664   4.510  15.282  0.00  0.00    +0.000 A 
ATOM      6  C   UNL     1       7.465   4.546  14.119  0.00  0.00    +0.000 A 
ATOM      7  C   UNL     1       6.588   4.309  13.091  0.00  0.00    +0.000 A 
ATOM      8  O   UNL     1       5.340   4.152  13.590  0.00  0.00    +0.000 OA
ATOM      9  N   UNL     1       5.387   4.256  14.962  0.00  0.00    +0.000 NA
ATOM     10  H   UNL     1       4.987   3.594  16.686  0.00  0.00    +0.000 HD
ATOM     11  H   UNL     1       8.072   5.015  16.696  0.00  0.00    +0.000 HD
ENDROOT
BRANCH   1  16
ATOM     12  C   UNL     1       1.389   2.929  21.740  0.00  0.00    +0.000 C 
ATOM     13  C   UNL     1       2.396   3.167  20.654  0.00  0.00    +0.000 A 
ATOM     14  C   UNL     1       2.893   2.102  19.894  0.00  0.00    +0.000 A 
ATOM     15  C   UNL     1       3.817   2.328  18.871  0.00  0.00    +0.000 A 
ATOM     16  C   UNL     1       4.268   3.619  18.612  0.00  0.00    +0.000 A 
ATOM     17  C   UNL     1       3.793   4.682  19.387  0.00  0.00    +0.000 A 
ATOM     18  C   UNL     1       2.852   4.461  20.394  0.00  0.00    +0.000 A 
ENDBRANCH   1  16
TORSDOF 1
ENDMDL
