MODEL 1
REMARK VINA RESULT:      -7.9      0.000      0.000
REMARK  Name = 
REMARK  10 active torsions:
REMARK  status: ('A' for Active; 'I' for Inactive)
REMARK    1  A    between atoms: C_1  and  C_2
REMARK    2  A    between atoms: C_2  and  C_3
REMARK    3  A    between atoms: C_3  and  N_4
REMARK    4  A    between atoms: C_5  and  C_7
REMARK    5  A    between atoms: C_7  and  O_8
REMARK    6  A    between atoms: O_8  and  C_9
REMARK    7  A    between atoms: C_9  and  C_11
REMARK    8  A    between atoms: C_16  and  C_17
REMARK    9  A    between atoms: N_19  and  C_20
REMARK   10  A    between atoms: N_19  and  C_21
REMARK                            x       y       z     vdW  Elec       q    Type
REMARK                         _______ _______ _______ _____ _____    ______ ____
ROOT
ATOM      1  C   UNL     1       4.179   6.940  17.502  0.00  0.00    +0.000 A 
ATOM      2  C   UNL     1       3.462   8.097  17.109  0.00  0.00    +0.000 A 
ATOM      3  C   UNL     1       2.411   8.599  17.881  0.00  0.00    +0.000 A 
ATOM      4  C   UNL     1       2.066   7.966  19.060  0.00  0.00    +0.000 A 
ATOM      5  C   UNL     1       2.770   6.827  19.462  0.00  0.00    +0.000 A 
ATOM      6  C   UNL     1       3.836   6.297  18.696  0.00  0.00    +0.000 A 
ENDROOT
BRANCH   6   7
ATOM      7  C   UNL     1       4.350   5.011  19.214  0.00  0.00    +0.000 C 
ATOM      8  O   UNL     1       5.175   5.151  20.130  0.00  0.00    +0.000 OA
ATOM      9  N   UNL     1       4.067   3.732  18.696  0.00  0.00    +0.000 N 
ATOM     10  C   UNL     1       4.702   2.677  19.496  0.00  0.00    +0.000 C 
BRANCH   9  11
ATOM     11  C   UNL     1       3.011   3.367  17.704  0.00  0.00    +0.000 C 
ATOM     12  C   UNL     1       2.591   1.886  17.753  0.00  0.00    +0.000 C 
ATOM     13  C   UNL     1       1.877   1.546  19.057  0.00  0.00    +0.000 C 
ATOM     14  C   UNL     1       0.617   2.385  19.226  0.00  0.00    +0.000 C 
ATOM     15  C   UNL     1       0.894   3.876  19.069  0.00  0.00    +0.000 C 
ATOM     16  C   UNL     1       1.698   4.188  17.800  0.00  0.00    +0.000 C 
ENDBRANCH   9  11
ENDBRANCH   6   7
BRANCH   1  17
ATOM     17  C   UNL     1       5.293   6.608  16.608  0.00  0.00    +0.000 C 
ATOM     18  O   UNL     1       6.244   7.367  16.482  0.00  0.00    +0.000 OA
BRANCH  17  19
ATOM     19  O   UNL     1       5.081   5.469  15.905  0.00  0.00    +0.000 OA
BRANCH  19  20
ATOM     20  C   UNL     1       6.248   4.623  15.794  0.00  0.00    +0.000 C 
BRANCH  20  22
ATOM     21  N   UNL     1       6.205   3.589  13.594  0.00  0.00    +0.000 N 
ATOM     22  C   UNL     1       6.768   4.597  14.362  0.00  0.00    +0.000 C 
ATOM     23  O   UNL     1       7.624   5.369  13.940  0.00  0.00    +0.000 OA
ATOM     24  H   UNL     1       5.529   2.982  14.041  0.00  0.00    +0.000 HD
BRANCH  21  25
ATOM     25  C   UNL     1       6.502   3.401  12.190  0.00  0.00    +0.000 C 
BRANCH  25  27
ATOM     26  C   UNL     1       6.335   1.086  11.148  0.00  0.00    +0.000 C 
ATOM     27  C   UNL     1       5.605   2.372  11.507  0.00  0.00    +0.000 C 
ENDBRANCH  25  27
ENDBRANCH  21  25
ENDBRANCH  20  22
ENDBRANCH  19  20
ENDBRANCH  17  19
ENDBRANCH   1  17
TORSDOF 8
ENDMDL
MODEL 2
REMARK VINA RESULT:      -7.6      1.869      2.942
REMARK  Name = 
REMARK  10 active torsions:
REMARK  status: ('A' for Active; 'I' for Inactive)
REMARK    1  A    between atoms: C_1  and  C_2
REMARK    2  A    between atoms: C_2  and  C_3
REMARK    3  A    between atoms: C_3  and  N_4
REMARK    4  A    between atoms: C_5  and  C_7
REMARK    5  A    between atoms: C_7  and  O_8
REMARK    6  A    between atoms: O_8  and  C_9
REMARK    7  A    between atoms: C_9  and  C_11
REMARK    8  A    between atoms: C_16  and  C_17
REMARK    9  A    between atoms: N_19  and  C_20
REMARK   10  A    between atoms: N_19  and  C_21
REMARK                            x       y       z     vdW  Elec       q    Type
REMARK                         _______ _______ _______ _____ _____    ______ ____
ROOT
ATOM      1  C   UNL     1       5.966   5.737  16.877  0.00  0.00    +0.000 A 
ATOM      2  C   UNL     1       7.361   5.716  17.117  0.00  0.00    +0.000 A 
ATOM      3  C   UNL     1       7.876   5.612  18.412  0.00  0.00    +0.000 A 
ATOM      4  C   UNL     1       7.010   5.514  19.486  0.00  0.00    +0.000 A 
ATOM      5  C   UNL     1       5.630   5.526  19.261  0.00  0.00    +0.000 A 
ATOM      6  C   UNL     1       5.085   5.635  17.959  0.00  0.00    +0.000 A 
ENDROOT
BRANCH   6   7
ATOM      7  C   UNL     1       3.613   5.779  17.947  0.00  0.00    +0.000 C 
ATOM      8  O   UNL     1       3.240   6.935  17.695  0.00  0.00    +0.000 OA
ATOM      9  N   UNL     1       2.677   4.783  18.288  0.00  0.00    +0.000 N 
ATOM     10  C   UNL     1       1.299   5.258  18.105  0.00  0.00    +0.000 C 
BRANCH   9  11
ATOM     11  C   UNL     1       2.932   3.323  18.479  0.00  0.00    +0.000 C 
ATOM     12  C   UNL     1       3.611   2.975  19.816  0.00  0.00    +0.000 C 
ATOM     13  C   UNL     1       2.694   3.253  21.002  0.00  0.00    +0.000 C 
ATOM     14  C   UNL     1       1.415   2.431  20.910  0.00  0.00    +0.000 C 
ATOM     15  C   UNL     1       0.718   2.600  19.565  0.00  0.00    +0.000 C 
ATOM     16  C   UNL     1       1.679   2.412  18.384  0.00  0.00    +0.000 C 
ENDBRANCH   9  11
ENDBRANCH   6   7
BRANCH   1  17
ATOM     17  C   UNL     1       5.615   5.775  15.454  0.00  0.00    +0.000 C 
ATOM     18  O   UNL     1       5.245   6.814  14.926  0.00  0.00    +0.000 OA
BRANCH  17  19
ATOM     19  O   UNL     1       5.651   4.552  14.870  0.00  0.00    +0.000 OA
BRANCH  19  20
ATOM     20  C   UNL     1       6.855   4.299  14.111  0.00  0.00    +0.000 C 
BRANCH  20  22
ATOM     21  N   UNL     1       5.317   3.250  12.548  0.00  0.00    +0.000 N 
ATOM     22  C   UNL     1       6.523   3.924  12.673  0.00  0.00    +0.000 C 
ATOM     23  O   UNL     1       7.264   4.162  11.723  0.00  0.00    +0.000 OA
ATOM     24  H   UNL     1       4.790   3.072  13.395  0.00  0.00    +0.000 HD
BRANCH  21  25
ATOM     25  C   UNL     1       4.765   2.840  11.275  0.00  0.00    +0.000 C 
BRANCH  25  27
ATOM     26  C   UNL     1       3.142   4.059   9.741  0.00  0.00    +0.000 C 
ATOM     27  C   UNL     1       3.329   3.308  11.051  0.00  0.00    +0.000 C 
ENDBRANCH  25  27
ENDBRANCH  21  25
ENDBRANCH  20  22
ENDBRANCH  19  20
ENDBRANCH  17  19
ENDBRANCH   1  17
TORSDOF 8
ENDMDL
MODEL 3
REMARK VINA RESULT:      -7.4      3.695      6.028
REMARK  Name = 
REMARK  10 active torsions:
REMARK  status: ('A' for Active; 'I' for Inactive)
REMARK    1  A    between atoms: C_1  and  C_2
REMARK    2  A    between atoms: C_2  and  C_3
REMARK    3  A    between atoms: C_3  and  N_4
REMARK    4  A    between atoms: C_5  and  C_7
REMARK    5  A    between atoms: C_7  and  O_8
REMARK    6  A    between atoms: O_8  and  C_9
REMARK    7  A    between atoms: C_9  and  C_11
REMARK    8  A    between atoms: C_16  and  C_17
REMARK    9  A    between atoms: N_19  and  C_20
REMARK   10  A    between atoms: N_19  and  C_21
REMARK                            x       y       z     vdW  Elec       q    Type
REMARK                         _______ _______ _______ _____ _____    ______ ____
ROOT
ATOM      1  C   UNL     1       6.673   5.308  16.778  0.00  0.00    +0.000 A 
ATOM      2  C   UNL     1       7.423   4.761  15.709  0.00  0.00    +0.000 A 
ATOM      3  C   UNL     1       6.800   4.245  14.570  0.00  0.00    +0.000 A 
ATOM      4  C   UNL     1       5.420   4.278  14.473  0.00  0.00    +0.000 A 
ATOM      5  C   UNL     1       4.669   4.821  15.519  0.00  0.00    +0.000 A 
ATOM      6  C   UNL     1       5.277   5.346  16.683  0.00  0.00    +0.000 A 
ENDROOT
BRANCH   6   7
ATOM      7  C   UNL     1       4.308   5.736  17.730  0.00  0.00    +0.000 C 
ATOM      8  O   UNL     1       3.922   6.909  17.622  0.00  0.00    +0.000 OA
ATOM      9  N   UNL     1       3.907   4.949  18.828  0.00  0.00    +0.000 N 
ATOM     10  C   UNL     1       2.884   5.632  19.631  0.00  0.00    +0.000 C 
BRANCH   9  11
ATOM     11  C   UNL     1       4.156   3.491  19.040  0.00  0.00    +0.000 C 
ATOM     12  C   UNL     1       3.493   2.921  20.308  0.00  0.00    +0.000 C 
ATOM     13  C   UNL     1       1.973   2.929  20.201  0.00  0.00    +0.000 C 
ATOM     14  C   UNL     1       1.502   2.090  19.021  0.00  0.00    +0.000 C 
ATOM     15  C   UNL     1       2.193   2.485  17.721  0.00  0.00    +0.000 C 
ATOM     16  C   UNL     1       3.718   2.566  17.874  0.00  0.00    +0.000 C 
ENDBRANCH   9  11
ENDBRANCH   6   7
BRANCH   1  17
ATOM     17  C   UNL     1       7.501   5.867  17.851  0.00  0.00    +0.000 C 
ATOM     18  O   UNL     1       7.745   5.219  18.859  0.00  0.00    +0.000 OA
BRANCH  17  19
ATOM     19  O   UNL     1       7.843   7.160  17.632  0.00  0.00    +0.000 OA
BRANCH  19  20
ATOM     20  C   UNL     1       8.502   7.791  18.753  0.00  0.00    +0.000 C 
BRANCH  20  22
ATOM     21  N   UNL     1       9.359   9.935  19.513  0.00  0.00    +0.000 N 
ATOM     22  C   UNL     1       8.567   9.302  18.567  0.00  0.00    +0.000 C 
ATOM     23  O   UNL     1       7.952   9.903  17.691  0.00  0.00    +0.000 OA
ATOM     24  H   UNL     1       9.802   9.357  20.217  0.00  0.00    +0.000 HD
BRANCH  21  25
ATOM     25  C   UNL     1       9.616  11.360  19.508  0.00  0.00    +0.000 C 
BRANCH  25  27
ATOM     26  C   UNL     1      12.145  11.624  19.414  0.00  0.00    +0.000 C 
ATOM     27  C   UNL     1      10.826  11.761  18.667  0.00  0.00    +0.000 C 
ENDBRANCH  25  27
ENDBRANCH  21  25
ENDBRANCH  20  22
ENDBRANCH  19  20
ENDBRANCH  17  19
ENDBRANCH   1  17
TORSDOF 8
ENDMDL
MODEL 4
REMARK VINA RESULT:      -7.4      3.428      5.946
REMARK  Name = 
REMARK  10 active torsions:
REMARK  status: ('A' for Active; 'I' for Inactive)
REMARK    1  A    between atoms: C_1  and  C_2
REMARK    2  A    between atoms: C_2  and  C_3
REMARK    3  A    between atoms: C_3  and  N_4
REMARK    4  A    between atoms: C_5  and  C_7
REMARK    5  A    between atoms: C_7  and  O_8
REMARK    6  A    between atoms: O_8  and  C_9
REMARK    7  A    between atoms: C_9  and  C_11
REMARK    8  A    between atoms: C_16  and  C_17
REMARK    9  A    between atoms: N_19  and  C_20
REMARK   10  A    between atoms: N_19  and  C_21
REMARK                            x       y       z     vdW  Elec       q    Type
REMARK                         _______ _______ _______ _____ _____    ______ ____
ROOT
ATOM      1  C   UNL     1       6.515   5.315  17.755  0.00  0.00    +0.000 A 
ATOM      2  C   UNL     1       7.352   4.550  16.905  0.00  0.00    +0.000 A 
ATOM      3  C   UNL     1       6.914   4.110  15.654  0.00  0.00    +0.000 A 
ATOM      4  C   UNL     1       5.640   4.435  15.223  0.00  0.00    +0.000 A 
ATOM      5  C   UNL     1       4.807   5.195  16.049  0.00  0.00    +0.000 A 
ATOM      6  C   UNL     1       5.227   5.649  17.322  0.00  0.00    +0.000 A 
ENDROOT
BRANCH   6   7
ATOM      7  C   UNL     1       4.153   6.306  18.096  0.00  0.00    +0.000 C 
ATOM      8  O   UNL     1       3.931   7.470  17.729  0.00  0.00    +0.000 OA
ATOM      9  N   UNL     1       3.488   5.771  19.218  0.00  0.00    +0.000 N 
ATOM     10  C   UNL     1       2.435   6.676  19.699  0.00  0.00    +0.000 C 
BRANCH   9  11
ATOM     11  C   UNL     1       3.525   4.360  19.708  0.00  0.00    +0.000 C 
ATOM     12  C   UNL     1       2.507   4.058  20.824  0.00  0.00    +0.000 C 
ATOM     13  C   UNL     1       1.072   4.137  20.313  0.00  0.00    +0.000 C 
ATOM     14  C   UNL     1       0.834   3.134  19.192  0.00  0.00    +0.000 C 
ATOM     15  C   UNL     1       1.870   3.257  18.080  0.00  0.00    +0.000 C 
ATOM     16  C   UNL     1       3.306   3.274  18.622  0.00  0.00    +0.000 C 
ENDBRANCH   9  11
ENDBRANCH   6   7
BRANCH   1  17
ATOM     17  C   UNL     1       7.172   5.748  18.991  0.00  0.00    +0.000 C 
ATOM     18  O   UNL     1       6.853   5.273  20.071  0.00  0.00    +0.000 OA
BRANCH  17  19
ATOM     19  O   UNL     1       8.048   6.764  18.793  0.00  0.00    +0.000 OA
BRANCH  19  20
ATOM     20  C   UNL     1       7.812   7.513  17.579  0.00  0.00    +0.000 C 
BRANCH  20  22
ATOM     21  N   UNL     1       8.978   9.363  18.642  0.00  0.00    +0.000 N 
ATOM     22  C   UNL     1       7.904   9.012  17.837  0.00  0.00    +0.000 C 
ATOM     23  O   UNL     1       7.090   9.824  17.406  0.00  0.00    +0.000 OA
ATOM     24  H   UNL     1       9.577   8.617  18.975  0.00  0.00    +0.000 HD
BRANCH  21  25
ATOM     25  C   UNL     1       9.302  10.732  18.979  0.00  0.00    +0.000 C 
BRANCH  25  27
ATOM     26  C   UNL     1      10.556  11.933  20.839  0.00  0.00    +0.000 C 
ATOM     27  C   UNL     1       9.425  10.979  20.481  0.00  0.00    +0.000 C 
ENDBRANCH  25  27
ENDBRANCH  21  25
ENDBRANCH  20  22
ENDBRANCH  19  20
ENDBRANCH  17  19
ENDBRANCH   1  17
TORSDOF 8
ENDMDL
MODEL 5
REMARK VINA RESULT:      -7.3      3.461      5.819
REMARK  Name = 
REMARK  10 active torsions:
REMARK  status: ('A' for Active; 'I' for Inactive)
REMARK    1  A    between atoms: C_1  and  C_2
REMARK    2  A    between atoms: C_2  and  C_3
REMARK    3  A    between atoms: C_3  and  N_4
REMARK    4  A    between atoms: C_5  and  C_7
REMARK    5  A    between atoms: C_7  and  O_8
REMARK    6  A    between atoms: O_8  and  C_9
REMARK    7  A    between atoms: C_9  and  C_11
REMARK    8  A    between atoms: C_16  and  C_17
REMARK    9  A    between atoms: N_19  and  C_20
REMARK   10  A    between atoms: N_19  and  C_21
REMARK                            x       y       z     vdW  Elec       q    Type
REMARK                         _______ _______ _______ _____ _____    ______ ____
ROOT
ATOM      1  C   UNL     1       6.525   5.298  17.622  0.00  0.00    +0.000 A 
ATOM      2  C   UNL     1       7.430   4.605  16.781  0.00  0.00    +0.000 A 
ATOM      3  C   UNL     1       7.050   4.159  15.513  0.00  0.00    +0.000 A 
ATOM      4  C   UNL     1       5.768   4.407  15.057  0.00  0.00    +0.000 A 
ATOM      5  C   UNL     1       4.868   5.096  15.874  0.00  0.00    +0.000 A 
ATOM      6  C   UNL     1       5.228   5.554  17.164  0.00  0.00    +0.000 A 
ENDROOT
BRANCH   6   7
ATOM      7  C   UNL     1       4.095   6.126  17.923  0.00  0.00    +0.000 C 
ATOM      8  O   UNL     1       4.122   7.365  17.976  0.00  0.00    +0.000 OA
ATOM      9  N   UNL     1       3.117   5.401  18.632  0.00  0.00    +0.000 N 
ATOM     10  C   UNL     1       2.108   6.293  19.218  0.00  0.00    +0.000 C 
BRANCH   9  11
ATOM     11  C   UNL     1       2.851   3.932  18.567  0.00  0.00    +0.000 C 
ATOM     12  C   UNL     1       3.587   3.114  19.645  0.00  0.00    +0.000 C 
ATOM     13  C   UNL     1       3.067   3.429  21.043  0.00  0.00    +0.000 C 
ATOM     14  C   UNL     1       1.582   3.109  21.160  0.00  0.00    +0.000 C 
ATOM     15  C   UNL     1       0.763   3.770  20.057  0.00  0.00    +0.000 C 
ATOM     16  C   UNL     1       1.358   3.523  18.664  0.00  0.00    +0.000 C 
ENDBRANCH   9  11
ENDBRANCH   6   7
BRANCH   1  17
ATOM     17  C   UNL     1       7.124   5.752  18.881  0.00  0.00    +0.000 C 
ATOM     18  O   UNL     1       6.680   5.380  19.957  0.00  0.00    +0.000 OA
BRANCH  17  19
ATOM     19  O   UNL     1       8.104   6.671  18.695  0.00  0.00    +0.000 OA
BRANCH  19  20
ATOM     20  C   UNL     1       7.856   7.579  17.598  0.00  0.00    +0.000 C 
BRANCH  20  22
ATOM     21  N   UNL     1       9.020   9.162  19.029  0.00  0.00    +0.000 N 
ATOM     22  C   UNL     1       8.070   9.025  18.028  0.00  0.00    +0.000 C 
ATOM     23  O   UNL     1       7.440   9.969  17.563  0.00  0.00    +0.000 OA
ATOM     24  H   UNL     1       9.465   8.319  19.372  0.00  0.00    +0.000 HD
BRANCH  21  25
ATOM     25  C   UNL     1       9.432  10.443  19.562  0.00  0.00    +0.000 C 
BRANCH  25  27
ATOM     26  C   UNL     1      11.679  11.628  19.424  0.00  0.00    +0.000 C 
ATOM     27  C   UNL     1      10.432  11.181  18.676  0.00  0.00    +0.000 C 
ENDBRANCH  25  27
ENDBRANCH  21  25
ENDBRANCH  20  22
ENDBRANCH  19  20
ENDBRANCH  17  19
ENDBRANCH   1  17
TORSDOF 8
ENDMDL
MODEL 6
REMARK VINA RESULT:      -7.3      2.023      3.321
REMARK  Name = 
REMARK  10 active torsions:
REMARK  status: ('A' for Active; 'I' for Inactive)
REMARK    1  A    between atoms: C_1  and  C_2
REMARK    2  A    between atoms: C_2  and  C_3
REMARK    3  A    between atoms: C_3  and  N_4
REMARK    4  A    between atoms: C_5  and  C_7
REMARK    5  A    between atoms: C_7  and  O_8
REMARK    6  A    between atoms: O_8  and  C_9
REMARK    7  A    between atoms: C_9  and  C_11
REMARK    8  A    between atoms: C_16  and  C_17
REMARK    9  A    between atoms: N_19  and  C_20
REMARK   10  A    between atoms: N_19  and  C_21
REMARK                            x       y       z     vdW  Elec       q    Type
REMARK                         _______ _______ _______ _____ _____    ______ ____
ROOT
ATOM      1  C   UNL     1       6.108   4.544  17.048  0.00  0.00    +0.000 A 
ATOM      2  C   UNL     1       7.498   4.506  17.316  0.00  0.00    +0.000 A 
ATOM      3  C   UNL     1       8.031   5.057  18.483  0.00  0.00    +0.000 A 
ATOM      4  C   UNL     1       7.187   5.643  19.409  0.00  0.00    +0.000 A 
ATOM      5  C   UNL     1       5.812   5.681  19.161  0.00  0.00    +0.000 A 
ATOM      6  C   UNL     1       5.249   5.133  17.983  0.00  0.00    +0.000 A 
ENDROOT
BRANCH   6   7
ATOM      7  C   UNL     1       3.803   5.405  17.841  0.00  0.00    +0.000 C 
ATOM      8  O   UNL     1       3.561   6.555  17.444  0.00  0.00    +0.000 OA
ATOM      9  N   UNL     1       2.753   4.539  18.205  0.00  0.00    +0.000 N 
ATOM     10  C   UNL     1       1.443   5.112  17.866  0.00  0.00    +0.000 C 
BRANCH   9  11
ATOM     11  C   UNL     1       2.852   3.092  18.562  0.00  0.00    +0.000 C 
ATOM     12  C   UNL     1       3.581   2.822  19.891  0.00  0.00    +0.000 C 
ATOM     13  C   UNL     1       2.789   3.348  21.084  0.00  0.00    +0.000 C 
ATOM     14  C   UNL     1       1.422   2.684  21.169  0.00  0.00    +0.000 C 
ATOM     15  C   UNL     1       0.653   2.778  19.855  0.00  0.00    +0.000 C 
ATOM     16  C   UNL     1       1.499   2.336  18.654  0.00  0.00    +0.000 C 
ENDBRANCH   9  11
ENDBRANCH   6   7
BRANCH   1  17
ATOM     17  C   UNL     1       5.727   3.851  15.814  0.00  0.00    +0.000 C 
ATOM     18  O   UNL     1       5.526   2.645  15.807  0.00  0.00    +0.000 OA
BRANCH  17  19
ATOM     19  O   UNL     1       5.738   4.665  14.729  0.00  0.00    +0.000 OA
BRANCH  19  20
ATOM     20  C   UNL     1       6.794   4.371  13.786  0.00  0.00    +0.000 C 
BRANCH  20  22
ATOM     21  N   UNL     1       4.865   3.676  12.480  0.00  0.00    +0.000 N 
ATOM     22  C   UNL     1       6.249   3.630  12.572  0.00  0.00    +0.000 C 
ATOM     23  O   UNL     1       6.958   3.025  11.774  0.00  0.00    +0.000 OA
ATOM     24  H   UNL     1       4.364   4.175  13.205  0.00  0.00    +0.000 HD
BRANCH  21  25
ATOM     25  C   UNL     1       4.123   3.091  11.384  0.00  0.00    +0.000 C 
BRANCH  25  27
ATOM     26  C   UNL     1       2.600   4.004   9.562  0.00  0.00    +0.000 C 
ATOM     27  C   UNL     1       3.993   4.012  10.173  0.00  0.00    +0.000 C 
ENDBRANCH  25  27
ENDBRANCH  21  25
ENDBRANCH  20  22
ENDBRANCH  19  20
ENDBRANCH  17  19
ENDBRANCH   1  17
TORSDOF 8
ENDMDL
MODEL 7
REMARK VINA RESULT:      -7.0      2.222      5.838
REMARK  Name = 
REMARK  10 active torsions:
REMARK  status: ('A' for Active; 'I' for Inactive)
REMARK    1  A    between atoms: C_1  and  C_2
REMARK    2  A    between atoms: C_2  and  C_3
REMARK    3  A    between atoms: C_3  and  N_4
REMARK    4  A    between atoms: C_5  and  C_7
REMARK    5  A    between atoms: C_7  and  O_8
REMARK    6  A    between atoms: O_8  and  C_9
REMARK    7  A    between atoms: C_9  and  C_11
REMARK    8  A    between atoms: C_16  and  C_17
REMARK    9  A    between atoms: N_19  and  C_20
REMARK   10  A    between atoms: N_19  and  C_21
REMARK                            x       y       z     vdW  Elec       q    Type
REMARK                         _______ _______ _______ _____ _____    ______ ____
ROOT
ATOM      1  C   UNL     1       5.469   5.761  16.546  0.00  0.00    +0.000 A 
ATOM      2  C   UNL     1       5.708   6.082  15.187  0.00  0.00    +0.000 A 
ATOM      3  C   UNL     1       5.861   5.087  14.219  0.00  0.00    +0.000 A 
ATOM      4  C   UNL     1       5.767   3.756  14.586  0.00  0.00    +0.000 A 
ATOM      5  C   UNL     1       5.525   3.426  15.923  0.00  0.00    +0.000 A 
ATOM      6  C   UNL     1       5.370   4.417  16.922  0.00  0.00    +0.000 A 
ENDROOT
BRANCH   6   7
ATOM      7  C   UNL     1       5.271   3.863  18.289  0.00  0.00    +0.000 C 
ATOM      8  O   UNL     1       6.279   4.082  18.977  0.00  0.00    +0.000 OA
ATOM      9  N   UNL     1       4.223   3.064  18.790  0.00  0.00    +0.000 N 
ATOM     10  C   UNL     1       4.425   2.743  20.209  0.00  0.00    +0.000 C 
BRANCH   9  11
ATOM     11  C   UNL     1       2.889   2.819  18.163  0.00  0.00    +0.000 C 
ATOM     12  C   UNL     1       1.981   1.874  18.973  0.00  0.00    +0.000 C 
ATOM     13  C   UNL     1       1.555   2.500  20.296  0.00  0.00    +0.000 C 
ATOM     14  C   UNL     1       0.783   3.793  20.067  0.00  0.00    +0.000 C 
ATOM     15  C   UNL     1       1.538   4.762  19.165  0.00  0.00    +0.000 C 
ATOM     16  C   UNL     1       2.044   4.089  17.882  0.00  0.00    +0.000 C 
ENDBRANCH   9  11
ENDBRANCH   6   7
BRANCH   1  17
ATOM     17  C   UNL     1       5.261   6.935  17.399  0.00  0.00    +0.000 C 
ATOM     18  O   UNL     1       6.166   7.729  17.606  0.00  0.00    +0.000 OA
BRANCH  17  19
ATOM     19  O   UNL     1       4.034   6.952  17.977  0.00  0.00    +0.000 OA
BRANCH  19  20
ATOM     20  C   UNL     1       3.017   7.594  17.175  0.00  0.00    +0.000 C 
BRANCH  20  22
ATOM     21  N   UNL     1       1.868   8.266  19.209  0.00  0.00    +0.000 N 
ATOM     22  C   UNL     1       2.311   8.689  17.965  0.00  0.00    +0.000 C 
ATOM     23  O   UNL     1       2.122   9.821  17.531  0.00  0.00    +0.000 OA
ATOM     24  H   UNL     1       2.044   7.302  19.466  0.00  0.00    +0.000 HD
BRANCH  21  25
ATOM     25  C   UNL     1       1.218   9.142  20.160  0.00  0.00    +0.000 C 
BRANCH  25  27
ATOM     26  C   UNL     1      -0.420   8.738  22.065  0.00  0.00    +0.000 C 
ATOM     27  C   UNL     1       0.982   8.498  21.524  0.00  0.00    +0.000 C 
ENDBRANCH  25  27
ENDBRANCH  21  25
ENDBRANCH  20  22
ENDBRANCH  19  20
ENDBRANCH  17  19
ENDBRANCH   1  17
TORSDOF 8
ENDMDL
MODEL 8
REMARK VINA RESULT:      -7.0      2.923      6.378
REMARK  Name = 
REMARK  10 active torsions:
REMARK  status: ('A' for Active; 'I' for Inactive)
REMARK    1  A    between atoms: C_1  and  C_2
REMARK    2  A    between atoms: C_2  and  C_3
REMARK    3  A    between atoms: C_3  and  N_4
REMARK    4  A    between atoms: C_5  and  C_7
REMARK    5  A    between atoms: C_7  and  O_8
REMARK    6  A    between atoms: O_8  and  C_9
REMARK    7  A    between atoms: C_9  and  C_11
REMARK    8  A    between atoms: C_16  and  C_17
REMARK    9  A    between atoms: N_19  and  C_20
REMARK   10  A    between atoms: N_19  and  C_21
REMARK                            x       y       z     vdW  Elec       q    Type
REMARK                         _______ _______ _______ _____ _____    ______ ____
ROOT
ATOM      1  C   UNL     1       5.516   6.400  17.459  0.00  0.00    +0.000 A 
ATOM      2  C   UNL     1       6.594   7.212  17.889  0.00  0.00    +0.000 A 
ATOM      3  C   UNL     1       7.794   6.653  18.334  0.00  0.00    +0.000 A 
ATOM      4  C   UNL     1       7.945   5.278  18.346  0.00  0.00    +0.000 A 
ATOM      5  C   UNL     1       6.890   4.466  17.918  0.00  0.00    +0.000 A 
ATOM      6  C   UNL     1       5.664   5.008  17.467  0.00  0.00    +0.000 A 
ENDROOT
BRANCH   6   7
ATOM      7  C   UNL     1       4.630   3.985  17.200  0.00  0.00    +0.000 C 
ATOM      8  O   UNL     1       4.547   3.680  16.001  0.00  0.00    +0.000 OA
ATOM      9  N   UNL     1       3.724   3.453  18.138  0.00  0.00    +0.000 N 
ATOM     10  C   UNL     1       2.878   2.413  17.537  0.00  0.00    +0.000 C 
BRANCH   9  11
ATOM     11  C   UNL     1       3.766   3.597  19.625  0.00  0.00    +0.000 C 
ATOM     12  C   UNL     1       3.301   4.975  20.134  0.00  0.00    +0.000 C 
ATOM     13  C   UNL     1       1.815   5.197  19.876  0.00  0.00    +0.000 C 
ATOM     14  C   UNL     1       0.973   4.140  20.579  0.00  0.00    +0.000 C 
ATOM     15  C   UNL     1       1.430   2.725  20.245  0.00  0.00    +0.000 C 
ATOM     16  C   UNL     1       2.944   2.547  20.417  0.00  0.00    +0.000 C 
ENDBRANCH   9  11
ENDBRANCH   6   7
BRANCH   1  17
ATOM     17  C   UNL     1       4.369   7.163  16.957  0.00  0.00    +0.000 C 
ATOM     18  O   UNL     1       4.252   7.410  15.765  0.00  0.00    +0.000 OA
BRANCH  17  19
ATOM     19  O   UNL     1       3.567   7.621  17.950  0.00  0.00    +0.000 OA
BRANCH  19  20
ATOM     20  C   UNL     1       2.331   8.208  17.483  0.00  0.00    +0.000 C 
BRANCH  20  22
ATOM     21  N   UNL     1       1.363   8.741  19.648  0.00  0.00    +0.000 N 
ATOM     22  C   UNL     1       1.831   9.270  18.454  0.00  0.00    +0.000 C 
ATOM     23  O   UNL     1       1.811  10.469  18.193  0.00  0.00    +0.000 OA
ATOM     24  H   UNL     1       1.392   7.734  19.758  0.00  0.00    +0.000 HD
BRANCH  21  25
ATOM     25  C   UNL     1       0.888   9.557  20.745  0.00  0.00    +0.000 C 
BRANCH  25  27
ATOM     26  C   UNL     1      -0.284   9.586  23.003  0.00  0.00    +0.000 C 
ATOM     27  C   UNL     1       0.001   8.801  21.731  0.00  0.00    +0.000 C 
ENDBRANCH  25  27
ENDBRANCH  21  25
ENDBRANCH  20  22
ENDBRANCH  19  20
ENDBRANCH  17  19
ENDBRANCH   1  17
TORSDOF 8
ENDMDL
MODEL 9
REMARK VINA RESULT:      -7.0      1.546      2.238
REMARK  Name = 
REMARK  10 active torsions:
REMARK  status: ('A' for Active; 'I' for Inactive)
REMARK    1  A    between atoms: C_1  and  C_2
REMARK    2  A    between atoms: C_2  and  C_3
REMARK    3  A    between atoms: C_3  and  N_4
REMARK    4  A    between atoms: C_5  and  C_7
REMARK    5  A    between atoms: C_7  and  O_8
REMARK    6  A    between atoms: O_8  and  C_9
REMARK    7  A    between atoms: C_9  and  C_11
REMARK    8  A    between atoms: C_16  and  C_17
REMARK    9  A    between atoms: N_19  and  C_20
REMARK   10  A    between atoms: N_19  and  C_21
REMARK                            x       y       z     vdW  Elec       q    Type
REMARK                         _______ _______ _______ _____ _____    ______ ____
ROOT
ATOM      1  C   UNL     1       5.614   5.255  16.426  0.00  0.00    +0.000 A 
ATOM      2  C   UNL     1       5.292   6.323  15.553  0.00  0.00    +0.000 A 
ATOM      3  C   UNL     1       4.471   7.377  15.963  0.00  0.00    +0.000 A 
ATOM      4  C   UNL     1       3.969   7.391  17.252  0.00  0.00    +0.000 A 
ATOM      5  C   UNL     1       4.285   6.345  18.125  0.00  0.00    +0.000 A 
ATOM      6  C   UNL     1       5.110   5.265  17.732  0.00  0.00    +0.000 A 
ENDROOT
BRANCH   6   7
ATOM      7  C   UNL     1       5.202   4.194  18.747  0.00  0.00    +0.000 C 
ATOM      8  O   UNL     1       6.229   4.267  19.439  0.00  0.00    +0.000 OA
ATOM      9  N   UNL     1       4.316   3.109  18.895  0.00  0.00    +0.000 N 
ATOM     10  C   UNL     1       4.679   2.273  20.047  0.00  0.00    +0.000 C 
BRANCH   9  11
ATOM     11  C   UNL     1       2.977   2.936  18.255  0.00  0.00    +0.000 C 
ATOM     12  C   UNL     1       2.079   1.895  18.951  0.00  0.00    +0.000 C 
ATOM     13  C   UNL     1       1.663   2.353  20.344  0.00  0.00    +0.000 C 
ATOM     14  C   UNL     1       0.885   3.661  20.282  0.00  0.00    +0.000 C 
ATOM     15  C   UNL     1       1.629   4.736  19.498  0.00  0.00    +0.000 C 
ATOM     16  C   UNL     1       2.125   4.228  18.138  0.00  0.00    +0.000 C 
ENDBRANCH   9  11
ENDBRANCH   6   7
BRANCH   1  17
ATOM     17  C   UNL     1       6.545   4.283  15.846  0.00  0.00    +0.000 C 
ATOM     18  O   UNL     1       7.704   4.218  16.229  0.00  0.00    +0.000 OA
BRANCH  17  19
ATOM     19  O   UNL     1       6.005   3.588  14.815  0.00  0.00    +0.000 OA
BRANCH  19  20
ATOM     20  C   UNL     1       6.167   4.226  13.528  0.00  0.00    +0.000 C 
BRANCH  20  22
ATOM     21  N   UNL     1       6.553   2.349  12.032  0.00  0.00    +0.000 N 
ATOM     22  C   UNL     1       5.649   3.333  12.408  0.00  0.00    +0.000 C 
ATOM     23  O   UNL     1       4.558   3.488  11.868  0.00  0.00    +0.000 OA
ATOM     24  H   UNL     1       7.442   2.320  12.516  0.00  0.00    +0.000 HD
BRANCH  21  25
ATOM     25  C   UNL     1       6.263   1.348  11.027  0.00  0.00    +0.000 C 
BRANCH  25  27
ATOM     26  C   UNL     1       5.726  -1.125  11.286  0.00  0.00    +0.000 C 
ATOM     27  C   UNL     1       6.790  -0.041  11.377  0.00  0.00    +0.000 C 
ENDBRANCH  25  27
ENDBRANCH  21  25
ENDBRANCH  20  22
ENDBRANCH  19  20
ENDBRANCH  17  19
ENDBRANCH   1  17
TORSDOF 8
ENDMDL
