MODEL 1
REMARK VINA RESULT:      -6.9      0.000      0.000
REMARK  Name = 
REMARK  5 active torsions:
REMARK  status: ('A' for Active; 'I' for Inactive)
REMARK    1  A    between atoms: C_1  and  N_2
REMARK    2  A    between atoms: C_7  and  S_8
REMARK    3  A    between atoms: S_8  and  C_9
REMARK    4  A    between atoms: C_9  and  C_10
REMARK    5  A    between atoms: N_18  and  C_19
REMARK                            x       y       z     vdW  Elec       q    Type
REMARK                         _______ _______ _______ _____ _____    ______ ____
ROOT
ATOM      1  C   UNL     1       1.929   3.068  21.412  0.00  0.00    +0.000 C 
ATOM      2  N   UNL     1       2.476   3.742  20.237  0.00  0.00    +0.000 N 
ATOM      3  C   UNL     1       3.171   3.033  19.236  0.00  0.00    +0.000 A 
ATOM      4  S   UNL     1       3.521   1.399  19.177  0.00  0.00    +0.000 S 
ATOM      5  C   UNL     1       3.637   3.846  18.130  0.00  0.00    +0.000 A 
ATOM      6  N   UNL     1       4.324   3.495  16.978  0.00  0.00    +0.000 NA
ATOM      7  C   UNL     1       4.508   4.631  16.344  0.00  0.00    +0.000 A 
ATOM      8  N   UNL     1       3.965   5.692  17.016  0.00  0.00    +0.000 N 
ATOM      9  C   UNL     1       3.395   5.196  18.152  0.00  0.00    +0.000 A 
ATOM     10  N   UNL     1       2.717   5.878  19.136  0.00  0.00    +0.000 N 
ATOM     11  C   UNL     1       2.451   7.305  19.130  0.00  0.00    +0.000 C 
ATOM     12  C   UNL     1       2.225   5.139  20.227  0.00  0.00    +0.000 A 
ATOM     13  O   UNL     1       1.599   5.693  21.134  0.00  0.00    +0.000 OA
ATOM     14  H   UNL     1       4.004   6.651  16.707  0.00  0.00    +0.000 HD
ENDROOT
BRANCH   7  15
ATOM     15  S   UNL     1       5.353   4.927  14.868  0.00  0.00    +0.000 S 
BRANCH  15  16
ATOM     16  C   UNL     1       7.083   4.648  15.349  0.00  0.00    +0.000 C 
BRANCH  16  17
ATOM     17  C   UNL     1       7.400   5.284  16.681  0.00  0.00    +0.000 A 
ATOM     18  C   UNL     1       7.418   6.673  16.846  0.00  0.00    +0.000 A 
ATOM     19  C   UNL     1       7.713   7.223  18.093  0.00  0.00    +0.000 A 
ATOM     20  C   UNL     1       7.990   6.364  19.142  0.00  0.00    +0.000 A 
ATOM     21  N   UNL     1       7.995   5.019  19.023  0.00  0.00    +0.000 NA
ATOM     22  C   UNL     1       7.703   4.513  17.801  0.00  0.00    +0.000 A 
ENDBRANCH  16  17
ENDBRANCH  15  16
ENDBRANCH   7  15
TORSDOF 3
ENDMDL
MODEL 2
REMARK VINA RESULT:      -6.6      4.010      6.895
REMARK  Name = 
REMARK  5 active torsions:
REMARK  status: ('A' for Active; 'I' for Inactive)
REMARK    1  A    between atoms: C_1  and  N_2
REMARK    2  A    between atoms: C_7  and  S_8
REMARK    3  A    between atoms: S_8  and  C_9
REMARK    4  A    between atoms: C_9  and  C_10
REMARK    5  A    between atoms: N_18  and  C_19
REMARK                            x       y       z     vdW  Elec       q    Type
REMARK                         _______ _______ _______ _____ _____    ______ ____
ROOT
ATOM      1  C   UNL     1       3.556   1.801  18.870  0.00  0.00    +0.000 C 
ATOM      2  N   UNL     1       3.287   3.234  18.947  0.00  0.00    +0.000 N 
ATOM      3  C   UNL     1       2.442   3.774  19.940  0.00  0.00    +0.000 A 
ATOM      4  S   UNL     1       1.607   2.966  21.142  0.00  0.00    +0.000 S 
ATOM      5  C   UNL     1       2.290   5.215  19.888  0.00  0.00    +0.000 A 
ATOM      6  N   UNL     1       1.570   6.076  20.700  0.00  0.00    +0.000 NA
ATOM      7  C   UNL     1       1.768   7.266  20.179  0.00  0.00    +0.000 A 
ATOM      8  N   UNL     1       2.588   7.220  19.085  0.00  0.00    +0.000 N 
ATOM      9  C   UNL     1       2.936   5.914  18.901  0.00  0.00    +0.000 A 
ATOM     10  N   UNL     1       3.757   5.376  17.935  0.00  0.00    +0.000 N 
ATOM     11  C   UNL     1       4.450   6.138  16.912  0.00  0.00    +0.000 C 
ATOM     12  C   UNL     1       3.957   3.985  17.946  0.00  0.00    +0.000 A 
ATOM     13  O   UNL     1       4.691   3.445  17.113  0.00  0.00    +0.000 OA
ATOM     14  H   UNL     1       2.858   8.020  18.533  0.00  0.00    +0.000 HD
ENDROOT
BRANCH   7  15
ATOM     15  S   UNL     1       1.109   8.787  20.660  0.00  0.00    +0.000 S 
BRANCH  15  16
ATOM     16  C   UNL     1       1.013   9.685  19.084  0.00  0.00    +0.000 C 
BRANCH  16  17
ATOM     17  C   UNL     1      -0.331  10.349  18.903  0.00  0.00    +0.000 A 
ATOM     18  C   UNL     1      -1.127  10.101  17.780  0.00  0.00    +0.000 A 
ATOM     19  C   UNL     1      -2.364  10.733  17.649  0.00  0.00    +0.000 A 
ATOM     20  C   UNL     1      -2.766  11.603  18.647  0.00  0.00    +0.000 A 
ATOM     21  N   UNL     1      -2.023  11.879  19.741  0.00  0.00    +0.000 NA
ATOM     22  C   UNL     1      -0.828  11.250  19.841  0.00  0.00    +0.000 A 
ENDBRANCH  16  17
ENDBRANCH  15  16
ENDBRANCH   7  15
TORSDOF 3
ENDMDL
MODEL 3
REMARK VINA RESULT:      -6.5      1.683      2.438
REMARK  Name = 
REMARK  5 active torsions:
REMARK  status: ('A' for Active; 'I' for Inactive)
REMARK    1  A    between atoms: C_1  and  N_2
REMARK    2  A    between atoms: C_7  and  S_8
REMARK    3  A    between atoms: S_8  and  C_9
REMARK    4  A    between atoms: C_9  and  C_10
REMARK    5  A    between atoms: N_18  and  C_19
REMARK                            x       y       z     vdW  Elec       q    Type
REMARK                         _______ _______ _______ _____ _____    ______ ____
ROOT
ATOM      1  C   UNL     1       1.527   4.725  21.109  0.00  0.00    +0.000 C 
ATOM      2  N   UNL     1       2.321   4.438  19.917  0.00  0.00    +0.000 N 
ATOM      3  C   UNL     1       2.762   5.467  19.058  0.00  0.00    +0.000 A 
ATOM      4  S   UNL     1       2.483   7.111  19.182  0.00  0.00    +0.000 S 
ATOM      5  C   UNL     1       3.550   5.017  17.928  0.00  0.00    +0.000 A 
ATOM      6  N   UNL     1       4.158   5.733  16.909  0.00  0.00    +0.000 NA
ATOM      7  C   UNL     1       4.714   4.818  16.147  0.00  0.00    +0.000 A 
ATOM      8  N   UNL     1       4.511   3.553  16.628  0.00  0.00    +0.000 N 
ATOM      9  C   UNL     1       3.780   3.673  17.773  0.00  0.00    +0.000 A 
ATOM     10  N   UNL     1       3.342   2.677  18.617  0.00  0.00    +0.000 N 
ATOM     11  C   UNL     1       3.615   1.262  18.447  0.00  0.00    +0.000 C 
ATOM     12  C   UNL     1       2.587   3.056  19.741  0.00  0.00    +0.000 A 
ATOM     13  O   UNL     1       2.177   2.209  20.540  0.00  0.00    +0.000 OA
ATOM     14  H   UNL     1       4.846   2.709  16.189  0.00  0.00    +0.000 HD
ENDROOT
BRANCH   7  15
ATOM     15  S   UNL     1       5.580   5.015  14.667  0.00  0.00    +0.000 S 
BRANCH  15  16
ATOM     16  C   UNL     1       7.308   4.831  15.200  0.00  0.00    +0.000 C 
BRANCH  16  17
ATOM     17  C   UNL     1       7.514   5.347  16.604  0.00  0.00    +0.000 A 
ATOM     18  C   UNL     1       7.538   6.716  16.888  0.00  0.00    +0.000 A 
ATOM     19  C   UNL     1       7.730   7.154  18.198  0.00  0.00    +0.000 A 
ATOM     20  C   UNL     1       7.901   6.204  19.189  0.00  0.00    +0.000 A 
ATOM     21  N   UNL     1       7.897   4.873  18.957  0.00  0.00    +0.000 NA
ATOM     22  C   UNL     1       7.707   4.479  17.676  0.00  0.00    +0.000 A 
ENDBRANCH  16  17
ENDBRANCH  15  16
ENDBRANCH   7  15
TORSDOF 3
ENDMDL
MODEL 4
REMARK VINA RESULT:      -6.4      2.541      3.632
REMARK  Name = 
REMARK  5 active torsions:
REMARK  status: ('A' for Active; 'I' for Inactive)
REMARK    1  A    between atoms: C_1  and  N_2
REMARK    2  A    between atoms: C_7  and  S_8
REMARK    3  A    between atoms: S_8  and  C_9
REMARK    4  A    between atoms: C_9  and  C_10
REMARK    5  A    between atoms: N_18  and  C_19
REMARK                            x       y       z     vdW  Elec       q    Type
REMARK                         _______ _______ _______ _____ _____    ______ ____
ROOT
ATOM      1  C   UNL     1       0.351   3.769  19.824  0.00  0.00    +0.000 C 
ATOM      2  N   UNL     1       1.798   3.786  19.623  0.00  0.00    +0.000 N 
ATOM      3  C   UNL     1       2.552   4.968  19.779  0.00  0.00    +0.000 A 
ATOM      4  S   UNL     1       2.007   6.500  20.173  0.00  0.00    +0.000 S 
ATOM      5  C   UNL     1       3.975   4.813  19.557  0.00  0.00    +0.000 A 
ATOM      6  N   UNL     1       5.008   5.734  19.641  0.00  0.00    +0.000 NA
ATOM      7  C   UNL     1       6.085   5.055  19.315  0.00  0.00    +0.000 A 
ATOM      8  N   UNL     1       5.804   3.745  19.039  0.00  0.00    +0.000 N 
ATOM      9  C   UNL     1       4.461   3.579  19.205  0.00  0.00    +0.000 A 
ATOM     10  N   UNL     1       3.715   2.432  19.054  0.00  0.00    +0.000 N 
ATOM     11  C   UNL     1       4.252   1.130  18.702  0.00  0.00    +0.000 C 
ATOM     12  C   UNL     1       2.329   2.517  19.273  0.00  0.00    +0.000 A 
ATOM     13  O   UNL     1       1.610   1.520  19.164  0.00  0.00    +0.000 OA
ATOM     14  H   UNL     1       6.486   3.057  18.758  0.00  0.00    +0.000 HD
ENDROOT
BRANCH   7  15
ATOM     15  S   UNL     1       7.711   5.609  19.154  0.00  0.00    +0.000 S 
BRANCH  15  16
ATOM     16  C   UNL     1       7.634   6.605  17.635  0.00  0.00    +0.000 C 
BRANCH  16  17
ATOM     17  C   UNL     1       6.882   5.889  16.538  0.00  0.00    +0.000 A 
ATOM     18  C   UNL     1       5.651   6.355  16.067  0.00  0.00    +0.000 A 
ATOM     19  C   UNL     1       4.987   5.666  15.051  0.00  0.00    +0.000 A 
ATOM     20  C   UNL     1       5.575   4.523  14.540  0.00  0.00    +0.000 A 
ATOM     21  N   UNL     1       6.756   4.032  14.975  0.00  0.00    +0.000 NA
ATOM     22  C   UNL     1       7.377   4.722  15.960  0.00  0.00    +0.000 A 
ENDBRANCH  16  17
ENDBRANCH  15  16
ENDBRANCH   7  15
TORSDOF 3
ENDMDL
MODEL 5
REMARK VINA RESULT:      -6.4      4.065      7.249
REMARK  Name = 
REMARK  5 active torsions:
REMARK  status: ('A' for Active; 'I' for Inactive)
REMARK    1  A    between atoms: C_1  and  N_2
REMARK    2  A    between atoms: C_7  and  S_8
REMARK    3  A    between atoms: S_8  and  C_9
REMARK    4  A    between atoms: C_9  and  C_10
REMARK    5  A    between atoms: N_18  and  C_19
REMARK                            x       y       z     vdW  Elec       q    Type
REMARK                         _______ _______ _______ _____ _____    ______ ____
ROOT
ATOM      1  C   UNL     1       5.331   3.679  17.761  0.00  0.00    +0.000 C 
ATOM      2  N   UNL     1       4.370   4.448  18.548  0.00  0.00    +0.000 N 
ATOM      3  C   UNL     1       4.060   5.788  18.230  0.00  0.00    +0.000 A 
ATOM      4  S   UNL     1       4.684   6.732  16.999  0.00  0.00    +0.000 S 
ATOM      5  C   UNL     1       3.078   6.405  19.099  0.00  0.00    +0.000 A 
ATOM      6  N   UNL     1       2.524   7.675  19.077  0.00  0.00    +0.000 NA
ATOM      7  C   UNL     1       1.710   7.700  20.108  0.00  0.00    +0.000 A 
ATOM      8  N   UNL     1       1.699   6.511  20.785  0.00  0.00    +0.000 N 
ATOM      9  C   UNL     1       2.560   5.674  20.138  0.00  0.00    +0.000 A 
ATOM     10  N   UNL     1       2.872   4.368  20.440  0.00  0.00    +0.000 N 
ATOM     11  C   UNL     1       2.295   3.604  21.532  0.00  0.00    +0.000 C 
ATOM     12  C   UNL     1       3.806   3.710  19.621  0.00  0.00    +0.000 A 
ATOM     13  O   UNL     1       4.117   2.535  19.834  0.00  0.00    +0.000 OA
ATOM     14  H   UNL     1       1.152   6.324  21.611  0.00  0.00    +0.000 HD
ENDROOT
BRANCH   7  15
ATOM     15  S   UNL     1       0.749   9.004  20.702  0.00  0.00    +0.000 S 
BRANCH  15  16
ATOM     16  C   UNL     1       0.818  10.194  19.331  0.00  0.00    +0.000 C 
BRANCH  16  17
ATOM     17  C   UNL     1      -0.563  10.560  18.842  0.00  0.00    +0.000 A 
ATOM     18  C   UNL     1      -1.124   9.961  17.710  0.00  0.00    +0.000 A 
ATOM     19  C   UNL     1      -2.403  10.325  17.290  0.00  0.00    +0.000 A 
ATOM     20  C   UNL     1      -3.084  11.286  18.015  0.00  0.00    +0.000 A 
ATOM     21  N   UNL     1      -2.575  11.897  19.106  0.00  0.00    +0.000 NA
ATOM     22  C   UNL     1      -1.332  11.523  19.491  0.00  0.00    +0.000 A 
ENDBRANCH  16  17
ENDBRANCH  15  16
ENDBRANCH   7  15
TORSDOF 3
ENDMDL
MODEL 6
REMARK VINA RESULT:      -6.3      3.945      7.174
REMARK  Name = 
REMARK  5 active torsions:
REMARK  status: ('A' for Active; 'I' for Inactive)
REMARK    1  A    between atoms: C_1  and  N_2
REMARK    2  A    between atoms: C_7  and  S_8
REMARK    3  A    between atoms: S_8  and  C_9
REMARK    4  A    between atoms: C_9  and  C_10
REMARK    5  A    between atoms: N_18  and  C_19
REMARK                            x       y       z     vdW  Elec       q    Type
REMARK                         _______ _______ _______ _____ _____    ______ ____
ROOT
ATOM      1  C   UNL     1       4.993   3.817  17.518  0.00  0.00    +0.000 C 
ATOM      2  N   UNL     1       4.094   4.534  18.419  0.00  0.00    +0.000 N 
ATOM      3  C   UNL     1       3.785   5.896  18.224  0.00  0.00    +0.000 A 
ATOM      4  S   UNL     1       4.347   6.926  17.032  0.00  0.00    +0.000 S 
ATOM      5  C   UNL     1       2.868   6.455  19.197  0.00  0.00    +0.000 A 
ATOM      6  N   UNL     1       2.333   7.729  19.306  0.00  0.00    +0.000 NA
ATOM      7  C   UNL     1       1.585   7.683  20.385  0.00  0.00    +0.000 A 
ATOM      8  N   UNL     1       1.597   6.446  20.969  0.00  0.00    +0.000 N 
ATOM      9  C   UNL     1       2.404   5.652  20.208  0.00  0.00    +0.000 A 
ATOM     10  N   UNL     1       2.714   4.323  20.390  0.00  0.00    +0.000 N 
ATOM     11  C   UNL     1       2.194   3.484  21.455  0.00  0.00    +0.000 C 
ATOM     12  C   UNL     1       3.586   3.721  19.466  0.00  0.00    +0.000 A 
ATOM     13  O   UNL     1       3.892   2.530  19.570  0.00  0.00    +0.000 OA
ATOM     14  H   UNL     1       1.099   6.202  21.811  0.00  0.00    +0.000 HD
ENDROOT
BRANCH   7  15
ATOM     15  S   UNL     1       0.682   8.948  21.135  0.00  0.00    +0.000 S 
BRANCH  15  16
ATOM     16  C   UNL     1       0.910  10.329  19.977  0.00  0.00    +0.000 C 
BRANCH  16  17
ATOM     17  C   UNL     1      -0.358  10.631  19.214  0.00  0.00    +0.000 A 
ATOM     18  C   UNL     1      -1.310  11.533  19.701  0.00  0.00    +0.000 A 
ATOM     19  C   UNL     1      -2.469  11.786  18.967  0.00  0.00    +0.000 A 
ATOM     20  C   UNL     1      -2.645  11.122  17.766  0.00  0.00    +0.000 A 
ATOM     21  N   UNL     1      -1.757  10.235  17.267  0.00  0.00    +0.000 NA
ATOM     22  C   UNL     1      -0.641  10.010  18.000  0.00  0.00    +0.000 A 
ENDBRANCH  16  17
ENDBRANCH  15  16
ENDBRANCH   7  15
TORSDOF 3
ENDMDL
MODEL 7
REMARK VINA RESULT:      -6.3      0.724      1.102
REMARK  Name = 
REMARK  5 active torsions:
REMARK  status: ('A' for Active; 'I' for Inactive)
REMARK    1  A    between atoms: C_1  and  N_2
REMARK    2  A    between atoms: C_7  and  S_8
REMARK    3  A    between atoms: S_8  and  C_9
REMARK    4  A    between atoms: C_9  and  C_10
REMARK    5  A    between atoms: N_18  and  C_19
REMARK                            x       y       z     vdW  Elec       q    Type
REMARK                         _______ _______ _______ _____ _____    ______ ____
ROOT
ATOM      1  C   UNL     1       2.263   2.607  21.439  0.00  0.00    +0.000 C 
ATOM      2  N   UNL     1       2.733   3.341  20.267  0.00  0.00    +0.000 N 
ATOM      3  C   UNL     1       3.407   2.692  19.211  0.00  0.00    +0.000 A 
ATOM      4  S   UNL     1       3.810   1.075  19.077  0.00  0.00    +0.000 S 
ATOM      5  C   UNL     1       3.795   3.559  18.116  0.00  0.00    +0.000 A 
ATOM      6  N   UNL     1       4.441   3.274  16.924  0.00  0.00    +0.000 NA
ATOM      7  C   UNL     1       4.558   4.437  16.324  0.00  0.00    +0.000 A 
ATOM      8  N   UNL     1       4.010   5.454  17.057  0.00  0.00    +0.000 N 
ATOM      9  C   UNL     1       3.508   4.898  18.198  0.00  0.00    +0.000 A 
ATOM     10  N   UNL     1       2.852   5.521  19.235  0.00  0.00    +0.000 N 
ATOM     11  C   UNL     1       2.537   6.938  19.292  0.00  0.00    +0.000 C 
ATOM     12  C   UNL     1       2.435   4.727  20.318  0.00  0.00    +0.000 A 
ATOM     13  O   UNL     1       1.831   5.227  21.272  0.00  0.00    +0.000 OA
ATOM     14  H   UNL     1       4.002   6.424  16.782  0.00  0.00    +0.000 HD
ENDROOT
BRANCH   7  15
ATOM     15  S   UNL     1       5.326   4.814  14.825  0.00  0.00    +0.000 S 
BRANCH  15  16
ATOM     16  C   UNL     1       7.088   4.687  15.248  0.00  0.00    +0.000 C 
BRANCH  16  17
ATOM     17  C   UNL     1       7.396   5.372  16.558  0.00  0.00    +0.000 A 
ATOM     18  C   UNL     1       7.726   4.646  17.707  0.00  0.00    +0.000 A 
ATOM     19  C   UNL     1       8.005   5.315  18.899  0.00  0.00    +0.000 A 
ATOM     20  C   UNL     1       7.939   6.697  18.908  0.00  0.00    +0.000 A 
ATOM     21  N   UNL     1       7.613   7.435  17.825  0.00  0.00    +0.000 NA
ATOM     22  C   UNL     1       7.348   6.759  16.682  0.00  0.00    +0.000 A 
ENDBRANCH  16  17
ENDBRANCH  15  16
ENDBRANCH   7  15
TORSDOF 3
ENDMDL
MODEL 8
REMARK VINA RESULT:      -6.3      4.012      6.905
REMARK  Name = 
REMARK  5 active torsions:
REMARK  status: ('A' for Active; 'I' for Inactive)
REMARK    1  A    between atoms: C_1  and  N_2
REMARK    2  A    between atoms: C_7  and  S_8
REMARK    3  A    between atoms: S_8  and  C_9
REMARK    4  A    between atoms: C_9  and  C_10
REMARK    5  A    between atoms: N_18  and  C_19
REMARK                            x       y       z     vdW  Elec       q    Type
REMARK                         _______ _______ _______ _____ _____    ______ ____
ROOT
ATOM      1  C   UNL     1       3.493   1.811  18.854  0.00  0.00    +0.000 C 
ATOM      2  N   UNL     1       3.232   3.242  18.987  0.00  0.00    +0.000 N 
ATOM      3  C   UNL     1       2.392   3.749  20.001  0.00  0.00    +0.000 A 
ATOM      4  S   UNL     1       1.555   2.900  21.173  0.00  0.00    +0.000 S 
ATOM      5  C   UNL     1       2.248   5.191  20.003  0.00  0.00    +0.000 A 
ATOM      6  N   UNL     1       1.534   6.025  20.849  0.00  0.00    +0.000 NA
ATOM      7  C   UNL     1       1.738   7.233  20.373  0.00  0.00    +0.000 A 
ATOM      8  N   UNL     1       2.556   7.224  19.276  0.00  0.00    +0.000 N 
ATOM      9  C   UNL     1       2.897   5.924  19.042  0.00  0.00    +0.000 A 
ATOM     10  N   UNL     1       3.712   5.418  18.055  0.00  0.00    +0.000 N 
ATOM     11  C   UNL     1       4.408   6.214  17.060  0.00  0.00    +0.000 C 
ATOM     12  C   UNL     1       3.904   4.026  18.013  0.00  0.00    +0.000 A 
ATOM     13  O   UNL     1       4.633   3.514  17.159  0.00  0.00    +0.000 OA
ATOM     14  H   UNL     1       2.829   8.042  18.754  0.00  0.00    +0.000 HD
ENDROOT
BRANCH   7  15
ATOM     15  S   UNL     1       1.089   8.738  20.913  0.00  0.00    +0.000 S 
BRANCH  15  16
ATOM     16  C   UNL     1       1.070   9.723  19.386  0.00  0.00    +0.000 C 
BRANCH  16  17
ATOM     17  C   UNL     1      -0.211  10.511  19.249  0.00  0.00    +0.000 A 
ATOM     18  C   UNL     1      -0.440  11.675  19.990  0.00  0.00    +0.000 A 
ATOM     19  C   UNL     1      -1.636  12.376  19.834  0.00  0.00    +0.000 A 
ATOM     20  C   UNL     1      -2.575  11.886  18.944  0.00  0.00    +0.000 A 
ATOM     21  N   UNL     1      -2.398  10.760  18.219  0.00  0.00    +0.000 NA
ATOM     22  C   UNL     1      -1.228  10.102  18.390  0.00  0.00    +0.000 A 
ENDBRANCH  16  17
ENDBRANCH  15  16
ENDBRANCH   7  15
TORSDOF 3
ENDMDL
MODEL 9
REMARK VINA RESULT:      -6.2      2.560      4.068
REMARK  Name = 
REMARK  5 active torsions:
REMARK  status: ('A' for Active; 'I' for Inactive)
REMARK    1  A    between atoms: C_1  and  N_2
REMARK    2  A    between atoms: C_7  and  S_8
REMARK    3  A    between atoms: S_8  and  C_9
REMARK    4  A    between atoms: C_9  and  C_10
REMARK    5  A    between atoms: N_18  and  C_19
REMARK                            x       y       z     vdW  Elec       q    Type
REMARK                         _______ _______ _______ _____ _____    ______ ____
ROOT
ATOM      1  C   UNL     1       0.971   5.873  20.770  0.00  0.00    +0.000 C 
ATOM      2  N   UNL     1       2.206   5.321  20.217  0.00  0.00    +0.000 N 
ATOM      3  C   UNL     1       2.974   6.032  19.271  0.00  0.00    +0.000 A 
ATOM      4  S   UNL     1       2.664   7.533  18.602  0.00  0.00    +0.000 S 
ATOM      5  C   UNL     1       4.177   5.352  18.833  0.00  0.00    +0.000 A 
ATOM      6  N   UNL     1       5.165   5.748  17.946  0.00  0.00    +0.000 NA
ATOM      7  C   UNL     1       6.001   4.735  17.907  0.00  0.00    +0.000 A 
ATOM      8  N   UNL     1       5.613   3.714  18.732  0.00  0.00    +0.000 N 
ATOM      9  C   UNL     1       4.455   4.107  19.337  0.00  0.00    +0.000 A 
ATOM     10  N   UNL     1       3.697   3.422  20.259  0.00  0.00    +0.000 N 
ATOM     11  C   UNL     1       4.021   2.113  20.797  0.00  0.00    +0.000 C 
ATOM     12  C   UNL     1       2.526   4.039  20.734  0.00  0.00    +0.000 A 
ATOM     13  O   UNL     1       1.812   3.479  21.570  0.00  0.00    +0.000 OA
ATOM     14  H   UNL     1       6.107   2.842  18.842  0.00  0.00    +0.000 HD
ENDROOT
BRANCH   7  15
ATOM     15  S   UNL     1       7.424   4.536  16.952  0.00  0.00    +0.000 S 
BRANCH  15  16
ATOM     16  C   UNL     1       7.116   5.659  15.557  0.00  0.00    +0.000 C 
BRANCH  16  17
ATOM     17  C   UNL     1       6.799   4.900  14.291  0.00  0.00    +0.000 A 
ATOM     18  C   UNL     1       5.682   4.063  14.196  0.00  0.00    +0.000 A 
ATOM     19  C   UNL     1       5.422   3.379  13.009  0.00  0.00    +0.000 A 
ATOM     20  C   UNL     1       6.295   3.546  11.949  0.00  0.00    +0.000 A 
ATOM     21  N   UNL     1       7.391   4.335  12.002  0.00  0.00    +0.000 NA
ATOM     22  C   UNL     1       7.617   4.987  13.167  0.00  0.00    +0.000 A 
ENDBRANCH  16  17
ENDBRANCH  15  16
ENDBRANCH   7  15
TORSDOF 3
ENDMDL
