MODEL 1
REMARK VINA RESULT:      -8.3      0.000      0.000
REMARK  Name = 
REMARK  9 active torsions:
REMARK  status: ('A' for Active; 'I' for Inactive)
REMARK    1  A    between atoms: C_1  and  O_2
REMARK    2  A    between atoms: O_2  and  C_3
REMARK    3  A    between atoms: C_6  and  N_7
REMARK    4  A    between atoms: N_10  and  C_11
REMARK    5  A    between atoms: C_13  and  C_14
REMARK    6  A    between atoms: N_16  and  C_17
REMARK    7  A    between atoms: C_17  and  C_18
REMARK    8  A    between atoms: C_21  and  C_22
REMARK    9  A    between atoms: C_27  and  N_28
REMARK                            x       y       z     vdW  Elec       q    Type
REMARK                         _______ _______ _______ _____ _____    ______ ____
ROOT
ATOM      1  C   UNL     1       3.227   6.729  18.174  0.00  0.00    +0.000 A 
ATOM      2  C   UNL     1       4.450   7.289  17.767  0.00  0.00    +0.000 A 
ATOM      3  C   UNL     1       5.588   6.497  17.649  0.00  0.00    +0.000 A 
ATOM      4  C   UNL     1       5.509   5.149  17.995  0.00  0.00    +0.000 A 
ATOM      5  C   UNL     1       4.285   4.589  18.408  0.00  0.00    +0.000 A 
ATOM      6  C   UNL     1       3.110   5.355  18.503  0.00  0.00    +0.000 A 
ENDROOT
BRANCH   1  10
ATOM      7  N   UNL     1       0.609   8.920  19.406  0.00  0.00    +0.000 N 
ATOM      8  C   UNL     1       1.744   8.135  19.492  0.00  0.00    +0.000 C 
ATOM      9  O   UNL     1       2.385   7.951  20.524  0.00  0.00    +0.000 OA
ATOM     10  N   UNL     1       2.087   7.571  18.273  0.00  0.00    +0.000 N 
ATOM     11  H   UNL     1      -0.039   8.665  18.673  0.00  0.00    +0.000 HD
ATOM     12  H   UNL     1       1.926   8.137  17.449  0.00  0.00    +0.000 HD
BRANCH   7  16
ATOM     13  C   UNL     1      -0.889  11.404  22.488  0.00  0.00    +0.000 A 
ATOM     14  C   UNL     1      -0.681  10.049  22.726  0.00  0.00    +0.000 A 
ATOM     15  C   UNL     1      -0.165   9.225  21.726  0.00  0.00    +0.000 A 
ATOM     16  C   UNL     1       0.126   9.733  20.457  0.00  0.00    +0.000 A 
ATOM     17  C   UNL     1      -0.065  11.099  20.225  0.00  0.00    +0.000 A 
ATOM     18  C   UNL     1      -0.581  11.929  21.233  0.00  0.00    +0.000 A 
BRANCH  13  20
ATOM     19  C   UNL     1      -2.797  12.462  23.405  0.00  0.00    +0.000 C 
ATOM     20  O   UNL     1      -1.432  12.092  23.537  0.00  0.00    +0.000 OA
ENDBRANCH  13  20
ENDBRANCH   7  16
ENDBRANCH   1  10
BRANCH   6  21
ATOM     21  N   UNL     1       1.856   4.801  18.837  0.00  0.00    +0.000 N 
ATOM     22  C   UNL     1       1.502   4.545  20.247  0.00  0.00    +0.000 C 
ATOM     23  C   UNL     1       1.256   3.044  20.339  0.00  0.00    +0.000 C 
ATOM     24  C   UNL     1       0.701   2.707  18.970  0.00  0.00    +0.000 C 
ATOM     25  C   UNL     1       1.503   3.603  18.033  0.00  0.00    +0.000 C 
ENDBRANCH   6  21
BRANCH   3  26
ATOM     26  C   UNL     1       6.888   7.056  17.179  0.00  0.00    +0.000 C 
ATOM     27  O   UNL     1       7.531   6.460  16.322  0.00  0.00    +0.000 OA
ATOM     28  N   UNL     1       7.280   8.248  17.742  0.00  0.00    +0.000 N 
ATOM     29  H   UNL     1       6.641   8.760  18.339  0.00  0.00    +0.000 HD
BRANCH  28  30
ATOM     30  C   UNL     1       8.531   8.893  17.409  0.00  0.00    +0.000 C 
BRANCH  30  31
ATOM     31  C   UNL     1       8.801  10.072  18.306  0.00  0.00    +0.000 A 
ATOM     32  C   UNL     1       9.168   9.888  19.646  0.00  0.00    +0.000 A 
ATOM     33  C   UNL     1       9.432  10.987  20.470  0.00  0.00    +0.000 A 
ATOM     34  C   UNL     1       9.326  12.290  19.971  0.00  0.00    +0.000 A 
ATOM     35  C   UNL     1       9.624  13.478  20.839  0.00  0.00    +0.000 C 
ATOM     36  C   UNL     1       8.942  12.476  18.638  0.00  0.00    +0.000 A 
ATOM     37  C   UNL     1       8.675  11.378  17.815  0.00  0.00    +0.000 A 
ENDBRANCH  30  31
ENDBRANCH  28  30
ENDBRANCH   3  26
TORSDOF 7
ENDMDL
MODEL 2
REMARK VINA RESULT:      -8.3      0.195      1.182
REMARK  Name = 
REMARK  9 active torsions:
REMARK  status: ('A' for Active; 'I' for Inactive)
REMARK    1  A    between atoms: C_1  and  O_2
REMARK    2  A    between atoms: O_2  and  C_3
REMARK    3  A    between atoms: C_6  and  N_7
REMARK    4  A    between atoms: N_10  and  C_11
REMARK    5  A    between atoms: C_13  and  C_14
REMARK    6  A    between atoms: N_16  and  C_17
REMARK    7  A    between atoms: C_17  and  C_18
REMARK    8  A    between atoms: C_21  and  C_22
REMARK    9  A    between atoms: C_27  and  N_28
REMARK                            x       y       z     vdW  Elec       q    Type
REMARK                         _______ _______ _______ _____ _____    ______ ____
ROOT
ATOM      1  C   UNL     1       3.249   6.691  18.213  0.00  0.00    +0.000 A 
ATOM      2  C   UNL     1       4.459   7.261  17.785  0.00  0.00    +0.000 A 
ATOM      3  C   UNL     1       5.610   6.486  17.679  0.00  0.00    +0.000 A 
ATOM      4  C   UNL     1       5.557   5.147  18.060  0.00  0.00    +0.000 A 
ATOM      5  C   UNL     1       4.346   4.576  18.495  0.00  0.00    +0.000 A 
ATOM      6  C   UNL     1       3.158   5.323  18.578  0.00  0.00    +0.000 A 
ENDROOT
BRANCH   1  10
ATOM      7  N   UNL     1       0.605   8.874  19.403  0.00  0.00    +0.000 N 
ATOM      8  C   UNL     1       1.756   8.112  19.502  0.00  0.00    +0.000 C 
ATOM      9  O   UNL     1       2.411   7.974  20.531  0.00  0.00    +0.000 OA
ATOM     10  N   UNL     1       2.095   7.514  18.298  0.00  0.00    +0.000 N 
ATOM     11  H   UNL     1      -0.047   8.584  18.687  0.00  0.00    +0.000 HD
ATOM     12  H   UNL     1       1.915   8.050  17.458  0.00  0.00    +0.000 HD
BRANCH   7  16
ATOM     13  C   UNL     1      -0.807  11.328  22.550  0.00  0.00    +0.000 A 
ATOM     14  C   UNL     1      -0.442  11.897  21.333  0.00  0.00    +0.000 A 
ATOM     15  C   UNL     1       0.002  11.097  20.281  0.00  0.00    +0.000 A 
ATOM     16  C   UNL     1       0.119   9.713  20.433  0.00  0.00    +0.000 A 
ATOM     17  C   UNL     1      -0.266   9.139  21.648  0.00  0.00    +0.000 A 
ATOM     18  C   UNL     1      -0.717   9.944  22.707  0.00  0.00    +0.000 A 
BRANCH  13  20
ATOM     19  C   UNL     1      -2.218  13.132  23.143  0.00  0.00    +0.000 C 
ATOM     20  O   UNL     1      -1.189  12.223  23.509  0.00  0.00    +0.000 OA
ENDBRANCH  13  20
ENDBRANCH   7  16
ENDBRANCH   1  10
BRANCH   6  21
ATOM     21  N   UNL     1       1.916   4.757  18.934  0.00  0.00    +0.000 N 
ATOM     22  C   UNL     1       1.610   4.450  20.346  0.00  0.00    +0.000 C 
ATOM     23  C   UNL     1       1.366   2.946  20.391  0.00  0.00    +0.000 C 
ATOM     24  C   UNL     1       0.766   2.658  19.030  0.00  0.00    +0.000 C 
ATOM     25  C   UNL     1       1.536   3.588  18.100  0.00  0.00    +0.000 C 
ENDBRANCH   6  21
BRANCH   3  26
ATOM     26  C   UNL     1       6.898   7.055  17.186  0.00  0.00    +0.000 C 
ATOM     27  O   UNL     1       7.547   6.447  16.343  0.00  0.00    +0.000 OA
ATOM     28  N   UNL     1       7.270   8.270  17.714  0.00  0.00    +0.000 N 
ATOM     29  H   UNL     1       6.624   8.787  18.299  0.00  0.00    +0.000 HD
BRANCH  28  30
ATOM     30  C   UNL     1       8.508   8.928  17.356  0.00  0.00    +0.000 C 
BRANCH  30  31
ATOM     31  C   UNL     1       8.818  10.067  18.292  0.00  0.00    +0.000 A 
ATOM     32  C   UNL     1       8.798  11.394  17.841  0.00  0.00    +0.000 A 
ATOM     33  C   UNL     1       9.072  12.448  18.720  0.00  0.00    +0.000 A 
ATOM     34  C   UNL     1       9.378  12.194  20.061  0.00  0.00    +0.000 A 
ATOM     35  C   UNL     1       9.656  13.316  21.018  0.00  0.00    +0.000 C 
ATOM     36  C   UNL     1       9.415  10.868  20.508  0.00  0.00    +0.000 A 
ATOM     37  C   UNL     1       9.145   9.813  19.630  0.00  0.00    +0.000 A 
ENDBRANCH  30  31
ENDBRANCH  28  30
ENDBRANCH   3  26
TORSDOF 7
ENDMDL
MODEL 3
REMARK VINA RESULT:      -8.0      3.122      7.327
REMARK  Name = 
REMARK  9 active torsions:
REMARK  status: ('A' for Active; 'I' for Inactive)
REMARK    1  A    between atoms: C_1  and  O_2
REMARK    2  A    between atoms: O_2  and  C_3
REMARK    3  A    between atoms: C_6  and  N_7
REMARK    4  A    between atoms: N_10  and  C_11
REMARK    5  A    between atoms: C_13  and  C_14
REMARK    6  A    between atoms: N_16  and  C_17
REMARK    7  A    between atoms: C_17  and  C_18
REMARK    8  A    between atoms: C_21  and  C_22
REMARK    9  A    between atoms: C_27  and  N_28
REMARK                            x       y       z     vdW  Elec       q    Type
REMARK                         _______ _______ _______ _____ _____    ______ ____
ROOT
ATOM      1  C   UNL     1       1.031  11.401  18.958  0.00  0.00    +0.000 A 
ATOM      2  C   UNL     1       2.101  12.309  19.033  0.00  0.00    +0.000 A 
ATOM      3  C   UNL     1       1.920  13.648  18.700  0.00  0.00    +0.000 A 
ATOM      4  C   UNL     1       0.673  14.063  18.236  0.00  0.00    +0.000 A 
ATOM      5  C   UNL     1      -0.398  13.153  18.155  0.00  0.00    +0.000 A 
ATOM      6  C   UNL     1      -0.256  11.802  18.518  0.00  0.00    +0.000 A 
ENDROOT
BRANCH   1  10
ATOM      7  N   UNL     1       1.978   7.898  18.919  0.00  0.00    +0.000 N 
ATOM      8  C   UNL     1       1.838   9.175  18.406  0.00  0.00    +0.000 C 
ATOM      9  O   UNL     1       2.185   9.512  17.278  0.00  0.00    +0.000 OA
ATOM     10  N   UNL     1       1.256  10.045  19.315  0.00  0.00    +0.000 N 
ATOM     11  H   UNL     1       1.310   7.642  19.633  0.00  0.00    +0.000 HD
ATOM     12  H   UNL     1       1.502   9.917  20.289  0.00  0.00    +0.000 HD
BRANCH   7  16
ATOM     13  C   UNL     1       4.150   4.812  17.000  0.00  0.00    +0.000 A 
ATOM     14  C   UNL     1       2.926   4.532  17.602  0.00  0.00    +0.000 A 
ATOM     15  C   UNL     1       2.190   5.545  18.216  0.00  0.00    +0.000 A 
ATOM     16  C   UNL     1       2.676   6.854  18.268  0.00  0.00    +0.000 A 
ATOM     17  C   UNL     1       3.895   7.139  17.646  0.00  0.00    +0.000 A 
ATOM     18  C   UNL     1       4.635   6.120  17.024  0.00  0.00    +0.000 A 
BRANCH  13  20
ATOM     19  C   UNL     1       6.047   3.975  15.862  0.00  0.00    +0.000 C 
ATOM     20  O   UNL     1       4.786   3.728  16.466  0.00  0.00    +0.000 OA
ENDBRANCH  13  20
ENDBRANCH   7  16
ENDBRANCH   1  10
BRANCH   6  21
ATOM     21  N   UNL     1      -1.332  10.890  18.522  0.00  0.00    +0.000 N 
ATOM     22  C   UNL     1      -1.499   9.924  17.418  0.00  0.00    +0.000 C 
ATOM     23  C   UNL     1      -2.857  10.240  16.803  0.00  0.00    +0.000 C 
ATOM     24  C   UNL     1      -3.662  10.728  17.990  0.00  0.00    +0.000 C 
ATOM     25  C   UNL     1      -2.646  11.523  18.803  0.00  0.00    +0.000 C 
ENDBRANCH   6  21
BRANCH   3  26
ATOM     26  C   UNL     1       3.026  14.641  18.811  0.00  0.00    +0.000 C 
ATOM     27  O   UNL     1       2.913  15.593  19.576  0.00  0.00    +0.000 OA
ATOM     28  N   UNL     1       4.140  14.405  18.039  0.00  0.00    +0.000 N 
ATOM     29  H   UNL     1       4.230  13.530  17.536  0.00  0.00    +0.000 HD
BRANCH  28  30
ATOM     30  C   UNL     1       5.277  15.298  18.017  0.00  0.00    +0.000 C 
BRANCH  30  31
ATOM     31  C   UNL     1       6.571  14.548  18.195  0.00  0.00    +0.000 A 
ATOM     32  C   UNL     1       6.927  13.511  17.322  0.00  0.00    +0.000 A 
ATOM     33  C   UNL     1       8.138  12.829  17.483  0.00  0.00    +0.000 A 
ATOM     34  C   UNL     1       9.011  13.166  18.523  0.00  0.00    +0.000 A 
ATOM     35  C   UNL     1      10.321  12.455  18.696  0.00  0.00    +0.000 C 
ATOM     36  C   UNL     1       8.648  14.190  19.405  0.00  0.00    +0.000 A 
ATOM     37  C   UNL     1       7.437  14.871  19.248  0.00  0.00    +0.000 A 
ENDBRANCH  30  31
ENDBRANCH  28  30
ENDBRANCH   3  26
TORSDOF 7
ENDMDL
MODEL 4
REMARK VINA RESULT:      -8.0      3.480      7.639
REMARK  Name = 
REMARK  9 active torsions:
REMARK  status: ('A' for Active; 'I' for Inactive)
REMARK    1  A    between atoms: C_1  and  O_2
REMARK    2  A    between atoms: O_2  and  C_3
REMARK    3  A    between atoms: C_6  and  N_7
REMARK    4  A    between atoms: N_10  and  C_11
REMARK    5  A    between atoms: C_13  and  C_14
REMARK    6  A    between atoms: N_16  and  C_17
REMARK    7  A    between atoms: C_17  and  C_18
REMARK    8  A    between atoms: C_21  and  C_22
REMARK    9  A    between atoms: C_27  and  N_28
REMARK                            x       y       z     vdW  Elec       q    Type
REMARK                         _______ _______ _______ _____ _____    ______ ____
ROOT
ATOM      1  C   UNL     1       0.713  11.309  19.143  0.00  0.00    +0.000 A 
ATOM      2  C   UNL     1       1.676  12.294  19.421  0.00  0.00    +0.000 A 
ATOM      3  C   UNL     1       1.417  13.635  19.154  0.00  0.00    +0.000 A 
ATOM      4  C   UNL     1       0.208  13.980  18.553  0.00  0.00    +0.000 A 
ATOM      5  C   UNL     1      -0.755  12.993  18.269  0.00  0.00    +0.000 A 
ATOM      6  C   UNL     1      -0.538  11.635  18.560  0.00  0.00    +0.000 A 
ENDROOT
BRANCH   1  10
ATOM      7  N   UNL     1       1.896   7.883  18.965  0.00  0.00    +0.000 N 
ATOM      8  C   UNL     1       1.692   9.174  18.514  0.00  0.00    +0.000 C 
ATOM      9  O   UNL     1       2.063   9.596  17.422  0.00  0.00    +0.000 OA
ATOM     10  N   UNL     1       1.014   9.953  19.439  0.00  0.00    +0.000 N 
ATOM     11  H   UNL     1       1.216   7.544  19.632  0.00  0.00    +0.000 HD
ATOM     12  H   UNL     1       1.226   9.787  20.415  0.00  0.00    +0.000 HD
BRANCH   7  16
ATOM     13  C   UNL     1       4.352   5.059  16.987  0.00  0.00    +0.000 A 
ATOM     14  C   UNL     1       3.149   4.656  17.559  0.00  0.00    +0.000 A 
ATOM     15  C   UNL     1       2.320   5.581  18.193  0.00  0.00    +0.000 A 
ATOM     16  C   UNL     1       2.690   6.924  18.293  0.00  0.00    +0.000 A 
ATOM     17  C   UNL     1       3.889   7.334  17.701  0.00  0.00    +0.000 A 
ATOM     18  C   UNL     1       4.722   6.402  17.059  0.00  0.00    +0.000 A 
BRANCH  13  20
ATOM     19  C   UNL     1       5.603   4.296  15.129  0.00  0.00    +0.000 C 
ATOM     20  O   UNL     1       5.087   4.051  16.430  0.00  0.00    +0.000 OA
ENDBRANCH  13  20
ENDBRANCH   7  16
ENDBRANCH   1  10
BRANCH   6  21
ATOM     21  N   UNL     1      -1.517  10.639  18.359  0.00  0.00    +0.000 N 
ATOM     22  C   UNL     1      -1.525   9.836  17.120  0.00  0.00    +0.000 C 
ATOM     23  C   UNL     1      -2.872  10.117  16.463  0.00  0.00    +0.000 C 
ATOM     24  C   UNL     1      -3.786  10.350  17.649  0.00  0.00    +0.000 C 
ATOM     25  C   UNL     1      -2.901  11.103  18.635  0.00  0.00    +0.000 C 
ENDBRANCH   6  21
BRANCH   3  26
ATOM     26  C   UNL     1       2.404  14.705  19.478  0.00  0.00    +0.000 C 
ATOM     27  O   UNL     1       2.741  14.888  20.642  0.00  0.00    +0.000 OA
ATOM     28  N   UNL     1       2.898  15.423  18.414  0.00  0.00    +0.000 N 
ATOM     29  H   UNL     1       2.688  15.131  17.466  0.00  0.00    +0.000 HD
BRANCH  28  30
ATOM     30  C   UNL     1       3.837  16.511  18.577  0.00  0.00    +0.000 C 
BRANCH  30  31
ATOM     31  C   UNL     1       5.260  16.040  18.427  0.00  0.00    +0.000 A 
ATOM     32  C   UNL     1       6.330  16.840  18.850  0.00  0.00    +0.000 A 
ATOM     33  C   UNL     1       7.649  16.390  18.722  0.00  0.00    +0.000 A 
ATOM     34  C   UNL     1       7.921  15.137  18.164  0.00  0.00    +0.000 A 
ATOM     35  C   UNL     1       9.329  14.634  18.038  0.00  0.00    +0.000 C 
ATOM     36  C   UNL     1       6.853  14.344  17.726  0.00  0.00    +0.000 A 
ATOM     37  C   UNL     1       5.535  14.794  17.850  0.00  0.00    +0.000 A 
ENDBRANCH  30  31
ENDBRANCH  28  30
ENDBRANCH   3  26
TORSDOF 7
ENDMDL
MODEL 5
REMARK VINA RESULT:      -7.9      1.558      1.643
REMARK  Name = 
REMARK  9 active torsions:
REMARK  status: ('A' for Active; 'I' for Inactive)
REMARK    1  A    between atoms: C_1  and  O_2
REMARK    2  A    between atoms: O_2  and  C_3
REMARK    3  A    between atoms: C_6  and  N_7
REMARK    4  A    between atoms: N_10  and  C_11
REMARK    5  A    between atoms: C_13  and  C_14
REMARK    6  A    between atoms: N_16  and  C_17
REMARK    7  A    between atoms: C_17  and  C_18
REMARK    8  A    between atoms: C_21  and  C_22
REMARK    9  A    between atoms: C_27  and  N_28
REMARK                            x       y       z     vdW  Elec       q    Type
REMARK                         _______ _______ _______ _____ _____    ______ ____
ROOT
ATOM      1  C   UNL     1       3.256   6.861  17.890  0.00  0.00    +0.000 A 
ATOM      2  C   UNL     1       4.487   7.395  17.475  0.00  0.00    +0.000 A 
ATOM      3  C   UNL     1       5.681   6.748  17.782  0.00  0.00    +0.000 A 
ATOM      4  C   UNL     1       5.639   5.592  18.559  0.00  0.00    +0.000 A 
ATOM      5  C   UNL     1       4.406   5.059  18.980  0.00  0.00    +0.000 A 
ATOM      6  C   UNL     1       3.181   5.669  18.655  0.00  0.00    +0.000 A 
ENDROOT
BRANCH   1  10
ATOM      7  N   UNL     1       0.419   9.124  17.873  0.00  0.00    +0.000 N 
ATOM      8  C   UNL     1       1.593   8.573  18.354  0.00  0.00    +0.000 C 
ATOM      9  O   UNL     1       2.165   8.940  19.376  0.00  0.00    +0.000 OA
ATOM     10  N   UNL     1       2.061   7.547  17.547  0.00  0.00    +0.000 N 
ATOM     11  H   UNL     1      -0.155   8.505  17.318  0.00  0.00    +0.000 HD
ATOM     12  H   UNL     1       1.926   7.656  16.549  0.00  0.00    +0.000 HD
BRANCH   7  16
ATOM     13  C   UNL     1      -1.481  12.530  19.519  0.00  0.00    +0.000 A 
ATOM     14  C   UNL     1      -0.092  12.450  19.497  0.00  0.00    +0.000 A 
ATOM     15  C   UNL     1       0.546  11.344  18.937  0.00  0.00    +0.000 A 
ATOM     16  C   UNL     1      -0.192  10.281  18.411  0.00  0.00    +0.000 A 
ATOM     17  C   UNL     1      -1.588  10.370  18.414  0.00  0.00    +0.000 A 
ATOM     18  C   UNL     1      -2.230  11.486  18.976  0.00  0.00    +0.000 A 
BRANCH  13  20
ATOM     19  C   UNL     1      -3.254  13.508  20.743  0.00  0.00    +0.000 C 
ATOM     20  O   UNL     1      -1.981  13.646  20.128  0.00  0.00    +0.000 OA
ENDBRANCH  13  20
ENDBRANCH   7  16
ENDBRANCH   1  10
BRANCH   6  21
ATOM     21  N   UNL     1       1.930   5.112  18.996  0.00  0.00    +0.000 N 
ATOM     22  C   UNL     1       1.486   5.076  20.404  0.00  0.00    +0.000 C 
ATOM     23  C   UNL     1       1.296   3.600  20.732  0.00  0.00    +0.000 C 
ATOM     24  C   UNL     1       0.856   3.011  19.407  0.00  0.00    +0.000 C 
ATOM     25  C   UNL     1       1.686   3.781  18.386  0.00  0.00    +0.000 C 
ENDBRANCH   6  21
BRANCH   3  26
ATOM     26  C   UNL     1       6.998   7.270  17.319  0.00  0.00    +0.000 C 
ATOM     27  O   UNL     1       7.671   6.609  16.535  0.00  0.00    +0.000 OA
ATOM     28  N   UNL     1       7.372   8.503  17.802  0.00  0.00    +0.000 N 
ATOM     29  H   UNL     1       6.712   9.059  18.333  0.00  0.00    +0.000 HD
BRANCH  28  30
ATOM     30  C   UNL     1       8.636   9.121  17.466  0.00  0.00    +0.000 C 
BRANCH  30  31
ATOM     31  C   UNL     1       8.933  10.294  18.363  0.00  0.00    +0.000 A 
ATOM     32  C   UNL     1       9.320  10.100  19.696  0.00  0.00    +0.000 A 
ATOM     33  C   UNL     1       9.610  11.193  20.519  0.00  0.00    +0.000 A 
ATOM     34  C   UNL     1       9.510  12.499  20.027  0.00  0.00    +0.000 A 
ATOM     35  C   UNL     1       9.835  13.680  20.894  0.00  0.00    +0.000 C 
ATOM     36  C   UNL     1       9.106  12.694  18.701  0.00  0.00    +0.000 A 
ATOM     37  C   UNL     1       8.814  11.603  17.878  0.00  0.00    +0.000 A 
ENDBRANCH  30  31
ENDBRANCH  28  30
ENDBRANCH   3  26
TORSDOF 7
ENDMDL
MODEL 6
REMARK VINA RESULT:      -7.9      3.233      7.523
REMARK  Name = 
REMARK  9 active torsions:
REMARK  status: ('A' for Active; 'I' for Inactive)
REMARK    1  A    between atoms: C_1  and  O_2
REMARK    2  A    between atoms: O_2  and  C_3
REMARK    3  A    between atoms: C_6  and  N_7
REMARK    4  A    between atoms: N_10  and  C_11
REMARK    5  A    between atoms: C_13  and  C_14
REMARK    6  A    between atoms: N_16  and  C_17
REMARK    7  A    between atoms: C_17  and  C_18
REMARK    8  A    between atoms: C_21  and  C_22
REMARK    9  A    between atoms: C_27  and  N_28
REMARK                            x       y       z     vdW  Elec       q    Type
REMARK                         _______ _______ _______ _____ _____    ______ ____
ROOT
ATOM      1  C   UNL     1       0.698  11.355  19.097  0.00  0.00    +0.000 A 
ATOM      2  C   UNL     1       1.641  12.368  19.336  0.00  0.00    +0.000 A 
ATOM      3  C   UNL     1       1.349  13.695  19.035  0.00  0.00    +0.000 A 
ATOM      4  C   UNL     1       0.127  13.995  18.437  0.00  0.00    +0.000 A 
ATOM      5  C   UNL     1      -0.816  12.980  18.191  0.00  0.00    +0.000 A 
ATOM      6  C   UNL     1      -0.566  11.635  18.518  0.00  0.00    +0.000 A 
ENDROOT
BRANCH   1  10
ATOM      7  N   UNL     1       1.953   7.951  19.001  0.00  0.00    +0.000 N 
ATOM      8  C   UNL     1       1.714   9.223  18.516  0.00  0.00    +0.000 C 
ATOM      9  O   UNL     1       2.061   9.620  17.407  0.00  0.00    +0.000 OA
ATOM     10  N   UNL     1       1.032  10.015  19.427  0.00  0.00    +0.000 N 
ATOM     11  H   UNL     1       1.290   7.617  19.688  0.00  0.00    +0.000 HD
ATOM     12  H   UNL     1       1.261   9.882  20.405  0.00  0.00    +0.000 HD
BRANCH   7  16
ATOM     13  C   UNL     1       4.284   5.032  17.009  0.00  0.00    +0.000 A 
ATOM     14  C   UNL     1       4.719   6.353  17.063  0.00  0.00    +0.000 A 
ATOM     15  C   UNL     1       3.972   7.319  17.737  0.00  0.00    +0.000 A 
ATOM     16  C   UNL     1       2.758   6.990  18.346  0.00  0.00    +0.000 A 
ATOM     17  C   UNL     1       2.330   5.659  18.309  0.00  0.00    +0.000 A 
ATOM     18  C   UNL     1       3.085   4.686  17.633  0.00  0.00    +0.000 A 
BRANCH  13  20
ATOM     19  C   UNL     1       5.451   4.637  14.989  0.00  0.00    +0.000 C 
ATOM     20  O   UNL     1       5.087   4.194  16.289  0.00  0.00    +0.000 OA
ENDBRANCH  13  20
ENDBRANCH   7  16
ENDBRANCH   1  10
BRANCH   6  21
ATOM     21  N   UNL     1      -1.524  10.613  18.355  0.00  0.00    +0.000 N 
ATOM     22  C   UNL     1      -1.528   9.777  17.138  0.00  0.00    +0.000 C 
ATOM     23  C   UNL     1      -2.888  10.009  16.490  0.00  0.00    +0.000 C 
ATOM     24  C   UNL     1      -3.794  10.253  17.679  0.00  0.00    +0.000 C 
ATOM     25  C   UNL     1      -2.914  11.053  18.635  0.00  0.00    +0.000 C 
ENDBRANCH   6  21
BRANCH   3  26
ATOM     26  C   UNL     1       2.315  14.795  19.318  0.00  0.00    +0.000 C 
ATOM     27  O   UNL     1       2.028  15.947  19.014  0.00  0.00    +0.000 OA
ATOM     28  N   UNL     1       3.489  14.434  19.938  0.00  0.00    +0.000 N 
ATOM     29  H   UNL     1       3.606  13.490  20.289  0.00  0.00    +0.000 HD
BRANCH  28  30
ATOM     30  C   UNL     1       4.533  15.387  20.245  0.00  0.00    +0.000 C 
BRANCH  30  31
ATOM     31  C   UNL     1       5.846  14.987  19.625  0.00  0.00    +0.000 A 
ATOM     32  C   UNL     1       5.947  14.746  18.248  0.00  0.00    +0.000 A 
ATOM     33  C   UNL     1       7.173  14.391  17.676  0.00  0.00    +0.000 A 
ATOM     34  C   UNL     1       8.317  14.262  18.470  0.00  0.00    +0.000 A 
ATOM     35  C   UNL     1       9.642  13.899  17.867  0.00  0.00    +0.000 C 
ATOM     36  C   UNL     1       8.213  14.485  19.848  0.00  0.00    +0.000 A 
ATOM     37  C   UNL     1       6.988  14.838  20.422  0.00  0.00    +0.000 A 
ENDBRANCH  30  31
ENDBRANCH  28  30
ENDBRANCH   3  26
TORSDOF 7
ENDMDL
MODEL 7
REMARK VINA RESULT:      -7.9      1.525      1.746
REMARK  Name = 
REMARK  9 active torsions:
REMARK  status: ('A' for Active; 'I' for Inactive)
REMARK    1  A    between atoms: C_1  and  O_2
REMARK    2  A    between atoms: O_2  and  C_3
REMARK    3  A    between atoms: C_6  and  N_7
REMARK    4  A    between atoms: N_10  and  C_11
REMARK    5  A    between atoms: C_13  and  C_14
REMARK    6  A    between atoms: N_16  and  C_17
REMARK    7  A    between atoms: C_17  and  C_18
REMARK    8  A    between atoms: C_21  and  C_22
REMARK    9  A    between atoms: C_27  and  N_28
REMARK                            x       y       z     vdW  Elec       q    Type
REMARK                         _______ _______ _______ _____ _____    ______ ____
ROOT
ATOM      1  C   UNL     1       3.313   6.885  17.861  0.00  0.00    +0.000 A 
ATOM      2  C   UNL     1       4.558   7.413  17.481  0.00  0.00    +0.000 A 
ATOM      3  C   UNL     1       5.736   6.730  17.769  0.00  0.00    +0.000 A 
ATOM      4  C   UNL     1       5.665   5.542  18.493  0.00  0.00    +0.000 A 
ATOM      5  C   UNL     1       4.418   5.015  18.880  0.00  0.00    +0.000 A 
ATOM      6  C   UNL     1       3.208   5.662  18.572  0.00  0.00    +0.000 A 
ENDROOT
BRANCH   1  10
ATOM      7  N   UNL     1       0.521   9.204  17.919  0.00  0.00    +0.000 N 
ATOM      8  C   UNL     1       1.680   8.609  18.385  0.00  0.00    +0.000 C 
ATOM      9  O   UNL     1       2.251   8.921  19.427  0.00  0.00    +0.000 OA
ATOM     10  N   UNL     1       2.134   7.609  17.539  0.00  0.00    +0.000 N 
ATOM     11  H   UNL     1      -0.061   8.620  17.334  0.00  0.00    +0.000 HD
ATOM     12  H   UNL     1       2.010   7.763  16.546  0.00  0.00    +0.000 HD
BRANCH   7  16
ATOM     13  C   UNL     1      -1.199  12.685  19.606  0.00  0.00    +0.000 A 
ATOM     14  C   UNL     1      -1.978  11.548  19.408  0.00  0.00    +0.000 A 
ATOM     15  C   UNL     1      -1.418  10.388  18.876  0.00  0.00    +0.000 A 
ATOM     16  C   UNL     1      -0.072  10.348  18.502  0.00  0.00    +0.000 A 
ATOM     17  C   UNL     1       0.716  11.483  18.718  0.00  0.00    +0.000 A 
ATOM     18  C   UNL     1       0.151  12.651  19.258  0.00  0.00    +0.000 A 
BRANCH  13  20
ATOM     19  C   UNL     1      -3.077  13.482  20.803  0.00  0.00    +0.000 C 
ATOM     20  O   UNL     1      -1.876  13.764  20.099  0.00  0.00    +0.000 OA
ENDBRANCH  13  20
ENDBRANCH   7  16
ENDBRANCH   1  10
BRANCH   6  21
ATOM     21  N   UNL     1       1.944   5.116  18.878  0.00  0.00    +0.000 N 
ATOM     22  C   UNL     1       1.499   4.997  20.281  0.00  0.00    +0.000 C 
ATOM     23  C   UNL     1       1.272   3.507  20.510  0.00  0.00    +0.000 C 
ATOM     24  C   UNL     1       0.817   3.020  19.150  0.00  0.00    +0.000 C 
ATOM     25  C   UNL     1       1.666   3.835  18.181  0.00  0.00    +0.000 C 
ENDBRANCH   6  21
BRANCH   3  26
ATOM     26  C   UNL     1       7.067   7.246  17.340  0.00  0.00    +0.000 C 
ATOM     27  O   UNL     1       7.788   6.551  16.632  0.00  0.00    +0.000 OA
ATOM     28  N   UNL     1       7.399   8.512  17.764  0.00  0.00    +0.000 N 
ATOM     29  H   UNL     1       6.705   9.087  18.227  0.00  0.00    +0.000 HD
BRANCH  28  30
ATOM     30  C   UNL     1       8.669   9.130  17.453  0.00  0.00    +0.000 C 
BRANCH  30  31
ATOM     31  C   UNL     1       8.951  10.298  18.361  0.00  0.00    +0.000 A 
ATOM     32  C   UNL     1       8.868  11.615  17.887  0.00  0.00    +0.000 A 
ATOM     33  C   UNL     1       9.116  12.695  18.740  0.00  0.00    +0.000 A 
ATOM     34  C   UNL     1       9.458  12.480  20.079  0.00  0.00    +0.000 A 
ATOM     35  C   UNL     1       9.708  13.631  21.009  0.00  0.00    +0.000 C 
ATOM     36  C   UNL     1       9.558  11.166  20.549  0.00  0.00    +0.000 A 
ATOM     37  C   UNL     1       9.313  10.085  19.698  0.00  0.00    +0.000 A 
ENDBRANCH  30  31
ENDBRANCH  28  30
ENDBRANCH   3  26
TORSDOF 7
ENDMDL
MODEL 8
REMARK VINA RESULT:      -7.7      3.645      7.473
REMARK  Name = 
REMARK  9 active torsions:
REMARK  status: ('A' for Active; 'I' for Inactive)
REMARK    1  A    between atoms: C_1  and  O_2
REMARK    2  A    between atoms: O_2  and  C_3
REMARK    3  A    between atoms: C_6  and  N_7
REMARK    4  A    between atoms: N_10  and  C_11
REMARK    5  A    between atoms: C_13  and  C_14
REMARK    6  A    between atoms: N_16  and  C_17
REMARK    7  A    between atoms: C_17  and  C_18
REMARK    8  A    between atoms: C_21  and  C_22
REMARK    9  A    between atoms: C_27  and  N_28
REMARK                            x       y       z     vdW  Elec       q    Type
REMARK                         _______ _______ _______ _____ _____    ______ ____
ROOT
ATOM      1  C   UNL     1       1.020  10.317  19.289  0.00  0.00    +0.000 A 
ATOM      2  C   UNL     1       1.734   9.108  19.342  0.00  0.00    +0.000 A 
ATOM      3  C   UNL     1       1.324   8.079  20.183  0.00  0.00    +0.000 A 
ATOM      4  C   UNL     1       0.226   8.287  21.016  0.00  0.00    +0.000 A 
ATOM      5  C   UNL     1      -0.486   9.500  20.968  0.00  0.00    +0.000 A 
ATOM      6  C   UNL     1      -0.119  10.545  20.102  0.00  0.00    +0.000 A 
ENDROOT
BRANCH   1  10
ATOM      7  N   UNL     1       2.507  13.330  17.917  0.00  0.00    +0.000 N 
ATOM      8  C   UNL     1       2.152  12.435  18.910  0.00  0.00    +0.000 C 
ATOM      9  O   UNL     1       2.408  12.583  20.102  0.00  0.00    +0.000 OA
ATOM     10  N   UNL     1       1.467  11.339  18.410  0.00  0.00    +0.000 N 
ATOM     11  H   UNL     1       1.908  13.333  17.103  0.00  0.00    +0.000 HD
ATOM     12  H   UNL     1       1.758  10.997  17.502  0.00  0.00    +0.000 HD
BRANCH   7  16
ATOM     13  C   UNL     1       4.946  16.721  18.604  0.00  0.00    +0.000 A 
ATOM     14  C   UNL     1       5.526  15.504  18.256  0.00  0.00    +0.000 A 
ATOM     15  C   UNL     1       4.732  14.386  18.005  0.00  0.00    +0.000 A 
ATOM     16  C   UNL     1       3.342  14.453  18.123  0.00  0.00    +0.000 A 
ATOM     17  C   UNL     1       2.757  15.680  18.452  0.00  0.00    +0.000 A 
ATOM     18  C   UNL     1       3.557  16.807  18.702  0.00  0.00    +0.000 A 
BRANCH  13  20
ATOM     19  C   UNL     1       7.103  17.330  19.360  0.00  0.00    +0.000 C 
ATOM     20  O   UNL     1       5.834  17.727  18.859  0.00  0.00    +0.000 OA
ENDBRANCH  13  20
ENDBRANCH   7  16
ENDBRANCH   1  10
BRANCH   6  21
ATOM     21  N   UNL     1      -0.863  11.738  19.978  0.00  0.00    +0.000 N 
ATOM     22  C   UNL     1      -1.077  12.612  21.147  0.00  0.00    +0.000 C 
ATOM     23  C   UNL     1      -2.589  12.672  21.338  0.00  0.00    +0.000 C 
ATOM     24  C   UNL     1      -3.115  12.552  19.923  0.00  0.00    +0.000 C 
ATOM     25  C   UNL     1      -2.158  11.558  19.273  0.00  0.00    +0.000 C 
ENDBRANCH   6  21
BRANCH   3  26
ATOM     26  C   UNL     1       2.038   6.770  20.229  0.00  0.00    +0.000 C 
ATOM     27  O   UNL     1       1.555   5.837  20.861  0.00  0.00    +0.000 OA
ATOM     28  N   UNL     1       3.215   6.691  19.521  0.00  0.00    +0.000 N 
ATOM     29  H   UNL     1       3.487   7.450  18.907  0.00  0.00    +0.000 HD
BRANCH  28  30
ATOM     30  C   UNL     1       4.032   5.498  19.499  0.00  0.00    +0.000 C 
BRANCH  30  31
ATOM     31  C   UNL     1       4.803   5.381  18.211  0.00  0.00    +0.000 A 
ATOM     32  C   UNL     1       5.884   4.496  18.097  0.00  0.00    +0.000 A 
ATOM     33  C   UNL     1       6.586   4.380  16.892  0.00  0.00    +0.000 A 
ATOM     34  C   UNL     1       6.225   5.152  15.783  0.00  0.00    +0.000 A 
ATOM     35  C   UNL     1       6.958   5.025  14.480  0.00  0.00    +0.000 C 
ATOM     36  C   UNL     1       5.157   6.049  15.901  0.00  0.00    +0.000 A 
ATOM     37  C   UNL     1       4.457   6.168  17.105  0.00  0.00    +0.000 A 
ENDBRANCH  30  31
ENDBRANCH  28  30
ENDBRANCH   3  26
TORSDOF 7
ENDMDL
MODEL 9
REMARK VINA RESULT:      -7.7      1.032      1.310
REMARK  Name = 
REMARK  9 active torsions:
REMARK  status: ('A' for Active; 'I' for Inactive)
REMARK    1  A    between atoms: C_1  and  O_2
REMARK    2  A    between atoms: O_2  and  C_3
REMARK    3  A    between atoms: C_6  and  N_7
REMARK    4  A    between atoms: N_10  and  C_11
REMARK    5  A    between atoms: C_13  and  C_14
REMARK    6  A    between atoms: N_16  and  C_17
REMARK    7  A    between atoms: C_17  and  C_18
REMARK    8  A    between atoms: C_21  and  C_22
REMARK    9  A    between atoms: C_27  and  N_28
REMARK                            x       y       z     vdW  Elec       q    Type
REMARK                         _______ _______ _______ _____ _____    ______ ____
ROOT
ATOM      1  C   UNL     1       3.610   6.052  19.070  0.00  0.00    +0.000 A 
ATOM      2  C   UNL     1       4.813   6.630  18.631  0.00  0.00    +0.000 A 
ATOM      3  C   UNL     1       5.487   6.112  17.529  0.00  0.00    +0.000 A 
ATOM      4  C   UNL     1       4.979   4.975  16.902  0.00  0.00    +0.000 A 
ATOM      5  C   UNL     1       3.777   4.393  17.346  0.00  0.00    +0.000 A 
ATOM      6  C   UNL     1       3.054   4.914  18.434  0.00  0.00    +0.000 A 
ENDROOT
BRANCH   1  10
ATOM      7  N   UNL     1       1.618   8.175  21.238  0.00  0.00    +0.000 N 
ATOM      8  C   UNL     1       2.184   7.764  20.045  0.00  0.00    +0.000 C 
ATOM      9  O   UNL     1       2.033   8.338  18.970  0.00  0.00    +0.000 OA
ATOM     10  N   UNL     1       2.949   6.617  20.193  0.00  0.00    +0.000 N 
ATOM     11  H   UNL     1       2.125   7.911  22.072  0.00  0.00    +0.000 HD
ATOM     12  H   UNL     1       2.613   5.929  20.856  0.00  0.00    +0.000 HD
BRANCH   7  16
ATOM     13  C   UNL     1      -1.175  11.329  21.652  0.00  0.00    +0.000 A 
ATOM     14  C   UNL     1      -0.669  11.007  20.395  0.00  0.00    +0.000 A 
ATOM     15  C   UNL     1       0.233   9.955  20.243  0.00  0.00    +0.000 A 
ATOM     16  C   UNL     1       0.672   9.221  21.348  0.00  0.00    +0.000 A 
ATOM     17  C   UNL     1       0.149   9.531  22.607  0.00  0.00    +0.000 A 
ATOM     18  C   UNL     1      -0.762  10.589  22.760  0.00  0.00    +0.000 A 
BRANCH  13  20
ATOM     19  C   UNL     1      -2.837  12.576  20.522  0.00  0.00    +0.000 C 
ATOM     20  O   UNL     1      -2.020  12.402  21.670  0.00  0.00    +0.000 OA
ENDBRANCH  13  20
ENDBRANCH   7  16
ENDBRANCH   1  10
BRANCH   6  21
ATOM     21  N   UNL     1       1.808   4.397  18.847  0.00  0.00    +0.000 N 
ATOM     22  C   UNL     1       1.553   4.108  20.272  0.00  0.00    +0.000 C 
ATOM     23  C   UNL     1       1.253   2.615  20.336  0.00  0.00    +0.000 C 
ATOM     24  C   UNL     1       0.582   2.345  19.005  0.00  0.00    +0.000 C 
ATOM     25  C   UNL     1       1.346   3.242  18.037  0.00  0.00    +0.000 C 
ENDBRANCH   6  21
BRANCH   3  26
ATOM     26  C   UNL     1       6.743   6.731  17.015  0.00  0.00    +0.000 C 
ATOM     27  O   UNL     1       7.385   6.162  16.138  0.00  0.00    +0.000 OA
ATOM     28  N   UNL     1       7.096   7.943  17.561  0.00  0.00    +0.000 N 
ATOM     29  H   UNL     1       6.452   8.426  18.177  0.00  0.00    +0.000 HD
BRANCH  28  30
ATOM     30  C   UNL     1       8.303   8.645  17.185  0.00  0.00    +0.000 C 
BRANCH  30  31
ATOM     31  C   UNL     1       8.609   9.768  18.141  0.00  0.00    +0.000 A 
ATOM     32  C   UNL     1       9.027   9.502  19.452  0.00  0.00    +0.000 A 
ATOM     33  C   UNL     1       9.325  10.550  20.330  0.00  0.00    +0.000 A 
ATOM     34  C   UNL     1       9.202  11.881  19.917  0.00  0.00    +0.000 A 
ATOM     35  C   UNL     1       9.536  13.013  20.843  0.00  0.00    +0.000 C 
ATOM     36  C   UNL     1       8.767  12.147  18.613  0.00  0.00    +0.000 A 
ATOM     37  C   UNL     1       8.467  11.101  17.736  0.00  0.00    +0.000 A 
ENDBRANCH  30  31
ENDBRANCH  28  30
ENDBRANCH   3  26
TORSDOF 7
ENDMDL
