MODEL 1
REMARK VINA RESULT:      -6.9      0.000      0.000
REMARK  Name = 
REMARK  8 active torsions:
REMARK  status: ('A' for Active; 'I' for Inactive)
REMARK    1  A    between atoms: C_1  and  C_2
REMARK    2  A    between atoms: C_5  and  N_6
REMARK    3  A    between atoms: N_9  and  C_10
REMARK    4  A    between atoms: C_10  and  C_11
REMARK    5  A    between atoms: C_10  and  C_15
REMARK    6  A    between atoms: C_11  and  C_12
REMARK    7  A    between atoms: C_11  and  C_13
REMARK    8  A    between atoms: C_11  and  C_14
REMARK                            x       y       z     vdW  Elec       q    Type
REMARK                         _______ _______ _______ _____ _____    ______ ____
ROOT
ATOM      1  N   UNL     1       7.717   9.110  17.401  0.00  0.00    +0.000 N 
ATOM      2  C   UNL     1       7.560   7.758  17.610  0.00  0.00    +0.000 C 
ATOM      3  O   UNL     1       8.142   7.066  18.435  0.00  0.00    +0.000 OA
ATOM      4  N   UNL     1       6.582   7.214  16.800  0.00  0.00    +0.000 N 
ATOM      5  H   UNL     1       7.169   9.525  16.664  0.00  0.00    +0.000 HD
ATOM      6  H   UNL     1       6.492   7.631  15.887  0.00  0.00    +0.000 HD
ENDROOT
BRANCH   1  11
ATOM      7  C   UNL     1      10.814  12.861  20.449  0.00  0.00    +0.000 C 
ATOM      8  C   UNL     1      10.021  11.867  19.650  0.00  0.00    +0.000 A 
ATOM      9  C   UNL     1       9.799  10.584  20.146  0.00  0.00    +0.000 A 
ATOM     10  C   UNL     1       9.054   9.658  19.410  0.00  0.00    +0.000 A 
ATOM     11  C   UNL     1       8.513   9.992  18.168  0.00  0.00    +0.000 A 
ATOM     12  C   UNL     1       8.745  11.279  17.666  0.00  0.00    +0.000 A 
ATOM     13  C   UNL     1       9.495  12.209  18.401  0.00  0.00    +0.000 A 
ENDBRANCH   1  11
BRANCH   4  14
ATOM     14  C   UNL     1       6.318   5.752  16.908  0.00  0.00    +0.000 C 
BRANCH  14  15
ATOM     15  C   UNL     1       4.994   5.471  17.701  0.00  0.00    +0.000 C 
ATOM     16  C   UNL     1       4.253   4.234  17.162  0.00  0.00    +0.000 C 
ATOM     17  C   UNL     1       5.274   5.279  19.207  0.00  0.00    +0.000 C 
ATOM     18  C   UNL     1       4.053   6.692  17.571  0.00  0.00    +0.000 C 
ENDBRANCH  14  15
BRANCH  14  19
ATOM     19  C   UNL     1       6.487   4.993  15.556  0.00  0.00    +0.000 C 
ATOM     20  F   UNL     1       6.564   3.652  15.739  0.00  0.00    +0.000 F 
ATOM     21  F   UNL     1       5.449   5.233  14.722  0.00  0.00    +0.000 F 
ATOM     22  F   UNL     1       7.613   5.342  14.894  0.00  0.00    +0.000 F 
ENDBRANCH  14  19
ENDBRANCH   4  14
TORSDOF 4
ENDMDL
MODEL 2
REMARK VINA RESULT:      -6.9      6.131      7.055
REMARK  Name = 
REMARK  8 active torsions:
REMARK  status: ('A' for Active; 'I' for Inactive)
REMARK    1  A    between atoms: C_1  and  C_2
REMARK    2  A    between atoms: C_5  and  N_6
REMARK    3  A    between atoms: N_9  and  C_10
REMARK    4  A    between atoms: C_10  and  C_11
REMARK    5  A    between atoms: C_10  and  C_15
REMARK    6  A    between atoms: C_11  and  C_12
REMARK    7  A    between atoms: C_11  and  C_13
REMARK    8  A    between atoms: C_11  and  C_14
REMARK                            x       y       z     vdW  Elec       q    Type
REMARK                         _______ _______ _______ _____ _____    ______ ____
ROOT
ATOM      1  N   UNL     1       1.934   7.781  19.871  0.00  0.00    +0.000 N 
ATOM      2  C   UNL     1       2.136   6.448  20.145  0.00  0.00    +0.000 C 
ATOM      3  O   UNL     1       1.769   5.833  21.138  0.00  0.00    +0.000 OA
ATOM      4  N   UNL     1       2.781   5.794  19.112  0.00  0.00    +0.000 N 
ATOM      5  H   UNL     1       2.320   8.135  19.010  0.00  0.00    +0.000 HD
ATOM      6  H   UNL     1       3.451   6.345  18.599  0.00  0.00    +0.000 HD
ENDROOT
BRANCH   1  11
ATOM      7  C   UNL     1      -1.335  11.447  22.842  0.00  0.00    +0.000 C 
ATOM      8  C   UNL     1      -0.462  10.497  22.074  0.00  0.00    +0.000 A 
ATOM      9  C   UNL     1       0.382   9.616  22.746  0.00  0.00    +0.000 A 
ATOM     10  C   UNL     1       1.189   8.724  22.034  0.00  0.00    +0.000 A 
ATOM     11  C   UNL     1       1.170   8.691  20.640  0.00  0.00    +0.000 A 
ATOM     12  C   UNL     1       0.328   9.584  19.963  0.00  0.00    +0.000 A 
ATOM     13  C   UNL     1      -0.481  10.481  20.676  0.00  0.00    +0.000 A 
ENDBRANCH   1  11
BRANCH   4  14
ATOM     14  C   UNL     1       3.082   4.345  19.282  0.00  0.00    +0.000 C 
BRANCH  14  15
ATOM     15  C   UNL     1       2.040   3.456  18.518  0.00  0.00    +0.000 C 
ATOM     16  C   UNL     1       2.705   2.240  17.846  0.00  0.00    +0.000 C 
ATOM     17  C   UNL     1       0.923   2.964  19.463  0.00  0.00    +0.000 C 
ATOM     18  C   UNL     1       1.357   4.301  17.417  0.00  0.00    +0.000 C 
ENDBRANCH  14  15
BRANCH  14  19
ATOM     19  C   UNL     1       4.585   3.996  19.054  0.00  0.00    +0.000 C 
ATOM     20  F   UNL     1       5.404   4.934  19.589  0.00  0.00    +0.000 F 
ATOM     21  F   UNL     1       4.907   2.806  19.611  0.00  0.00    +0.000 F 
ATOM     22  F   UNL     1       4.915   3.920  17.745  0.00  0.00    +0.000 F 
ENDBRANCH  14  19
ENDBRANCH   4  14
TORSDOF 4
ENDMDL
MODEL 3
REMARK VINA RESULT:      -6.9      0.471      1.383
REMARK  Name = 
REMARK  8 active torsions:
REMARK  status: ('A' for Active; 'I' for Inactive)
REMARK    1  A    between atoms: C_1  and  C_2
REMARK    2  A    between atoms: C_5  and  N_6
REMARK    3  A    between atoms: N_9  and  C_10
REMARK    4  A    between atoms: C_10  and  C_11
REMARK    5  A    between atoms: C_10  and  C_15
REMARK    6  A    between atoms: C_11  and  C_12
REMARK    7  A    between atoms: C_11  and  C_13
REMARK    8  A    between atoms: C_11  and  C_14
REMARK                            x       y       z     vdW  Elec       q    Type
REMARK                         _______ _______ _______ _____ _____    ______ ____
ROOT
ATOM      1  N   UNL     1       7.884   9.118  17.518  0.00  0.00    +0.000 N 
ATOM      2  C   UNL     1       7.657   7.771  17.692  0.00  0.00    +0.000 C 
ATOM      3  O   UNL     1       8.264   7.010  18.433  0.00  0.00    +0.000 OA
ATOM      4  N   UNL     1       6.576   7.324  16.957  0.00  0.00    +0.000 N 
ATOM      5  H   UNL     1       7.301   9.597  16.851  0.00  0.00    +0.000 HD
ATOM      6  H   UNL     1       6.432   7.784  16.072  0.00  0.00    +0.000 HD
ENDROOT
BRANCH   1  11
ATOM      7  C   UNL     1      11.574  12.525  20.298  0.00  0.00    +0.000 C 
ATOM      8  C   UNL     1      10.619  11.616  19.579  0.00  0.00    +0.000 A 
ATOM      9  C   UNL     1       9.811  10.735  20.295  0.00  0.00    +0.000 A 
ATOM     10  C   UNL     1       8.914   9.894  19.630  0.00  0.00    +0.000 A 
ATOM     11  C   UNL     1       8.803   9.915  18.239  0.00  0.00    +0.000 A 
ATOM     12  C   UNL     1       9.623  10.794  17.519  0.00  0.00    +0.000 A 
ATOM     13  C   UNL     1      10.525  11.637  18.184  0.00  0.00    +0.000 A 
ENDBRANCH   1  11
BRANCH   4  14
ATOM     14  C   UNL     1       6.227   5.878  17.036  0.00  0.00    +0.000 C 
BRANCH  14  15
ATOM     15  C   UNL     1       4.852   5.665  17.761  0.00  0.00    +0.000 C 
ATOM     16  C   UNL     1       3.950   6.909  17.658  0.00  0.00    +0.000 C 
ATOM     17  C   UNL     1       4.101   4.444  17.188  0.00  0.00    +0.000 C 
ATOM     18  C   UNL     1       5.104   5.374  19.259  0.00  0.00    +0.000 C 
ENDBRANCH  14  15
BRANCH  14  19
ATOM     19  C   UNL     1       6.420   5.122  15.686  0.00  0.00    +0.000 C 
ATOM     20  F   UNL     1       7.508   5.567  15.012  0.00  0.00    +0.000 F 
ATOM     21  F   UNL     1       6.575   3.792  15.881  0.00  0.00    +0.000 F 
ATOM     22  F   UNL     1       5.374   5.276  14.843  0.00  0.00    +0.000 F 
ENDBRANCH  14  19
ENDBRANCH   4  14
TORSDOF 4
ENDMDL
MODEL 4
REMARK VINA RESULT:      -6.9      6.715      7.682
REMARK  Name = 
REMARK  8 active torsions:
REMARK  status: ('A' for Active; 'I' for Inactive)
REMARK    1  A    between atoms: C_1  and  C_2
REMARK    2  A    between atoms: C_5  and  N_6
REMARK    3  A    between atoms: N_9  and  C_10
REMARK    4  A    between atoms: C_10  and  C_11
REMARK    5  A    between atoms: C_10  and  C_15
REMARK    6  A    between atoms: C_11  and  C_12
REMARK    7  A    between atoms: C_11  and  C_13
REMARK    8  A    between atoms: C_11  and  C_14
REMARK                            x       y       z     vdW  Elec       q    Type
REMARK                         _______ _______ _______ _____ _____    ______ ____
ROOT
ATOM      1  N   UNL     1       2.122   7.410  20.812  0.00  0.00    +0.000 N 
ATOM      2  C   UNL     1       1.750   6.119  20.514  0.00  0.00    +0.000 C 
ATOM      3  O   UNL     1       0.611   5.681  20.423  0.00  0.00    +0.000 OA
ATOM      4  N   UNL     1       2.837   5.310  20.249  0.00  0.00    +0.000 N 
ATOM      5  H   UNL     1       3.110   7.600  20.866  0.00  0.00    +0.000 HD
ATOM      6  H   UNL     1       3.675   5.521  20.769  0.00  0.00    +0.000 HD
ENDROOT
BRANCH   1  11
ATOM      7  C   UNL     1      -1.282  11.952  21.670  0.00  0.00    +0.000 C 
ATOM      8  C   UNL     1      -0.407  10.755  21.433  0.00  0.00    +0.000 A 
ATOM      9  C   UNL     1       0.029  10.446  20.146  0.00  0.00    +0.000 A 
ATOM     10  C   UNL     1       0.851   9.338  19.922  0.00  0.00    +0.000 A 
ATOM     11  C   UNL     1       1.257   8.517  20.975  0.00  0.00    +0.000 A 
ATOM     12  C   UNL     1       0.811   8.823  22.268  0.00  0.00    +0.000 A 
ATOM     13  C   UNL     1      -0.017   9.933  22.494  0.00  0.00    +0.000 A 
ENDBRANCH   1  11
BRANCH   4  14
ATOM     14  C   UNL     1       2.582   3.877  19.929  0.00  0.00    +0.000 C 
BRANCH  14  15
ATOM     15  C   UNL     1       3.480   3.393  18.738  0.00  0.00    +0.000 C 
ATOM     16  C   UNL     1       4.965   3.735  18.961  0.00  0.00    +0.000 C 
ATOM     17  C   UNL     1       3.338   1.872  18.512  0.00  0.00    +0.000 C 
ATOM     18  C   UNL     1       3.016   4.085  17.434  0.00  0.00    +0.000 C 
ENDBRANCH  14  15
BRANCH  14  19
ATOM     19  C   UNL     1       2.553   2.958  21.189  0.00  0.00    +0.000 C 
ATOM     20  F   UNL     1       2.385   3.674  22.328  0.00  0.00    +0.000 F 
ATOM     21  F   UNL     1       1.547   2.056  21.121  0.00  0.00    +0.000 F 
ATOM     22  F   UNL     1       3.698   2.259  21.356  0.00  0.00    +0.000 F 
ENDBRANCH  14  19
ENDBRANCH   4  14
TORSDOF 4
ENDMDL
MODEL 5
REMARK VINA RESULT:      -6.9      6.195      7.154
REMARK  Name = 
REMARK  8 active torsions:
REMARK  status: ('A' for Active; 'I' for Inactive)
REMARK    1  A    between atoms: C_1  and  C_2
REMARK    2  A    between atoms: C_5  and  N_6
REMARK    3  A    between atoms: N_9  and  C_10
REMARK    4  A    between atoms: C_10  and  C_11
REMARK    5  A    between atoms: C_10  and  C_15
REMARK    6  A    between atoms: C_11  and  C_12
REMARK    7  A    between atoms: C_11  and  C_13
REMARK    8  A    between atoms: C_11  and  C_14
REMARK                            x       y       z     vdW  Elec       q    Type
REMARK                         _______ _______ _______ _____ _____    ______ ____
ROOT
ATOM      1  N   UNL     1       2.012   7.713  19.902  0.00  0.00    +0.000 N 
ATOM      2  C   UNL     1       2.129   6.363  20.143  0.00  0.00    +0.000 C 
ATOM      3  O   UNL     1       1.608   5.726  21.050  0.00  0.00    +0.000 OA
ATOM      4  N   UNL     1       2.884   5.723  19.179  0.00  0.00    +0.000 N 
ATOM      5  H   UNL     1       2.525   8.083  19.118  0.00  0.00    +0.000 HD
ATOM      6  H   UNL     1       3.637   6.266  18.786  0.00  0.00    +0.000 HD
ENDROOT
BRANCH   1  11
ATOM      7  C   UNL     1      -1.181  11.437  22.883  0.00  0.00    +0.000 C 
ATOM      8  C   UNL     1      -0.364  10.454  22.095  0.00  0.00    +0.000 A 
ATOM      9  C   UNL     1      -0.439  10.431  20.705  0.00  0.00    +0.000 A 
ATOM     10  C   UNL     1       0.327   9.524  19.967  0.00  0.00    +0.000 A 
ATOM     11  C   UNL     1       1.184   8.623  20.600  0.00  0.00    +0.000 A 
ATOM     12  C   UNL     1       1.251   8.639  22.000  0.00  0.00    +0.000 A 
ATOM     13  C   UNL     1       0.481   9.547  22.742  0.00  0.00    +0.000 A 
ENDBRANCH   1  11
BRANCH   4  14
ATOM     14  C   UNL     1       3.108   4.258  19.325  0.00  0.00    +0.000 C 
BRANCH  14  15
ATOM     15  C   UNL     1       2.059   3.438  18.496  0.00  0.00    +0.000 C 
ATOM     16  C   UNL     1       1.369   4.305  17.426  0.00  0.00    +0.000 C 
ATOM     17  C   UNL     1       2.713   2.217  17.815  0.00  0.00    +0.000 C 
ATOM     18  C   UNL     1       0.970   2.891  19.449  0.00  0.00    +0.000 C 
ENDBRANCH  14  15
BRANCH  14  19
ATOM     19  C   UNL     1       4.602   3.841  19.151  0.00  0.00    +0.000 C 
ATOM     20  F   UNL     1       5.444   4.770  19.664  0.00  0.00    +0.000 F 
ATOM     21  F   UNL     1       4.862   2.667  19.770  0.00  0.00    +0.000 F 
ATOM     22  F   UNL     1       4.959   3.692  17.856  0.00  0.00    +0.000 F 
ENDBRANCH  14  19
ENDBRANCH   4  14
TORSDOF 4
ENDMDL
MODEL 6
REMARK VINA RESULT:      -6.9      6.108      7.051
REMARK  Name = 
REMARK  8 active torsions:
REMARK  status: ('A' for Active; 'I' for Inactive)
REMARK    1  A    between atoms: C_1  and  C_2
REMARK    2  A    between atoms: C_5  and  N_6
REMARK    3  A    between atoms: N_9  and  C_10
REMARK    4  A    between atoms: C_10  and  C_11
REMARK    5  A    between atoms: C_10  and  C_15
REMARK    6  A    between atoms: C_11  and  C_12
REMARK    7  A    between atoms: C_11  and  C_13
REMARK    8  A    between atoms: C_11  and  C_14
REMARK                            x       y       z     vdW  Elec       q    Type
REMARK                         _______ _______ _______ _____ _____    ______ ____
ROOT
ATOM      1  N   UNL     1       1.919   7.802  19.863  0.00  0.00    +0.000 N 
ATOM      2  C   UNL     1       2.134   6.469  20.126  0.00  0.00    +0.000 C 
ATOM      3  O   UNL     1       1.782   5.845  21.119  0.00  0.00    +0.000 OA
ATOM      4  N   UNL     1       2.771   5.827  19.082  0.00  0.00    +0.000 N 
ATOM      5  H   UNL     1       2.293   8.164  19.000  0.00  0.00    +0.000 HD
ATOM      6  H   UNL     1       3.431   6.386  18.565  0.00  0.00    +0.000 HD
ENDROOT
BRANCH   1  11
ATOM      7  C   UNL     1      -1.339  11.432  22.892  0.00  0.00    +0.000 C 
ATOM      8  C   UNL     1      -0.469  10.491  22.109  0.00  0.00    +0.000 A 
ATOM      9  C   UNL     1       0.356   9.582  22.767  0.00  0.00    +0.000 A 
ATOM     10  C   UNL     1       1.161   8.698  22.042  0.00  0.00    +0.000 A 
ATOM     11  C   UNL     1       1.158   8.701  20.647  0.00  0.00    +0.000 A 
ATOM     12  C   UNL     1       0.335   9.623  19.984  0.00  0.00    +0.000 A 
ATOM     13  C   UNL     1      -0.471  10.512  20.711  0.00  0.00    +0.000 A 
ENDBRANCH   1  11
BRANCH   4  14
ATOM     14  C   UNL     1       3.084   4.378  19.239  0.00  0.00    +0.000 C 
BRANCH  14  15
ATOM     15  C   UNL     1       2.048   3.487  18.469  0.00  0.00    +0.000 C 
ATOM     16  C   UNL     1       1.324   4.275  17.361  0.00  0.00    +0.000 C 
ATOM     17  C   UNL     1       2.727   2.247  17.849  0.00  0.00    +0.000 C 
ATOM     18  C   UNL     1       0.984   2.966  19.464  0.00  0.00    +0.000 C 
ENDBRANCH  14  15
BRANCH  14  19
ATOM     19  C   UNL     1       4.590   4.044  19.005  0.00  0.00    +0.000 C 
ATOM     20  F   UNL     1       4.936   2.864  19.575  0.00  0.00    +0.000 F 
ATOM     21  F   UNL     1       4.879   3.962  17.686  0.00  0.00    +0.000 F 
ATOM     22  F   UNL     1       5.422   4.969  19.534  0.00  0.00    +0.000 F 
ENDBRANCH  14  19
ENDBRANCH   4  14
TORSDOF 4
ENDMDL
MODEL 7
REMARK VINA RESULT:      -6.8      6.724      7.707
REMARK  Name = 
REMARK  8 active torsions:
REMARK  status: ('A' for Active; 'I' for Inactive)
REMARK    1  A    between atoms: C_1  and  C_2
REMARK    2  A    between atoms: C_5  and  N_6
REMARK    3  A    between atoms: N_9  and  C_10
REMARK    4  A    between atoms: C_10  and  C_11
REMARK    5  A    between atoms: C_10  and  C_15
REMARK    6  A    between atoms: C_11  and  C_12
REMARK    7  A    between atoms: C_11  and  C_13
REMARK    8  A    between atoms: C_11  and  C_14
REMARK                            x       y       z     vdW  Elec       q    Type
REMARK                         _______ _______ _______ _____ _____    ______ ____
ROOT
ATOM      1  N   UNL     1       2.110   7.427  20.828  0.00  0.00    +0.000 N 
ATOM      2  C   UNL     1       1.741   6.136  20.527  0.00  0.00    +0.000 C 
ATOM      3  O   UNL     1       0.602   5.695  20.437  0.00  0.00    +0.000 OA
ATOM      4  N   UNL     1       2.829   5.330  20.256  0.00  0.00    +0.000 N 
ATOM      5  H   UNL     1       3.099   7.619  20.879  0.00  0.00    +0.000 HD
ATOM      6  H   UNL     1       3.667   5.542  20.774  0.00  0.00    +0.000 HD
ENDROOT
BRANCH   1  11
ATOM      7  C   UNL     1      -1.302  11.958  21.709  0.00  0.00    +0.000 C 
ATOM      8  C   UNL     1      -0.425  10.764  21.465  0.00  0.00    +0.000 A 
ATOM      9  C   UNL     1       0.011  10.461  20.177  0.00  0.00    +0.000 A 
ATOM     10  C   UNL     1       0.835   9.356  19.947  0.00  0.00    +0.000 A 
ATOM     11  C   UNL     1       1.244   8.532  20.996  0.00  0.00    +0.000 A 
ATOM     12  C   UNL     1       0.798   8.831  22.291  0.00  0.00    +0.000 A 
ATOM     13  C   UNL     1      -0.032   9.938  22.523  0.00  0.00    +0.000 A 
ENDBRANCH   1  11
BRANCH   4  14
ATOM     14  C   UNL     1       2.576   3.898  19.932  0.00  0.00    +0.000 C 
BRANCH  14  15
ATOM     15  C   UNL     1       3.472   3.420  18.736  0.00  0.00    +0.000 C 
ATOM     16  C   UNL     1       3.068   4.093  17.411  0.00  0.00    +0.000 C 
ATOM     17  C   UNL     1       4.966   3.695  19.011  0.00  0.00    +0.000 C 
ATOM     18  C   UNL     1       3.322   1.889  18.566  0.00  0.00    +0.000 C 
ENDBRANCH  14  15
BRANCH  14  19
ATOM     19  C   UNL     1       2.554   2.975  21.189  0.00  0.00    +0.000 C 
ATOM     20  F   UNL     1       3.705   2.273  21.317  0.00  0.00    +0.000 F 
ATOM     21  F   UNL     1       2.382   3.690  22.324  0.00  0.00    +0.000 F 
ATOM     22  F   UNL     1       1.562   2.056  21.149  0.00  0.00    +0.000 F 
ENDBRANCH  14  19
ENDBRANCH   4  14
TORSDOF 4
ENDMDL
MODEL 8
REMARK VINA RESULT:      -6.7      4.750      6.822
REMARK  Name = 
REMARK  8 active torsions:
REMARK  status: ('A' for Active; 'I' for Inactive)
REMARK    1  A    between atoms: C_1  and  C_2
REMARK    2  A    between atoms: C_5  and  N_6
REMARK    3  A    between atoms: N_9  and  C_10
REMARK    4  A    between atoms: C_10  and  C_11
REMARK    5  A    between atoms: C_10  and  C_15
REMARK    6  A    between atoms: C_11  and  C_12
REMARK    7  A    between atoms: C_11  and  C_13
REMARK    8  A    between atoms: C_11  and  C_14
REMARK                            x       y       z     vdW  Elec       q    Type
REMARK                         _______ _______ _______ _____ _____    ______ ____
ROOT
ATOM      1  N   UNL     1       2.275   7.394  20.488  0.00  0.00    +0.000 N 
ATOM      2  C   UNL     1       2.612   6.662  19.372  0.00  0.00    +0.000 C 
ATOM      3  O   UNL     1       2.122   6.751  18.254  0.00  0.00    +0.000 OA
ATOM      4  N   UNL     1       3.662   5.797  19.613  0.00  0.00    +0.000 N 
ATOM      5  H   UNL     1       2.768   7.180  21.341  0.00  0.00    +0.000 HD
ATOM      6  H   UNL     1       3.703   5.410  20.542  0.00  0.00    +0.000 HD
ENDROOT
BRANCH   1  11
ATOM      7  C   UNL     1      -1.381  11.798  20.921  0.00  0.00    +0.000 C 
ATOM      8  C   UNL     1      -0.437  10.638  20.792  0.00  0.00    +0.000 A 
ATOM      9  C   UNL     1       0.262  10.429  19.605  0.00  0.00    +0.000 A 
ATOM     10  C   UNL     1       1.150   9.356  19.483  0.00  0.00    +0.000 A 
ATOM     11  C   UNL     1       1.359   8.470  20.541  0.00  0.00    +0.000 A 
ATOM     12  C   UNL     1       0.648   8.675  21.731  0.00  0.00    +0.000 A 
ATOM     13  C   UNL     1      -0.245   9.750  21.855  0.00  0.00    +0.000 A 
ENDBRANCH   1  11
BRANCH   4  14
ATOM     14  C   UNL     1       4.122   4.926  18.494  0.00  0.00    +0.000 C 
BRANCH  14  15
ATOM     15  C   UNL     1       5.560   5.328  18.016  0.00  0.00    +0.000 C 
ATOM     16  C   UNL     1       6.548   5.434  19.193  0.00  0.00    +0.000 C 
ATOM     17  C   UNL     1       6.109   4.321  16.983  0.00  0.00    +0.000 C 
ATOM     18  C   UNL     1       5.499   6.705  17.313  0.00  0.00    +0.000 C 
ENDBRANCH  14  15
BRANCH  14  19
ATOM     19  C   UNL     1       3.880   3.407  18.755  0.00  0.00    +0.000 C 
ATOM     20  F   UNL     1       2.749   3.195  19.471  0.00  0.00    +0.000 F 
ATOM     21  F   UNL     1       3.765   2.719  17.596  0.00  0.00    +0.000 F 
ATOM     22  F   UNL     1       4.879   2.830  19.459  0.00  0.00    +0.000 F 
ENDBRANCH  14  19
ENDBRANCH   4  14
TORSDOF 4
ENDMDL
MODEL 9
REMARK VINA RESULT:      -6.6      5.292      6.448
REMARK  Name = 
REMARK  8 active torsions:
REMARK  status: ('A' for Active; 'I' for Inactive)
REMARK    1  A    between atoms: C_1  and  C_2
REMARK    2  A    between atoms: C_5  and  N_6
REMARK    3  A    between atoms: N_9  and  C_10
REMARK    4  A    between atoms: C_10  and  C_11
REMARK    5  A    between atoms: C_10  and  C_15
REMARK    6  A    between atoms: C_11  and  C_12
REMARK    7  A    between atoms: C_11  and  C_13
REMARK    8  A    between atoms: C_11  and  C_14
REMARK                            x       y       z     vdW  Elec       q    Type
REMARK                         _______ _______ _______ _____ _____    ______ ____
ROOT
ATOM      1  N   UNL     1       2.028   8.454  17.790  0.00  0.00    +0.000 N 
ATOM      2  C   UNL     1       2.391   7.488  18.701  0.00  0.00    +0.000 C 
ATOM      3  O   UNL     1       2.323   7.560  19.921  0.00  0.00    +0.000 OA
ATOM      4  N   UNL     1       2.814   6.325  18.087  0.00  0.00    +0.000 N 
ATOM      5  H   UNL     1       2.166   8.239  16.815  0.00  0.00    +0.000 HD
ATOM      6  H   UNL     1       3.296   6.446  17.211  0.00  0.00    +0.000 HD
ENDROOT
BRANCH   1  11
ATOM      7  C   UNL     1      -0.647  13.363  19.095  0.00  0.00    +0.000 C 
ATOM      8  C   UNL     1       0.061  12.088  18.735  0.00  0.00    +0.000 A 
ATOM      9  C   UNL     1       1.450  12.059  18.633  0.00  0.00    +0.000 A 
ATOM     10  C   UNL     1       2.113  10.873  18.308  0.00  0.00    +0.000 A 
ATOM     11  C   UNL     1       1.406   9.691  18.080  0.00  0.00    +0.000 A 
ATOM     12  C   UNL     1       0.008   9.723  18.174  0.00  0.00    +0.000 A 
ATOM     13  C   UNL     1      -0.659  10.914  18.498  0.00  0.00    +0.000 A 
ENDBRANCH   1  11
BRANCH   4  14
ATOM     14  C   UNL     1       3.256   5.197  18.955  0.00  0.00    +0.000 C 
BRANCH  14  15
ATOM     15  C   UNL     1       2.202   4.036  18.959  0.00  0.00    +0.000 C 
ATOM     16  C   UNL     1       2.871   2.653  19.063  0.00  0.00    +0.000 C 
ATOM     17  C   UNL     1       1.193   4.200  20.115  0.00  0.00    +0.000 C 
ATOM     18  C   UNL     1       1.389   4.081  17.643  0.00  0.00    +0.000 C 
ENDBRANCH  14  15
BRANCH  14  19
ATOM     19  C   UNL     1       4.741   4.781  18.717  0.00  0.00    +0.000 C 
ATOM     20  F   UNL     1       5.177   3.915  19.664  0.00  0.00    +0.000 F 
ATOM     21  F   UNL     1       4.901   4.186  17.513  0.00  0.00    +0.000 F 
ATOM     22  F   UNL     1       5.593   5.830  18.754  0.00  0.00    +0.000 F 
ENDBRANCH  14  19
ENDBRANCH   4  14
TORSDOF 4
ENDMDL
