MODEL 1
REMARK VINA RESULT:      -9.0      0.000      0.000
REMARK  Name = 
REMARK  5 active torsions:
REMARK  status: ('A' for Active; 'I' for Inactive)
REMARK    1  A    between atoms: C_1  and  C_2
REMARK    2  A    between atoms: C_3  and  C_4
REMARK    3  A    between atoms: C_7  and  C_8
REMARK    4  A    between atoms: C_23  and  C_24
REMARK    5  A    between atoms: C_24  and  O_26
REMARK                            x       y       z     vdW  Elec       q    Type
REMARK                         _______ _______ _______ _____ _____    ______ ____
ROOT
ATOM      1  C   UNL     1       1.743   4.823  19.256  0.00  0.00    +0.000 C 
ATOM      2  C   UNL     1       2.920   5.174  18.378  0.00  0.00    +0.000 A 
ATOM      3  C   UNL     1       3.241   6.508  18.076  0.00  0.00    +0.000 A 
ATOM      4  N   UNL     1       4.181   6.822  17.153  0.00  0.00    +0.000 NA
ATOM      5  C   UNL     1       4.844   5.851  16.500  0.00  0.00    +0.000 A 
ATOM      6  C   UNL     1       5.724   6.183  15.480  0.00  0.00    +0.000 A 
ATOM      7  N   UNL     1       6.455   5.313  14.738  0.00  0.00    +0.000 NA
ATOM      8  C   UNL     1       6.309   4.014  15.042  0.00  0.00    +0.000 A 
ATOM      9  C   UNL     1       5.463   3.560  16.040  0.00  0.00    +0.000 A 
ATOM     10  C   UNL     1       4.676   4.486  16.778  0.00  0.00    +0.000 A 
ATOM     11  C   UNL     1       3.701   4.165  17.766  0.00  0.00    +0.000 A 
ENDROOT
BRANCH   3  12
ATOM     12  C   UNL     1       2.518   7.684  18.613  0.00  0.00    +0.000 A 
ATOM     13  C   UNL     1       2.077   7.750  19.940  0.00  0.00    +0.000 A 
ATOM     14  C   UNL     1       1.130   8.699  20.341  0.00  0.00    +0.000 A 
ATOM     15  C   UNL     1       0.663   9.692  19.467  0.00  0.00    +0.000 A 
ATOM     16  C   UNL     1       1.267   9.746  18.201  0.00  0.00    +0.000 A 
ATOM     17  C   UNL     1       2.165   8.754  17.777  0.00  0.00    +0.000 A 
BRANCH  15  18
ATOM     18  C   UNL     1      -0.454  10.593  19.848  0.00  0.00    +0.000 A 
ATOM     19  C   UNL     1      -1.406  11.031  18.907  0.00  0.00    +0.000 A 
ATOM     20  C   UNL     1      -2.411  11.942  19.249  0.00  0.00    +0.000 A 
ATOM     21  C   UNL     1      -2.503  12.424  20.549  0.00  0.00    +0.000 A 
ATOM     22  C   UNL     1      -1.586  12.002  21.505  0.00  0.00    +0.000 A 
ATOM     23  C   UNL     1      -0.571  11.105  21.155  0.00  0.00    +0.000 A 
ENDBRANCH  15  18
ENDBRANCH   3  12
BRANCH  11  24
ATOM     24  C   UNL     1       3.424   2.724  18.051  0.00  0.00    +0.000 C 
ATOM     25  O   UNL     1       2.554   2.087  17.488  0.00  0.00    +0.000 OA
BRANCH  24  26
ATOM     26  O   UNL     1       4.245   2.171  18.970  0.00  0.00    +0.000 OA
ATOM     27  H   UNL     1       3.888   2.082  19.872  0.00  0.00    +0.000 HD
ENDBRANCH  24  26
ENDBRANCH  11  24
TORSDOF 4
ENDMDL
MODEL 2
REMARK VINA RESULT:      -8.9      1.172      1.595
REMARK  Name = 
REMARK  5 active torsions:
REMARK  status: ('A' for Active; 'I' for Inactive)
REMARK    1  A    between atoms: C_1  and  C_2
REMARK    2  A    between atoms: C_3  and  C_4
REMARK    3  A    between atoms: C_7  and  C_8
REMARK    4  A    between atoms: C_23  and  C_24
REMARK    5  A    between atoms: C_24  and  O_26
REMARK                            x       y       z     vdW  Elec       q    Type
REMARK                         _______ _______ _______ _____ _____    ______ ____
ROOT
ATOM      1  C   UNL     1       1.975   4.507  19.710  0.00  0.00    +0.000 C 
ATOM      2  C   UNL     1       3.025   5.040  18.765  0.00  0.00    +0.000 A 
ATOM      3  C   UNL     1       3.082   6.400  18.419  0.00  0.00    +0.000 A 
ATOM      4  N   UNL     1       3.905   6.852  17.442  0.00  0.00    +0.000 NA
ATOM      5  C   UNL     1       4.703   5.999  16.776  0.00  0.00    +0.000 A 
ATOM      6  C   UNL     1       5.457   6.454  15.705  0.00  0.00    +0.000 A 
ATOM      7  N   UNL     1       6.300   5.710  14.945  0.00  0.00    +0.000 NA
ATOM      8  C   UNL     1       6.408   4.415  15.283  0.00  0.00    +0.000 A 
ATOM      9  C   UNL     1       5.707   3.845  16.333  0.00  0.00    +0.000 A 
ATOM     10  C   UNL     1       4.800   4.634  17.091  0.00  0.00    +0.000 A 
ATOM     11  C   UNL     1       3.947   4.171  18.135  0.00  0.00    +0.000 A 
ENDROOT
BRANCH   3  12
ATOM     12  C   UNL     1       2.182   7.441  18.968  0.00  0.00    +0.000 A 
ATOM     13  C   UNL     1       1.724   8.518  18.199  0.00  0.00    +0.000 A 
ATOM     14  C   UNL     1       1.156   9.646  18.800  0.00  0.00    +0.000 A 
ATOM     15  C   UNL     1       0.918   9.706  20.182  0.00  0.00    +0.000 A 
ATOM     16  C   UNL     1       1.188   8.540  20.915  0.00  0.00    +0.000 A 
ATOM     17  C   UNL     1       1.820   7.435  20.324  0.00  0.00    +0.000 A 
BRANCH  15  18
ATOM     18  C   UNL     1       0.464  10.960  20.833  0.00  0.00    +0.000 A 
ATOM     19  C   UNL     1       1.013  12.212  20.494  0.00  0.00    +0.000 A 
ATOM     20  C   UNL     1       0.641  13.383  21.162  0.00  0.00    +0.000 A 
ATOM     21  C   UNL     1      -0.306  13.337  22.177  0.00  0.00    +0.000 A 
ATOM     22  C   UNL     1      -0.878  12.118  22.528  0.00  0.00    +0.000 A 
ATOM     23  C   UNL     1      -0.490  10.946  21.870  0.00  0.00    +0.000 A 
ENDBRANCH  15  18
ENDBRANCH   3  12
BRANCH  11  24
ATOM     24  C   UNL     1       3.953   2.713  18.463  0.00  0.00    +0.000 C 
ATOM     25  O   UNL     1       3.240   1.901  17.907  0.00  0.00    +0.000 OA
BRANCH  24  26
ATOM     26  O   UNL     1       4.844   2.361  19.416  0.00  0.00    +0.000 OA
ATOM     27  H   UNL     1       5.300   3.089  19.874  0.00  0.00    +0.000 HD
ENDBRANCH  24  26
ENDBRANCH  11  24
TORSDOF 4
ENDMDL
MODEL 3
REMARK VINA RESULT:      -8.7      0.844      1.169
REMARK  Name = 
REMARK  5 active torsions:
REMARK  status: ('A' for Active; 'I' for Inactive)
REMARK    1  A    between atoms: C_1  and  C_2
REMARK    2  A    between atoms: C_3  and  C_4
REMARK    3  A    between atoms: C_7  and  C_8
REMARK    4  A    between atoms: C_23  and  C_24
REMARK    5  A    between atoms: C_24  and  O_26
REMARK                            x       y       z     vdW  Elec       q    Type
REMARK                         _______ _______ _______ _____ _____    ______ ____
ROOT
ATOM      1  C   UNL     1       1.403   4.867  19.793  0.00  0.00    +0.000 C 
ATOM      2  C   UNL     1       2.541   5.264  18.884  0.00  0.00    +0.000 A 
ATOM      3  C   UNL     1       2.895   6.610  18.693  0.00  0.00    +0.000 A 
ATOM      4  N   UNL     1       3.793   6.983  17.750  0.00  0.00    +0.000 NA
ATOM      5  C   UNL     1       4.381   6.060  16.968  0.00  0.00    +0.000 A 
ATOM      6  C   UNL     1       5.214   6.461  15.934  0.00  0.00    +0.000 A 
ATOM      7  N   UNL     1       5.869   5.646  15.070  0.00  0.00    +0.000 NA
ATOM      8  C   UNL     1       5.690   4.329  15.256  0.00  0.00    +0.000 A 
ATOM      9  C   UNL     1       4.886   3.806  16.254  0.00  0.00    +0.000 A 
ATOM     10  C   UNL     1       4.177   4.680  17.123  0.00  0.00    +0.000 A 
ATOM     11  C   UNL     1       3.248   4.295  18.133  0.00  0.00    +0.000 A 
ENDROOT
BRANCH   3  12
ATOM     12  C   UNL     1       2.248   7.751  19.384  0.00  0.00    +0.000 A 
ATOM     13  C   UNL     1       1.929   7.718  20.746  0.00  0.00    +0.000 A 
ATOM     14  C   UNL     1       1.043   8.646  21.304  0.00  0.00    +0.000 A 
ATOM     15  C   UNL     1       0.521   9.711  20.555  0.00  0.00    +0.000 A 
ATOM     16  C   UNL     1       1.010   9.856  19.247  0.00  0.00    +0.000 A 
ATOM     17  C   UNL     1       1.845   8.888  18.669  0.00  0.00    +0.000 A 
BRANCH  15  18
ATOM     18  C   UNL     1      -0.538  10.596  21.104  0.00  0.00    +0.000 A 
ATOM     19  C   UNL     1      -1.289  11.453  20.278  0.00  0.00    +0.000 A 
ATOM     20  C   UNL     1      -2.231  12.342  20.805  0.00  0.00    +0.000 A 
ATOM     21  C   UNL     1      -2.462  12.384  22.175  0.00  0.00    +0.000 A 
ATOM     22  C   UNL     1      -1.745  11.541  23.018  0.00  0.00    +0.000 A 
ATOM     23  C   UNL     1      -0.791  10.666  22.488  0.00  0.00    +0.000 A 
ENDBRANCH  15  18
ENDBRANCH   3  12
BRANCH  11  24
ATOM     24  C   UNL     1       2.933   2.843  18.293  0.00  0.00    +0.000 C 
ATOM     25  O   UNL     1       3.488   2.125  19.103  0.00  0.00    +0.000 OA
BRANCH  24  26
ATOM     26  O   UNL     1       1.952   2.393  17.480  0.00  0.00    +0.000 OA
ATOM     27  H   UNL     1       1.957   2.731  16.567  0.00  0.00    +0.000 HD
ENDBRANCH  24  26
ENDBRANCH  11  24
TORSDOF 4
ENDMDL
MODEL 4
REMARK VINA RESULT:      -8.7      1.378      1.917
REMARK  Name = 
REMARK  5 active torsions:
REMARK  status: ('A' for Active; 'I' for Inactive)
REMARK    1  A    between atoms: C_1  and  C_2
REMARK    2  A    between atoms: C_3  and  C_4
REMARK    3  A    between atoms: C_7  and  C_8
REMARK    4  A    between atoms: C_23  and  C_24
REMARK    5  A    between atoms: C_24  and  O_26
REMARK                            x       y       z     vdW  Elec       q    Type
REMARK                         _______ _______ _______ _____ _____    ______ ____
ROOT
ATOM      1  C   UNL     1       2.143   4.636  20.255  0.00  0.00    +0.000 C 
ATOM      2  C   UNL     1       3.077   5.178  19.200  0.00  0.00    +0.000 A 
ATOM      3  C   UNL     1       3.010   6.515  18.773  0.00  0.00    +0.000 A 
ATOM      4  N   UNL     1       3.722   6.959  17.710  0.00  0.00    +0.000 NA
ATOM      5  C   UNL     1       4.527   6.121  17.032  0.00  0.00    +0.000 A 
ATOM      6  C   UNL     1       5.164   6.558  15.881  0.00  0.00    +0.000 A 
ATOM      7  N   UNL     1       5.998   5.827  15.099  0.00  0.00    +0.000 NA
ATOM      8  C   UNL     1       6.224   4.566  15.502  0.00  0.00    +0.000 A 
ATOM      9  C   UNL     1       5.648   4.017  16.634  0.00  0.00    +0.000 A 
ATOM     10  C   UNL     1       4.746   4.789  17.416  0.00  0.00    +0.000 A 
ATOM     11  C   UNL     1       4.010   4.336  18.549  0.00  0.00    +0.000 A 
ENDROOT
BRANCH   3  12
ATOM     12  C   UNL     1       2.082   7.525  19.333  0.00  0.00    +0.000 A 
ATOM     13  C   UNL     1       1.685   8.658  18.612  0.00  0.00    +0.000 A 
ATOM     14  C   UNL     1       1.084   9.748  19.251  0.00  0.00    +0.000 A 
ATOM     15  C   UNL     1       0.753   9.715  20.614  0.00  0.00    +0.000 A 
ATOM     16  C   UNL     1       0.964   8.497  21.280  0.00  0.00    +0.000 A 
ATOM     17  C   UNL     1       1.628   7.429  20.656  0.00  0.00    +0.000 A 
BRANCH  15  18
ATOM     18  C   UNL     1       0.264  10.926  21.320  0.00  0.00    +0.000 A 
ATOM     19  C   UNL     1      -0.684  10.846  22.358  0.00  0.00    +0.000 A 
ATOM     20  C   UNL     1      -1.203  11.992  22.969  0.00  0.00    +0.000 A 
ATOM     21  C   UNL     1      -0.771  13.251  22.571  0.00  0.00    +0.000 A 
ATOM     22  C   UNL     1       0.174  13.365  21.557  0.00  0.00    +0.000 A 
ATOM     23  C   UNL     1       0.677  12.217  20.936  0.00  0.00    +0.000 A 
ENDBRANCH  15  18
ENDBRANCH   3  12
BRANCH  11  24
ATOM     24  C   UNL     1       4.145   2.905  18.959  0.00  0.00    +0.000 C 
ATOM     25  O   UNL     1       4.891   2.531  19.843  0.00  0.00    +0.000 OA
BRANCH  24  26
ATOM     26  O   UNL     1       3.341   2.055  18.283  0.00  0.00    +0.000 OA
ATOM     27  H   UNL     1       2.455   1.904  18.658  0.00  0.00    +0.000 HD
ENDBRANCH  24  26
ENDBRANCH  11  24
TORSDOF 4
ENDMDL
MODEL 5
REMARK VINA RESULT:      -8.6      1.005      1.626
REMARK  Name = 
REMARK  5 active torsions:
REMARK  status: ('A' for Active; 'I' for Inactive)
REMARK    1  A    between atoms: C_1  and  C_2
REMARK    2  A    between atoms: C_3  and  C_4
REMARK    3  A    between atoms: C_7  and  C_8
REMARK    4  A    between atoms: C_23  and  C_24
REMARK    5  A    between atoms: C_24  and  O_26
REMARK                            x       y       z     vdW  Elec       q    Type
REMARK                         _______ _______ _______ _____ _____    ______ ____
ROOT
ATOM      1  C   UNL     1       1.892   4.600  19.376  0.00  0.00    +0.000 C 
ATOM      2  C   UNL     1       3.113   5.143  18.674  0.00  0.00    +0.000 A 
ATOM      3  C   UNL     1       3.252   6.511  18.389  0.00  0.00    +0.000 A 
ATOM      4  N   UNL     1       4.256   6.977  17.609  0.00  0.00    +0.000 NA
ATOM      5  C   UNL     1       5.161   6.131  17.086  0.00  0.00    +0.000 A 
ATOM      6  C   UNL     1       6.117   6.604  16.200  0.00  0.00    +0.000 A 
ATOM      7  N   UNL     1       7.086   5.869  15.598  0.00  0.00    +0.000 NA
ATOM      8  C   UNL     1       7.111   4.563  15.910  0.00  0.00    +0.000 A 
ATOM      9  C   UNL     1       6.211   3.975  16.782  0.00  0.00    +0.000 A 
ATOM     10  C   UNL     1       5.180   4.757  17.371  0.00  0.00    +0.000 A 
ATOM     11  C   UNL     1       4.133   4.277  18.211  0.00  0.00    +0.000 A 
ENDROOT
BRANCH   3  12
ATOM     12  C   UNL     1       2.272   7.551  18.784  0.00  0.00    +0.000 A 
ATOM     13  C   UNL     1       1.760   8.482  17.872  0.00  0.00    +0.000 A 
ATOM     14  C   UNL     1       1.105   9.637  18.310  0.00  0.00    +0.000 A 
ATOM     15  C   UNL     1       0.833   9.863  19.668  0.00  0.00    +0.000 A 
ATOM     16  C   UNL     1       1.164   8.825  20.553  0.00  0.00    +0.000 A 
ATOM     17  C   UNL     1       1.881   7.699  20.123  0.00  0.00    +0.000 A 
BRANCH  15  18
ATOM     18  C   UNL     1       0.281  11.158  20.140  0.00  0.00    +0.000 A 
ATOM     19  C   UNL     1      -0.043  11.375  21.494  0.00  0.00    +0.000 A 
ATOM     20  C   UNL     1      -0.635  12.567  21.925  0.00  0.00    +0.000 A 
ATOM     21  C   UNL     1      -0.901  13.583  21.015  0.00  0.00    +0.000 A 
ATOM     22  C   UNL     1      -0.582  13.405  19.674  0.00  0.00    +0.000 A 
ATOM     23  C   UNL     1      -0.006  12.205  19.243  0.00  0.00    +0.000 A 
ENDBRANCH  15  18
ENDBRANCH   3  12
BRANCH  11  24
ATOM     24  C   UNL     1       4.058   2.811  18.488  0.00  0.00    +0.000 C 
ATOM     25  O   UNL     1       3.406   2.037  17.814  0.00  0.00    +0.000 OA
BRANCH  24  26
ATOM     26  O   UNL     1       4.804   2.404  19.539  0.00  0.00    +0.000 OA
ATOM     27  H   UNL     1       5.205   1.519  19.469  0.00  0.00    +0.000 HD
ENDBRANCH  24  26
ENDBRANCH  11  24
TORSDOF 4
ENDMDL
MODEL 6
REMARK VINA RESULT:      -8.4      1.947      3.085
REMARK  Name = 
REMARK  5 active torsions:
REMARK  status: ('A' for Active; 'I' for Inactive)
REMARK    1  A    between atoms: C_1  and  C_2
REMARK    2  A    between atoms: C_3  and  C_4
REMARK    3  A    between atoms: C_7  and  C_8
REMARK    4  A    between atoms: C_23  and  C_24
REMARK    5  A    between atoms: C_24  and  O_26
REMARK                            x       y       z     vdW  Elec       q    Type
REMARK                         _______ _______ _______ _____ _____    ______ ____
ROOT
ATOM      1  C   UNL     1       4.763   7.211  17.189  0.00  0.00    +0.000 C 
ATOM      2  C   UNL     1       3.884   6.065  17.627  0.00  0.00    +0.000 A 
ATOM      3  C   UNL     1       2.717   6.278  18.378  0.00  0.00    +0.000 A 
ATOM      4  N   UNL     1       2.023   5.249  18.921  0.00  0.00    +0.000 NA
ATOM      5  C   UNL     1       2.437   3.981  18.747  0.00  0.00    +0.000 A 
ATOM      6  C   UNL     1       1.783   2.946  19.399  0.00  0.00    +0.000 A 
ATOM      7  N   UNL     1       2.091   1.627  19.318  0.00  0.00    +0.000 NA
ATOM      8  C   UNL     1       3.121   1.313  18.517  0.00  0.00    +0.000 A 
ATOM      9  C   UNL     1       3.850   2.257  17.813  0.00  0.00    +0.000 A 
ATOM     10  C   UNL     1       3.535   3.637  17.944  0.00  0.00    +0.000 A 
ATOM     11  C   UNL     1       4.247   4.723  17.358  0.00  0.00    +0.000 A 
ENDROOT
BRANCH   3  12
ATOM     12  C   UNL     1       2.203   7.613  18.764  0.00  0.00    +0.000 A 
ATOM     13  C   UNL     1       1.878   7.937  20.087  0.00  0.00    +0.000 A 
ATOM     14  C   UNL     1       1.102   9.062  20.386  0.00  0.00    +0.000 A 
ATOM     15  C   UNL     1       0.708   9.973  19.394  0.00  0.00    +0.000 A 
ATOM     16  C   UNL     1       1.214   9.751  18.104  0.00  0.00    +0.000 A 
ATOM     17  C   UNL     1       1.935   8.588  17.792  0.00  0.00    +0.000 A 
BRANCH  15  18
ATOM     18  C   UNL     1      -0.244  11.073  19.691  0.00  0.00    +0.000 A 
ATOM     19  C   UNL     1       0.041  12.058  20.656  0.00  0.00    +0.000 A 
ATOM     20  C   UNL     1      -0.888  13.049  20.990  0.00  0.00    +0.000 A 
ATOM     21  C   UNL     1      -2.122  13.092  20.354  0.00  0.00    +0.000 A 
ATOM     22  C   UNL     1      -2.430  12.141  19.387  0.00  0.00    +0.000 A 
ATOM     23  C   UNL     1      -1.505  11.141  19.068  0.00  0.00    +0.000 A 
ENDBRANCH  15  18
ENDBRANCH   3  12
BRANCH  11  24
ATOM     24  C   UNL     1       5.470   4.422  16.554  0.00  0.00    +0.000 C 
ATOM     25  O   UNL     1       5.481   4.396  15.339  0.00  0.00    +0.000 OA
BRANCH  24  26
ATOM     26  O   UNL     1       6.582   4.207  17.292  0.00  0.00    +0.000 OA
ATOM     27  H   UNL     1       7.244   4.921  17.297  0.00  0.00    +0.000 HD
ENDBRANCH  24  26
ENDBRANCH  11  24
TORSDOF 4
ENDMDL
MODEL 7
REMARK VINA RESULT:      -8.3      1.017      1.521
REMARK  Name = 
REMARK  5 active torsions:
REMARK  status: ('A' for Active; 'I' for Inactive)
REMARK    1  A    between atoms: C_1  and  C_2
REMARK    2  A    between atoms: C_3  and  C_4
REMARK    3  A    between atoms: C_7  and  C_8
REMARK    4  A    between atoms: C_23  and  C_24
REMARK    5  A    between atoms: C_24  and  O_26
REMARK                            x       y       z     vdW  Elec       q    Type
REMARK                         _______ _______ _______ _____ _____    ______ ____
ROOT
ATOM      1  C   UNL     1       2.058   4.847  19.839  0.00  0.00    +0.000 C 
ATOM      2  C   UNL     1       3.100   5.314  18.850  0.00  0.00    +0.000 A 
ATOM      3  C   UNL     1       3.095   6.622  18.338  0.00  0.00    +0.000 A 
ATOM      4  N   UNL     1       3.914   6.992  17.325  0.00  0.00    +0.000 NA
ATOM      5  C   UNL     1       4.768   6.107  16.782  0.00  0.00    +0.000 A 
ATOM      6  C   UNL     1       5.521   6.465  15.674  0.00  0.00    +0.000 A 
ATOM      7  N   UNL     1       6.416   5.679  15.024  0.00  0.00    +0.000 NA
ATOM      8  C   UNL     1       6.582   4.444  15.523  0.00  0.00    +0.000 A 
ATOM      9  C   UNL     1       5.890   3.971  16.625  0.00  0.00    +0.000 A 
ATOM     10  C   UNL     1       4.928   4.799  17.265  0.00  0.00    +0.000 A 
ATOM     11  C   UNL     1       4.078   4.424  18.346  0.00  0.00    +0.000 A 
ENDROOT
BRANCH   3  12
ATOM     12  C   UNL     1       2.132   7.674  18.741  0.00  0.00    +0.000 A 
ATOM     13  C   UNL     1       1.552   8.552  17.818  0.00  0.00    +0.000 A 
ATOM     14  C   UNL     1       0.915   9.724  18.237  0.00  0.00    +0.000 A 
ATOM     15  C   UNL     1       0.730  10.019  19.596  0.00  0.00    +0.000 A 
ATOM     16  C   UNL     1       1.129   9.032  20.511  0.00  0.00    +0.000 A 
ATOM     17  C   UNL     1       1.828   7.889  20.094  0.00  0.00    +0.000 A 
BRANCH  15  18
ATOM     18  C   UNL     1       0.197  11.333  20.035  0.00  0.00    +0.000 A 
ATOM     19  C   UNL     1      -0.998  11.862  19.509  0.00  0.00    +0.000 A 
ATOM     20  C   UNL     1      -1.458  13.134  19.864  0.00  0.00    +0.000 A 
ATOM     21  C   UNL     1      -0.745  13.905  20.774  0.00  0.00    +0.000 A 
ATOM     22  C   UNL     1       0.432  13.407  21.323  0.00  0.00    +0.000 A 
ATOM     23  C   UNL     1       0.899  12.142  20.950  0.00  0.00    +0.000 A 
ENDBRANCH  15  18
ENDBRANCH   3  12
BRANCH  11  24
ATOM     24  C   UNL     1       4.150   3.020  18.854  0.00  0.00    +0.000 C 
ATOM     25  O   UNL     1       4.827   2.688  19.807  0.00  0.00    +0.000 OA
BRANCH  24  26
ATOM     26  O   UNL     1       3.372   2.144  18.180  0.00  0.00    +0.000 OA
ATOM     27  H   UNL     1       2.415   2.326  18.178  0.00  0.00    +0.000 HD
ENDBRANCH  24  26
ENDBRANCH  11  24
TORSDOF 4
ENDMDL
MODEL 8
REMARK VINA RESULT:      -8.3      2.665      3.958
REMARK  Name = 
REMARK  5 active torsions:
REMARK  status: ('A' for Active; 'I' for Inactive)
REMARK    1  A    between atoms: C_1  and  C_2
REMARK    2  A    between atoms: C_3  and  C_4
REMARK    3  A    between atoms: C_7  and  C_8
REMARK    4  A    between atoms: C_23  and  C_24
REMARK    5  A    between atoms: C_24  and  O_26
REMARK                            x       y       z     vdW  Elec       q    Type
REMARK                         _______ _______ _______ _____ _____    ______ ____
ROOT
ATOM      1  C   UNL     1       4.508   6.991  17.472  0.00  0.00    +0.000 C 
ATOM      2  C   UNL     1       3.779   6.062  18.413  0.00  0.00    +0.000 A 
ATOM      3  C   UNL     1       2.640   6.477  19.122  0.00  0.00    +0.000 A 
ATOM      4  N   UNL     1       2.089   5.712  20.094  0.00  0.00    +0.000 NA
ATOM      5  C   UNL     1       2.622   4.516  20.403  0.00  0.00    +0.000 A 
ATOM      6  C   UNL     1       2.117   3.792  21.473  0.00  0.00    +0.000 A 
ATOM      7  N   UNL     1       2.554   2.580  21.898  0.00  0.00    +0.000 NA
ATOM      8  C   UNL     1       3.565   2.042  21.197  0.00  0.00    +0.000 A 
ATOM      9  C   UNL     1       4.151   2.667  20.109  0.00  0.00    +0.000 A 
ATOM     10  C   UNL     1       3.703   3.955  19.706  0.00  0.00    +0.000 A 
ATOM     11  C   UNL     1       4.263   4.757  18.670  0.00  0.00    +0.000 A 
ENDROOT
BRANCH   3  12
ATOM     12  C   UNL     1       2.013   7.813  18.988  0.00  0.00    +0.000 A 
ATOM     13  C   UNL     1       2.043   8.539  17.791  0.00  0.00    +0.000 A 
ATOM     14  C   UNL     1       1.745   9.905  17.765  0.00  0.00    +0.000 A 
ATOM     15  C   UNL     1       1.298  10.585  18.909  0.00  0.00    +0.000 A 
ATOM     16  C   UNL     1       1.071   9.804  20.053  0.00  0.00    +0.000 A 
ATOM     17  C   UNL     1       1.435   8.450  20.097  0.00  0.00    +0.000 A 
BRANCH  15  18
ATOM     18  C   UNL     1       1.135  12.061  18.915  0.00  0.00    +0.000 A 
ATOM     19  C   UNL     1      -0.130  12.666  19.043  0.00  0.00    +0.000 A 
ATOM     20  C   UNL     1      -0.291  14.053  18.971  0.00  0.00    +0.000 A 
ATOM     21  C   UNL     1       0.813  14.876  18.787  0.00  0.00    +0.000 A 
ATOM     22  C   UNL     1       2.078  14.311  18.669  0.00  0.00    +0.000 A 
ATOM     23  C   UNL     1       2.234  12.921  18.724  0.00  0.00    +0.000 A 
ENDBRANCH  15  18
ENDBRANCH   3  12
BRANCH  11  24
ATOM     24  C   UNL     1       5.464   4.243  17.943  0.00  0.00    +0.000 C 
ATOM     25  O   UNL     1       6.602   4.405  18.337  0.00  0.00    +0.000 OA
BRANCH  24  26
ATOM     26  O   UNL     1       5.179   3.551  16.818  0.00  0.00    +0.000 OA
ATOM     27  H   UNL     1       4.510   2.848  16.899  0.00  0.00    +0.000 HD
ENDBRANCH  24  26
ENDBRANCH  11  24
TORSDOF 4
ENDMDL
MODEL 9
REMARK VINA RESULT:      -8.1      4.273      9.211
REMARK  Name = 
REMARK  5 active torsions:
REMARK  status: ('A' for Active; 'I' for Inactive)
REMARK    1  A    between atoms: C_1  and  C_2
REMARK    2  A    between atoms: C_3  and  C_4
REMARK    3  A    between atoms: C_7  and  C_8
REMARK    4  A    between atoms: C_23  and  C_24
REMARK    5  A    between atoms: C_24  and  O_26
REMARK                            x       y       z     vdW  Elec       q    Type
REMARK                         _______ _______ _______ _____ _____    ______ ____
ROOT
ATOM      1  C   UNL     1      -1.591   9.651  17.615  0.00  0.00    +0.000 C 
ATOM      2  C   UNL     1      -1.266  10.622  18.724  0.00  0.00    +0.000 A 
ATOM      3  C   UNL     1      -0.053  10.554  19.429  0.00  0.00    +0.000 A 
ATOM      4  N   UNL     1       0.171  11.304  20.535  0.00  0.00    +0.000 NA
ATOM      5  C   UNL     1      -0.774  12.148  20.987  0.00  0.00    +0.000 A 
ATOM      6  C   UNL     1      -0.578  12.826  22.180  0.00  0.00    +0.000 A 
ATOM      7  N   UNL     1      -1.440  13.703  22.755  0.00  0.00    +0.000 NA
ATOM      8  C   UNL     1      -2.581  13.929  22.084  0.00  0.00    +0.000 A 
ATOM      9  C   UNL     1      -2.888  13.314  20.883  0.00  0.00    +0.000 A 
ATOM     10  C   UNL     1      -1.988  12.369  20.319  0.00  0.00    +0.000 A 
ATOM     11  C   UNL     1      -2.206  11.593  19.144  0.00  0.00    +0.000 A 
ENDROOT
BRANCH   3  12
ATOM     12  C   UNL     1       1.032   9.588  19.135  0.00  0.00    +0.000 A 
ATOM     13  C   UNL     1       1.782   9.641  17.953  0.00  0.00    +0.000 A 
ATOM     14  C   UNL     1       2.562   8.555  17.543  0.00  0.00    +0.000 A 
ATOM     15  C   UNL     1       2.718   7.413  18.344  0.00  0.00    +0.000 A 
ATOM     16  C   UNL     1       2.132   7.458  19.619  0.00  0.00    +0.000 A 
ATOM     17  C   UNL     1       1.295   8.517  20.001  0.00  0.00    +0.000 A 
BRANCH  15  18
ATOM     18  C   UNL     1       3.416   6.204  17.837  0.00  0.00    +0.000 A 
ATOM     19  C   UNL     1       4.639   6.290  17.145  0.00  0.00    +0.000 A 
ATOM     20  C   UNL     1       5.256   5.159  16.600  0.00  0.00    +0.000 A 
ATOM     21  C   UNL     1       4.674   3.907  16.750  0.00  0.00    +0.000 A 
ATOM     22  C   UNL     1       3.472   3.785  17.439  0.00  0.00    +0.000 A 
ATOM     23  C   UNL     1       2.849   4.921  17.967  0.00  0.00    +0.000 A 
ENDBRANCH  15  18
ENDBRANCH   3  12
BRANCH  11  24
ATOM     24  C   UNL     1      -3.513  11.730  18.433  0.00  0.00    +0.000 C 
ATOM     25  O   UNL     1      -4.586  11.504  18.958  0.00  0.00    +0.000 OA
BRANCH  24  26
ATOM     26  O   UNL     1      -3.409  12.160  17.156  0.00  0.00    +0.000 OA
ATOM     27  H   UNL     1      -3.247  13.112  17.031  0.00  0.00    +0.000 HD
ENDBRANCH  24  26
ENDBRANCH  11  24
TORSDOF 4
ENDMDL
