MODEL 1
REMARK VINA RESULT:      -7.2      0.000      0.000
REMARK  Name = 
REMARK  10 active torsions:
REMARK  status: ('A' for Active; 'I' for Inactive)
REMARK    1  A    between atoms: C_1  and  C_2
REMARK    2  A    between atoms: C_2  and  C_3
REMARK    3  A    between atoms: C_2  and  N_4
REMARK    4  A    between atoms: N_4  and  C_5
REMARK    5  A    between atoms: C_5  and  C_6
REMARK    6  A    between atoms: C_6  and  O_7
REMARK    7  A    between atoms: C_6  and  C_8
REMARK    8  A    between atoms: C_8  and  O_9
REMARK    9  A    between atoms: O_9  and  C_10
REMARK   10  A    between atoms: C_18  and  O_19
REMARK                            x       y       z     vdW  Elec       q    Type
REMARK                         _______ _______ _______ _____ _____    ______ ____
ROOT
ATOM      1  C   UNL     1       4.068   5.064  18.136  0.00  0.00    +0.000 A 
ATOM      2  C   UNL     1       3.806   6.399  17.791  0.00  0.00    +0.000 A 
ATOM      3  C   UNL     1       2.834   7.126  18.474  0.00  0.00    +0.000 A 
ATOM      4  C   UNL     1       2.100   6.525  19.491  0.00  0.00    +0.000 A 
ATOM      5  C   UNL     1       2.340   5.193  19.848  0.00  0.00    +0.000 A 
ATOM      6  C   UNL     1       3.360   4.464  19.194  0.00  0.00    +0.000 A 
ATOM      7  C   UNL     1       3.648   3.027  19.584  0.00  0.00    +0.000 C 
ATOM      8  C   UNL     1       3.051   2.626  20.933  0.00  0.00    +0.000 C 
ATOM      9  C   UNL     1       1.595   3.065  21.010  0.00  0.00    +0.000 C 
ATOM     10  C   UNL     1       1.511   4.591  20.955  0.00  0.00    +0.000 C 
ENDROOT
BRANCH   9  11
ATOM     11  O   UNL     1       1.006   2.583  22.215  0.00  0.00    +0.000 OA
ATOM     12  H   UNL     1       0.039   2.652  22.127  0.00  0.00    +0.000 HD
ENDBRANCH   9  11
BRANCH   1  13
ATOM     13  O   UNL     1       4.987   4.278  17.484  0.00  0.00    +0.000 OA
BRANCH  13  14
ATOM     14  C   UNL     1       4.788   4.103  16.072  0.00  0.00    +0.000 C 
BRANCH  14  15
ATOM     15  C   UNL     1       6.042   4.559  15.315  0.00  0.00    +0.000 C 
BRANCH  15  16
ATOM     16  O   UNL     1       6.463   3.537  14.402  0.00  0.00    +0.000 OA
ATOM     17  H   UNL     1       6.749   3.996  13.589  0.00  0.00    +0.000 HD
ENDBRANCH  15  16
BRANCH  15  18
ATOM     18  C   UNL     1       7.172   4.880  16.307  0.00  0.00    +0.000 C 
BRANCH  18  19
ATOM     19  N   UNL     1       7.473   6.315  16.306  0.00  0.00    +0.000 NA
ATOM     20  H   UNL     1       8.443   6.436  16.002  0.00  0.00    +0.000 HD
BRANCH  19  22
ATOM     21  C   UNL     1       7.774   5.996  18.695  0.00  0.00    +0.000 C 
ATOM     22  C   UNL     1       7.261   6.946  17.613  0.00  0.00    +0.000 C 
ATOM     23  C   UNL     1       7.991   8.286  17.724  0.00  0.00    +0.000 C 
ENDBRANCH  19  22
ENDBRANCH  18  19
ENDBRANCH  15  18
ENDBRANCH  14  15
ENDBRANCH  13  14
ENDBRANCH   1  13
TORSDOF 8
ENDMDL
MODEL 2
REMARK VINA RESULT:      -6.9      2.214      3.528
REMARK  Name = 
REMARK  10 active torsions:
REMARK  status: ('A' for Active; 'I' for Inactive)
REMARK    1  A    between atoms: C_1  and  C_2
REMARK    2  A    between atoms: C_2  and  C_3
REMARK    3  A    between atoms: C_2  and  N_4
REMARK    4  A    between atoms: N_4  and  C_5
REMARK    5  A    between atoms: C_5  and  C_6
REMARK    6  A    between atoms: C_6  and  O_7
REMARK    7  A    between atoms: C_6  and  C_8
REMARK    8  A    between atoms: C_8  and  O_9
REMARK    9  A    between atoms: O_9  and  C_10
REMARK   10  A    between atoms: C_18  and  O_19
REMARK                            x       y       z     vdW  Elec       q    Type
REMARK                         _______ _______ _______ _____ _____    ______ ____
ROOT
ATOM      1  C   UNL     1       4.407   5.289  17.655  0.00  0.00    +0.000 A 
ATOM      2  C   UNL     1       4.241   6.643  17.323  0.00  0.00    +0.000 A 
ATOM      3  C   UNL     1       3.245   7.401  17.934  0.00  0.00    +0.000 A 
ATOM      4  C   UNL     1       2.393   6.814  18.863  0.00  0.00    +0.000 A 
ATOM      5  C   UNL     1       2.536   5.464  19.205  0.00  0.00    +0.000 A 
ATOM      6  C   UNL     1       3.576   4.700  18.628  0.00  0.00    +0.000 A 
ATOM      7  C   UNL     1       3.760   3.243  19.005  0.00  0.00    +0.000 C 
ATOM      8  C   UNL     1       3.022   2.841  20.282  0.00  0.00    +0.000 C 
ATOM      9  C   UNL     1       1.588   3.350  20.237  0.00  0.00    +0.000 C 
ATOM     10  C   UNL     1       1.581   4.879  20.216  0.00  0.00    +0.000 C 
ENDROOT
BRANCH   9  11
ATOM     11  O   UNL     1       0.868   2.871  21.370  0.00  0.00    +0.000 OA
ATOM     12  H   UNL     1       0.151   3.502  21.562  0.00  0.00    +0.000 HD
ENDBRANCH   9  11
BRANCH   1  13
ATOM     13  O   UNL     1       5.345   4.473  17.069  0.00  0.00    +0.000 OA
BRANCH  13  14
ATOM     14  C   UNL     1       5.365   4.455  15.633  0.00  0.00    +0.000 C 
BRANCH  14  15
ATOM     15  C   UNL     1       6.817   4.485  15.138  0.00  0.00    +0.000 C 
BRANCH  15  16
ATOM     16  O   UNL     1       7.403   5.764  15.410  0.00  0.00    +0.000 OA
ATOM     17  H   UNL     1       6.907   6.139  16.163  0.00  0.00    +0.000 HD
ENDBRANCH  15  16
BRANCH  15  18
ATOM     18  C   UNL     1       6.867   4.189  13.630  0.00  0.00    +0.000 C 
BRANCH  18  19
ATOM     19  N   UNL     1       5.890   3.158  13.268  0.00  0.00    +0.000 NA
ATOM     20  H   UNL     1       6.214   2.264  13.650  0.00  0.00    +0.000 HD
BRANCH  19  22
ATOM     21  C   UNL     1       6.077   1.643  11.378  0.00  0.00    +0.000 C 
ATOM     22  C   UNL     1       5.679   3.051  11.820  0.00  0.00    +0.000 C 
ATOM     23  C   UNL     1       4.220   3.312  11.437  0.00  0.00    +0.000 C 
ENDBRANCH  19  22
ENDBRANCH  18  19
ENDBRANCH  15  18
ENDBRANCH  14  15
ENDBRANCH  13  14
ENDBRANCH   1  13
TORSDOF 8
ENDMDL
MODEL 3
REMARK VINA RESULT:      -6.9      1.907      3.202
REMARK  Name = 
REMARK  10 active torsions:
REMARK  status: ('A' for Active; 'I' for Inactive)
REMARK    1  A    between atoms: C_1  and  C_2
REMARK    2  A    between atoms: C_2  and  C_3
REMARK    3  A    between atoms: C_2  and  N_4
REMARK    4  A    between atoms: N_4  and  C_5
REMARK    5  A    between atoms: C_5  and  C_6
REMARK    6  A    between atoms: C_6  and  O_7
REMARK    7  A    between atoms: C_6  and  C_8
REMARK    8  A    between atoms: C_8  and  O_9
REMARK    9  A    between atoms: O_9  and  C_10
REMARK   10  A    between atoms: C_18  and  O_19
REMARK                            x       y       z     vdW  Elec       q    Type
REMARK                         _______ _______ _______ _____ _____    ______ ____
ROOT
ATOM      1  C   UNL     1       4.147   5.088  17.660  0.00  0.00    +0.000 A 
ATOM      2  C   UNL     1       3.926   6.450  17.403  0.00  0.00    +0.000 A 
ATOM      3  C   UNL     1       3.122   7.206  18.252  0.00  0.00    +0.000 A 
ATOM      4  C   UNL     1       2.512   6.608  19.350  0.00  0.00    +0.000 A 
ATOM      5  C   UNL     1       2.713   5.250  19.622  0.00  0.00    +0.000 A 
ATOM      6  C   UNL     1       3.569   4.488  18.795  0.00  0.00    +0.000 A 
ATOM      7  C   UNL     1       3.815   3.021  19.089  0.00  0.00    +0.000 C 
ATOM      8  C   UNL     1       3.405   2.600  20.500  0.00  0.00    +0.000 C 
ATOM      9  C   UNL     1       2.011   3.126  20.817  0.00  0.00    +0.000 C 
ATOM     10  C   UNL     1       2.023   4.655  20.825  0.00  0.00    +0.000 C 
ENDROOT
BRANCH   9  11
ATOM     11  O   UNL     1       1.581   2.631  22.082  0.00  0.00    +0.000 OA
ATOM     12  H   UNL     1       1.253   1.723  21.956  0.00  0.00    +0.000 HD
ENDBRANCH   9  11
BRANCH   1  13
ATOM     13  O   UNL     1       4.899   4.274  16.848  0.00  0.00    +0.000 OA
BRANCH  13  14
ATOM     14  C   UNL     1       6.321   4.314  17.049  0.00  0.00    +0.000 C 
BRANCH  14  15
ATOM     15  C   UNL     1       7.012   4.763  15.755  0.00  0.00    +0.000 C 
BRANCH  15  16
ATOM     16  O   UNL     1       7.502   6.102  15.899  0.00  0.00    +0.000 OA
ATOM     17  H   UNL     1       6.927   6.536  16.559  0.00  0.00    +0.000 HD
ENDBRANCH  15  16
BRANCH  15  18
ATOM     18  C   UNL     1       6.028   4.684  14.575  0.00  0.00    +0.000 C 
BRANCH  18  19
ATOM     19  N   UNL     1       6.158   3.404  13.873  0.00  0.00    +0.000 NA
ATOM     20  H   UNL     1       7.067   2.998  14.117  0.00  0.00    +0.000 HD
BRANCH  19  22
ATOM     21  C   UNL     1       7.237   4.302  11.891  0.00  0.00    +0.000 C 
ATOM     22  C   UNL     1       6.026   3.532  12.418  0.00  0.00    +0.000 C 
ATOM     23  C   UNL     1       5.952   2.166  11.731  0.00  0.00    +0.000 C 
ENDBRANCH  19  22
ENDBRANCH  18  19
ENDBRANCH  15  18
ENDBRANCH  14  15
ENDBRANCH  13  14
ENDBRANCH   1  13
TORSDOF 8
ENDMDL
MODEL 4
REMARK VINA RESULT:      -6.9      1.749      2.929
REMARK  Name = 
REMARK  10 active torsions:
REMARK  status: ('A' for Active; 'I' for Inactive)
REMARK    1  A    between atoms: C_1  and  C_2
REMARK    2  A    between atoms: C_2  and  C_3
REMARK    3  A    between atoms: C_2  and  N_4
REMARK    4  A    between atoms: N_4  and  C_5
REMARK    5  A    between atoms: C_5  and  C_6
REMARK    6  A    between atoms: C_6  and  O_7
REMARK    7  A    between atoms: C_6  and  C_8
REMARK    8  A    between atoms: C_8  and  O_9
REMARK    9  A    between atoms: O_9  and  C_10
REMARK   10  A    between atoms: C_18  and  O_19
REMARK                            x       y       z     vdW  Elec       q    Type
REMARK                         _______ _______ _______ _____ _____    ______ ____
ROOT
ATOM      1  C   UNL     1       2.906   3.737  17.479  0.00  0.00    +0.000 A 
ATOM      2  C   UNL     1       2.475   2.427  17.740  0.00  0.00    +0.000 A 
ATOM      3  C   UNL     1       1.721   2.147  18.878  0.00  0.00    +0.000 A 
ATOM      4  C   UNL     1       1.409   3.164  19.774  0.00  0.00    +0.000 A 
ATOM      5  C   UNL     1       1.834   4.476  19.537  0.00  0.00    +0.000 A 
ATOM      6  C   UNL     1       2.555   4.778  18.359  0.00  0.00    +0.000 A 
ATOM      7  C   UNL     1       3.003   6.198  18.075  0.00  0.00    +0.000 C 
ATOM      8  C   UNL     1       2.285   7.249  18.922  0.00  0.00    +0.000 C 
ATOM      9  C   UNL     1       2.278   6.825  20.384  0.00  0.00    +0.000 C 
ATOM     10  C   UNL     1       1.470   5.537  20.546  0.00  0.00    +0.000 C 
ENDROOT
BRANCH   9  11
ATOM     11  O   UNL     1       1.718   7.860  21.187  0.00  0.00    +0.000 OA
ATOM     12  H   UNL     1       1.448   8.588  20.599  0.00  0.00    +0.000 HD
ENDBRANCH   9  11
BRANCH   1  13
ATOM     13  O   UNL     1       3.680   4.079  16.396  0.00  0.00    +0.000 OA
BRANCH  13  14
ATOM     14  C   UNL     1       5.033   3.598  16.403  0.00  0.00    +0.000 C 
BRANCH  14  15
ATOM     15  C   UNL     1       5.843   4.323  15.321  0.00  0.00    +0.000 C 
BRANCH  15  16
ATOM     16  O   UNL     1       6.435   3.371  14.428  0.00  0.00    +0.000 OA
ATOM     17  H   UNL     1       6.152   2.490  14.739  0.00  0.00    +0.000 HD
ENDBRANCH  15  16
BRANCH  15  18
ATOM     18  C   UNL     1       6.935   5.190  15.969  0.00  0.00    +0.000 C 
BRANCH  18  19
ATOM     19  N   UNL     1       7.473   4.540  17.168  0.00  0.00    +0.000 NA
ATOM     20  H   UNL     1       6.865   3.750  17.401  0.00  0.00    +0.000 HD
BRANCH  19  22
ATOM     21  C   UNL     1       7.635   6.885  17.781  0.00  0.00    +0.000 C 
ATOM     22  C   UNL     1       7.590   5.452  18.311  0.00  0.00    +0.000 C 
ATOM     23  C   UNL     1       6.415   5.303  19.281  0.00  0.00    +0.000 C 
ENDBRANCH  19  22
ENDBRANCH  18  19
ENDBRANCH  15  18
ENDBRANCH  14  15
ENDBRANCH  13  14
ENDBRANCH   1  13
TORSDOF 8
ENDMDL
MODEL 5
REMARK VINA RESULT:      -6.8      2.501      5.957
REMARK  Name = 
REMARK  10 active torsions:
REMARK  status: ('A' for Active; 'I' for Inactive)
REMARK    1  A    between atoms: C_1  and  C_2
REMARK    2  A    between atoms: C_2  and  C_3
REMARK    3  A    between atoms: C_2  and  N_4
REMARK    4  A    between atoms: N_4  and  C_5
REMARK    5  A    between atoms: C_5  and  C_6
REMARK    6  A    between atoms: C_6  and  O_7
REMARK    7  A    between atoms: C_6  and  C_8
REMARK    8  A    between atoms: C_8  and  O_9
REMARK    9  A    between atoms: O_9  and  C_10
REMARK   10  A    between atoms: C_18  and  O_19
REMARK                            x       y       z     vdW  Elec       q    Type
REMARK                         _______ _______ _______ _____ _____    ______ ____
ROOT
ATOM      1  C   UNL     1       3.409   5.693  19.514  0.00  0.00    +0.000 A 
ATOM      2  C   UNL     1       2.455   6.723  19.532  0.00  0.00    +0.000 A 
ATOM      3  C   UNL     1       2.453   7.699  18.538  0.00  0.00    +0.000 A 
ATOM      4  C   UNL     1       3.412   7.671  17.532  0.00  0.00    +0.000 A 
ATOM      5  C   UNL     1       4.377   6.657  17.497  0.00  0.00    +0.000 A 
ATOM      6  C   UNL     1       4.355   5.634  18.473  0.00  0.00    +0.000 A 
ATOM      7  C   UNL     1       5.379   4.516  18.437  0.00  0.00    +0.000 C 
ATOM      8  C   UNL     1       6.111   4.397  17.100  0.00  0.00    +0.000 C 
ATOM      9  C   UNL     1       6.594   5.768  16.647  0.00  0.00    +0.000 C 
ATOM     10  C   UNL     1       5.395   6.680  16.384  0.00  0.00    +0.000 C 
ENDROOT
BRANCH   9  11
ATOM     11  O   UNL     1       7.381   5.639  15.465  0.00  0.00    +0.000 OA
ATOM     12  H   UNL     1       8.314   5.552  15.731  0.00  0.00    +0.000 HD
ENDBRANCH   9  11
BRANCH   1  13
ATOM     13  O   UNL     1       3.492   4.719  20.479  0.00  0.00    +0.000 OA
BRANCH  13  14
ATOM     14  C   UNL     1       2.331   4.539  21.304  0.00  0.00    +0.000 C 
BRANCH  14  15
ATOM     15  C   UNL     1       2.171   3.053  21.652  0.00  0.00    +0.000 C 
BRANCH  15  16
ATOM     16  O   UNL     1       3.450   2.409  21.657  0.00  0.00    +0.000 OA
ATOM     17  H   UNL     1       3.982   2.858  22.342  0.00  0.00    +0.000 HD
ENDBRANCH  15  16
BRANCH  15  18
ATOM     18  C   UNL     1       1.238   2.371  20.638  0.00  0.00    +0.000 C 
BRANCH  18  19
ATOM     19  N   UNL     1       0.824   3.313  19.594  0.00  0.00    +0.000 NA
ATOM     20  H   UNL     1      -0.189   3.442  19.665  0.00  0.00    +0.000 HD
BRANCH  19  22
ATOM     21  C   UNL     1       1.300   4.103  17.347  0.00  0.00    +0.000 C 
ATOM     22  C   UNL     1       1.192   2.871  18.244  0.00  0.00    +0.000 C 
ATOM     23  C   UNL     1       2.523   2.116  18.236  0.00  0.00    +0.000 C 
ENDBRANCH  19  22
ENDBRANCH  18  19
ENDBRANCH  15  18
ENDBRANCH  14  15
ENDBRANCH  13  14
ENDBRANCH   1  13
TORSDOF 8
ENDMDL
MODEL 6
REMARK VINA RESULT:      -6.8      0.819      1.130
REMARK  Name = 
REMARK  10 active torsions:
REMARK  status: ('A' for Active; 'I' for Inactive)
REMARK    1  A    between atoms: C_1  and  C_2
REMARK    2  A    between atoms: C_2  and  C_3
REMARK    3  A    between atoms: C_2  and  N_4
REMARK    4  A    between atoms: N_4  and  C_5
REMARK    5  A    between atoms: C_5  and  C_6
REMARK    6  A    between atoms: C_6  and  O_7
REMARK    7  A    between atoms: C_6  and  C_8
REMARK    8  A    between atoms: C_8  and  O_9
REMARK    9  A    between atoms: O_9  and  C_10
REMARK   10  A    between atoms: C_18  and  O_19
REMARK                            x       y       z     vdW  Elec       q    Type
REMARK                         _______ _______ _______ _____ _____    ______ ____
ROOT
ATOM      1  C   UNL     1       3.896   5.411  17.360  0.00  0.00    +0.000 A 
ATOM      2  C   UNL     1       3.850   6.810  17.258  0.00  0.00    +0.000 A 
ATOM      3  C   UNL     1       3.102   7.559  18.163  0.00  0.00    +0.000 A 
ATOM      4  C   UNL     1       2.376   6.921  19.163  0.00  0.00    +0.000 A 
ATOM      5  C   UNL     1       2.402   5.526  19.280  0.00  0.00    +0.000 A 
ATOM      6  C   UNL     1       3.200   4.763  18.398  0.00  0.00    +0.000 A 
ATOM      7  C   UNL     1       3.257   3.253  18.526  0.00  0.00    +0.000 C 
ATOM      8  C   UNL     1       2.735   2.730  19.864  0.00  0.00    +0.000 C 
ATOM      9  C   UNL     1       1.400   3.383  20.194  0.00  0.00    +0.000 C 
ATOM     10  C   UNL     1       1.592   4.889  20.382  0.00  0.00    +0.000 C 
ENDROOT
BRANCH   9  11
ATOM     11  O   UNL     1       0.856   2.805  21.378  0.00  0.00    +0.000 OA
ATOM     12  H   UNL     1       1.593   2.594  21.978  0.00  0.00    +0.000 HD
ENDBRANCH   9  11
BRANCH   1  13
ATOM     13  O   UNL     1       4.585   4.608  16.483  0.00  0.00    +0.000 OA
BRANCH  13  14
ATOM     14  C   UNL     1       5.034   5.230  15.269  0.00  0.00    +0.000 C 
BRANCH  14  15
ATOM     15  C   UNL     1       6.428   4.701  14.905  0.00  0.00    +0.000 C 
BRANCH  15  16
ATOM     16  O   UNL     1       6.341   3.332  14.490  0.00  0.00    +0.000 OA
ATOM     17  H   UNL     1       7.174   2.906  14.772  0.00  0.00    +0.000 HD
ENDBRANCH  15  16
BRANCH  15  18
ATOM     18  C   UNL     1       7.374   4.830  16.111  0.00  0.00    +0.000 C 
BRANCH  18  19
ATOM     19  N   UNL     1       7.362   6.197  16.639  0.00  0.00    +0.000 NA
ATOM     20  H   UNL     1       7.915   6.786  16.010  0.00  0.00    +0.000 HD
BRANCH  19  22
ATOM     21  C   UNL     1       8.090   7.761  18.349  0.00  0.00    +0.000 C 
ATOM     22  C   UNL     1       7.874   6.286  18.010  0.00  0.00    +0.000 C 
ATOM     23  C   UNL     1       6.906   5.668  19.021  0.00  0.00    +0.000 C 
ENDBRANCH  19  22
ENDBRANCH  18  19
ENDBRANCH  15  18
ENDBRANCH  14  15
ENDBRANCH  13  14
ENDBRANCH   1  13
TORSDOF 8
ENDMDL
MODEL 7
REMARK VINA RESULT:      -6.7      2.399      4.087
REMARK  Name = 
REMARK  10 active torsions:
REMARK  status: ('A' for Active; 'I' for Inactive)
REMARK    1  A    between atoms: C_1  and  C_2
REMARK    2  A    between atoms: C_2  and  C_3
REMARK    3  A    between atoms: C_2  and  N_4
REMARK    4  A    between atoms: N_4  and  C_5
REMARK    5  A    between atoms: C_5  and  C_6
REMARK    6  A    between atoms: C_6  and  O_7
REMARK    7  A    between atoms: C_6  and  C_8
REMARK    8  A    between atoms: C_8  and  O_9
REMARK    9  A    between atoms: O_9  and  C_10
REMARK   10  A    between atoms: C_18  and  O_19
REMARK                            x       y       z     vdW  Elec       q    Type
REMARK                         _______ _______ _______ _____ _____    ______ ____
ROOT
ATOM      1  C   UNL     1       3.235   3.997  17.407  0.00  0.00    +0.000 A 
ATOM      2  C   UNL     1       2.821   2.661  17.526  0.00  0.00    +0.000 A 
ATOM      3  C   UNL     1       1.958   2.279  18.551  0.00  0.00    +0.000 A 
ATOM      4  C   UNL     1       1.518   3.218  19.477  0.00  0.00    +0.000 A 
ATOM      5  C   UNL     1       1.923   4.554  19.382  0.00  0.00    +0.000 A 
ATOM      6  C   UNL     1       2.757   4.961  18.316  0.00  0.00    +0.000 A 
ATOM      7  C   UNL     1       3.186   6.409  18.185  0.00  0.00    +0.000 C 
ATOM      8  C   UNL     1       2.347   7.376  19.020  0.00  0.00    +0.000 C 
ATOM      9  C   UNL     1       2.195   6.844  20.438  0.00  0.00    +0.000 C 
ATOM     10  C   UNL     1       1.417   5.528  20.418  0.00  0.00    +0.000 C 
ENDROOT
BRANCH   9  11
ATOM     11  O   UNL     1       1.518   7.803  21.246  0.00  0.00    +0.000 OA
ATOM     12  H   UNL     1       1.901   7.770  22.141  0.00  0.00    +0.000 HD
ENDBRANCH   9  11
BRANCH   1  13
ATOM     13  O   UNL     1       4.110   4.438  16.444  0.00  0.00    +0.000 OA
BRANCH  13  14
ATOM     14  C   UNL     1       5.489   4.077  16.623  0.00  0.00    +0.000 C 
BRANCH  14  15
ATOM     15  C   UNL     1       6.383   5.083  15.887  0.00  0.00    +0.000 C 
BRANCH  15  16
ATOM     16  O   UNL     1       5.713   6.344  15.770  0.00  0.00    +0.000 OA
ATOM     17  H   UNL     1       5.962   6.709  14.899  0.00  0.00    +0.000 HD
ENDBRANCH  15  16
BRANCH  15  18
ATOM     18  C   UNL     1       6.747   4.546  14.492  0.00  0.00    +0.000 C 
BRANCH  18  19
ATOM     19  N   UNL     1       5.554   4.060  13.794  0.00  0.00    +0.000 NA
ATOM     20  H   UNL     1       5.018   3.480  14.445  0.00  0.00    +0.000 HD
BRANCH  19  22
ATOM     21  C   UNL     1       4.636   3.308  11.674  0.00  0.00    +0.000 C 
ATOM     22  C   UNL     1       5.870   3.306  12.575  0.00  0.00    +0.000 C 
ATOM     23  C   UNL     1       7.054   3.916  11.820  0.00  0.00    +0.000 C 
ENDBRANCH  19  22
ENDBRANCH  18  19
ENDBRANCH  15  18
ENDBRANCH  14  15
ENDBRANCH  13  14
ENDBRANCH   1  13
TORSDOF 8
ENDMDL
MODEL 8
REMARK VINA RESULT:      -6.6      2.397      3.774
REMARK  Name = 
REMARK  10 active torsions:
REMARK  status: ('A' for Active; 'I' for Inactive)
REMARK    1  A    between atoms: C_1  and  C_2
REMARK    2  A    between atoms: C_2  and  C_3
REMARK    3  A    between atoms: C_2  and  N_4
REMARK    4  A    between atoms: N_4  and  C_5
REMARK    5  A    between atoms: C_5  and  C_6
REMARK    6  A    between atoms: C_6  and  O_7
REMARK    7  A    between atoms: C_6  and  C_8
REMARK    8  A    between atoms: C_8  and  O_9
REMARK    9  A    between atoms: O_9  and  C_10
REMARK   10  A    between atoms: C_18  and  O_19
REMARK                            x       y       z     vdW  Elec       q    Type
REMARK                         _______ _______ _______ _____ _____    ______ ____
ROOT
ATOM      1  C   UNL     1       4.165   5.924  16.973  0.00  0.00    +0.000 A 
ATOM      2  C   UNL     1       3.921   7.206  17.489  0.00  0.00    +0.000 A 
ATOM      3  C   UNL     1       3.004   7.387  18.522  0.00  0.00    +0.000 A 
ATOM      4  C   UNL     1       2.307   6.298  19.035  0.00  0.00    +0.000 A 
ATOM      5  C   UNL     1       2.531   5.011  18.531  0.00  0.00    +0.000 A 
ATOM      6  C   UNL     1       3.496   4.811  17.519  0.00  0.00    +0.000 A 
ATOM      7  C   UNL     1       3.767   3.420  16.979  0.00  0.00    +0.000 C 
ATOM      8  C   UNL     1       3.229   2.301  17.869  0.00  0.00    +0.000 C 
ATOM      9  C   UNL     1       1.791   2.599  18.271  0.00  0.00    +0.000 C 
ATOM     10  C   UNL     1       1.744   3.868  19.124  0.00  0.00    +0.000 C 
ENDROOT
BRANCH   9  11
ATOM     11  O   UNL     1       1.251   1.498  18.998  0.00  0.00    +0.000 OA
ATOM     12  H   UNL     1       0.762   1.851  19.763  0.00  0.00    +0.000 HD
ENDBRANCH   9  11
BRANCH   1  13
ATOM     13  O   UNL     1       5.029   5.676  15.934  0.00  0.00    +0.000 OA
BRANCH  13  14
ATOM     14  C   UNL     1       6.422   5.584  16.271  0.00  0.00    +0.000 C 
BRANCH  14  15
ATOM     15  C   UNL     1       7.153   4.745  15.216  0.00  0.00    +0.000 C 
BRANCH  15  16
ATOM     16  O   UNL     1       7.872   5.601  14.319  0.00  0.00    +0.000 OA
ATOM     17  H   UNL     1       7.338   5.655  13.503  0.00  0.00    +0.000 HD
ENDBRANCH  15  16
BRANCH  15  18
ATOM     18  C   UNL     1       6.147   3.884  14.434  0.00  0.00    +0.000 C 
BRANCH  18  19
ATOM     19  N   UNL     1       6.444   3.911  12.998  0.00  0.00    +0.000 NA
ATOM     20  H   UNL     1       6.114   4.804  12.622  0.00  0.00    +0.000 HD
BRANCH  19  22
ATOM     21  C   UNL     1       4.600   3.305  11.537  0.00  0.00    +0.000 C 
ATOM     22  C   UNL     1       5.841   2.791  12.267  0.00  0.00    +0.000 C 
ATOM     23  C   UNL     1       6.813   2.182  11.255  0.00  0.00    +0.000 C 
ENDBRANCH  19  22
ENDBRANCH  18  19
ENDBRANCH  15  18
ENDBRANCH  14  15
ENDBRANCH  13  14
ENDBRANCH   1  13
TORSDOF 8
ENDMDL
MODEL 9
REMARK VINA RESULT:      -6.5      2.241      3.484
REMARK  Name = 
REMARK  10 active torsions:
REMARK  status: ('A' for Active; 'I' for Inactive)
REMARK    1  A    between atoms: C_1  and  C_2
REMARK    2  A    between atoms: C_2  and  C_3
REMARK    3  A    between atoms: C_2  and  N_4
REMARK    4  A    between atoms: N_4  and  C_5
REMARK    5  A    between atoms: C_5  and  C_6
REMARK    6  A    between atoms: C_6  and  O_7
REMARK    7  A    between atoms: C_6  and  C_8
REMARK    8  A    between atoms: C_8  and  O_9
REMARK    9  A    between atoms: O_9  and  C_10
REMARK   10  A    between atoms: C_18  and  O_19
REMARK                            x       y       z     vdW  Elec       q    Type
REMARK                         _______ _______ _______ _____ _____    ______ ____
ROOT
ATOM      1  C   UNL     1       3.928   6.080  17.222  0.00  0.00    +0.000 A 
ATOM      2  C   UNL     1       3.596   7.331  17.766  0.00  0.00    +0.000 A 
ATOM      3  C   UNL     1       2.602   7.436  18.737  0.00  0.00    +0.000 A 
ATOM      4  C   UNL     1       1.916   6.302  19.158  0.00  0.00    +0.000 A 
ATOM      5  C   UNL     1       2.226   5.045  18.625  0.00  0.00    +0.000 A 
ATOM      6  C   UNL     1       3.268   4.922  17.677  0.00  0.00    +0.000 A 
ATOM      7  C   UNL     1       3.632   3.565  17.107  0.00  0.00    +0.000 C 
ATOM      8  C   UNL     1       3.078   2.391  17.915  0.00  0.00    +0.000 C 
ATOM      9  C   UNL     1       1.605   2.619  18.224  0.00  0.00    +0.000 C 
ATOM     10  C   UNL     1       1.447   3.850  19.117  0.00  0.00    +0.000 C 
ENDROOT
BRANCH   9  11
ATOM     11  O   UNL     1       1.061   1.471  18.869  0.00  0.00    +0.000 OA
ATOM     12  H   UNL     1       0.214   1.255  18.440  0.00  0.00    +0.000 HD
ENDBRANCH   9  11
BRANCH   1  13
ATOM     13  O   UNL     1       4.871   5.906  16.239  0.00  0.00    +0.000 OA
BRANCH  13  14
ATOM     14  C   UNL     1       6.236   5.814  16.675  0.00  0.00    +0.000 C 
BRANCH  14  15
ATOM     15  C   UNL     1       6.832   4.475  16.221  0.00  0.00    +0.000 C 
BRANCH  15  16
ATOM     16  O   UNL     1       8.041   4.205  16.943  0.00  0.00    +0.000 OA
ATOM     17  H   UNL     1       7.828   3.497  17.581  0.00  0.00    +0.000 HD
ENDBRANCH  15  16
BRANCH  15  18
ATOM     18  C   UNL     1       7.114   4.506  14.710  0.00  0.00    +0.000 C 
BRANCH  18  19
ATOM     19  N   UNL     1       6.322   3.489  14.011  0.00  0.00    +0.000 NA
ATOM     20  H   UNL     1       6.859   2.617  14.004  0.00  0.00    +0.000 HD
BRANCH  19  22
ATOM     21  C   UNL     1       7.252   4.134  11.861  0.00  0.00    +0.000 C 
ATOM     22  C   UNL     1       5.963   3.882  12.644  0.00  0.00    +0.000 C 
ATOM     23  C   UNL     1       5.141   2.800  11.938  0.00  0.00    +0.000 C 
ENDBRANCH  19  22
ENDBRANCH  18  19
ENDBRANCH  15  18
ENDBRANCH  14  15
ENDBRANCH  13  14
ENDBRANCH   1  13
TORSDOF 8
ENDMDL
