MODEL 1
REMARK VINA RESULT:      -9.4      0.000      0.000
REMARK  Name = 
REMARK  8 active torsions:
REMARK  status: ('A' for Active; 'I' for Inactive)
REMARK    1  A    between atoms: C_1  and  C_2
REMARK    2  A    between atoms: N_4  and  C_5
REMARK    3  A    between atoms: C_9  and  C_10
REMARK    4  A    between atoms: C_10  and  C_11
REMARK    5  A    between atoms: C_11  and  C_12
REMARK    6  A    between atoms: C_11  and  C_13
REMARK    7  A    between atoms: C_25  and  C_26
REMARK    8  A    between atoms: C_25  and  C_27
REMARK                            x       y       z     vdW  Elec       q    Type
REMARK                         _______ _______ _______ _____ _____    ______ ____
ROOT
ATOM      1  C   UNL     1       1.753   8.459  19.509  0.00  0.00    +0.000 A 
ATOM      2  C   UNL     1       1.395   8.352  20.844  0.00  0.00    +0.000 A 
ATOM      3  C   UNL     1       0.593   9.326  21.449  0.00  0.00    +0.000 A 
ATOM      4  C   UNL     1       0.070  10.406  20.690  0.00  0.00    +0.000 A 
ATOM      5  C   UNL     1       0.478  10.558  19.338  0.00  0.00    +0.000 A 
ATOM      6  C   UNL     1       1.329   9.574  18.778  0.00  0.00    +0.000 A 
ATOM      7  C   UNL     1      -0.920  11.303  21.381  0.00  0.00    +0.000 C 
ATOM      8  O   UNL     1      -1.729  12.005  20.788  0.00  0.00    +0.000 OA
ATOM      9  N   UNL     1      -0.950  11.257  22.768  0.00  0.00    +0.000 N 
ATOM     10  C   UNL     1      -0.846   9.961  23.389  0.00  0.00    +0.000 C 
ATOM     11  C   UNL     1       0.419   9.255  22.956  0.00  0.00    +0.000 C 
ATOM     12  H   UNL     1      -1.644  11.885  23.154  0.00  0.00    +0.000 HD
ENDROOT
BRANCH   1  16
ATOM     13  C   UNL     1       4.954   6.213  16.367  0.00  0.00    +0.000 C 
ATOM     14  C   UNL     1       4.011   6.445  17.491  0.00  0.00    +0.000 A 
ATOM     15  C   UNL     1       3.311   7.600  17.767  0.00  0.00    +0.000 A 
ATOM     16  N   UNL     1       2.543   7.429  18.912  0.00  0.00    +0.000 N 
ATOM     17  C   UNL     1       2.691   6.114  19.307  0.00  0.00    +0.000 A 
ATOM     18  C   UNL     1       3.620   5.504  18.474  0.00  0.00    +0.000 A 
ATOM     19  C   UNL     1       3.978   4.099  18.629  0.00  0.00    +0.000 C 
ATOM     20  O   UNL     1       4.756   3.521  17.871  0.00  0.00    +0.000 OA
ATOM     21  C   UNL     1       3.371   3.396  19.834  0.00  0.00    +0.000 C 
ATOM     22  C   UNL     1       1.919   3.863  20.110  0.00  0.00    +0.000 C 
ATOM     23  C   UNL     1       0.999   3.490  18.925  0.00  0.00    +0.000 C 
ATOM     24  C   UNL     1       1.394   3.139  21.360  0.00  0.00    +0.000 C 
ATOM     25  C   UNL     1       1.898   5.400  20.362  0.00  0.00    +0.000 C 
ENDBRANCH   1  16
BRANCH   5  26
ATOM     26  C   UNL     1       0.144  11.759  18.436  0.00  0.00    +0.000 C 
BRANCH  26  27
ATOM     27  C   UNL     1       0.850  13.085  18.822  0.00  0.00    +0.000 C 
ATOM     28  C   UNL     1       2.154  13.259  18.050  0.00  0.00    +0.000 C 
ATOM     29  C   UNL     1      -0.031  14.330  18.617  0.00  0.00    +0.000 C 
ENDBRANCH  26  27
ENDBRANCH   5  26
TORSDOF 3
ENDMDL
MODEL 2
REMARK VINA RESULT:      -9.3      1.653      3.104
REMARK  Name = 
REMARK  8 active torsions:
REMARK  status: ('A' for Active; 'I' for Inactive)
REMARK    1  A    between atoms: C_1  and  C_2
REMARK    2  A    between atoms: N_4  and  C_5
REMARK    3  A    between atoms: C_9  and  C_10
REMARK    4  A    between atoms: C_10  and  C_11
REMARK    5  A    between atoms: C_11  and  C_12
REMARK    6  A    between atoms: C_11  and  C_13
REMARK    7  A    between atoms: C_25  and  C_26
REMARK    8  A    between atoms: C_25  and  C_27
REMARK                            x       y       z     vdW  Elec       q    Type
REMARK                         _______ _______ _______ _____ _____    ______ ____
ROOT
ATOM      1  C   UNL     1       1.365   8.726  18.607  0.00  0.00    +0.000 A 
ATOM      2  C   UNL     1       0.398   8.976  17.645  0.00  0.00    +0.000 A 
ATOM      3  C   UNL     1      -0.609   9.920  17.872  0.00  0.00    +0.000 A 
ATOM      4  C   UNL     1      -0.620  10.694  19.062  0.00  0.00    +0.000 A 
ATOM      5  C   UNL     1       0.329  10.406  20.079  0.00  0.00    +0.000 A 
ATOM      6  C   UNL     1       1.304   9.409  19.827  0.00  0.00    +0.000 A 
ATOM      7  C   UNL     1      -1.634  11.801  19.141  0.00  0.00    +0.000 C 
ATOM      8  O   UNL     1      -1.526  12.770  19.883  0.00  0.00    +0.000 OA
ATOM      9  N   UNL     1      -2.704  11.739  18.259  0.00  0.00    +0.000 N 
ATOM     10  C   UNL     1      -2.422  11.339  16.904  0.00  0.00    +0.000 C 
ATOM     11  C   UNL     1      -1.748   9.986  16.870  0.00  0.00    +0.000 C 
ATOM     12  H   UNL     1      -3.336  12.521  18.373  0.00  0.00    +0.000 HD
ENDROOT
BRANCH   1  16
ATOM     13  C   UNL     1       5.503   6.746  16.576  0.00  0.00    +0.000 C 
ATOM     14  C   UNL     1       4.287   6.921  17.412  0.00  0.00    +0.000 A 
ATOM     15  C   UNL     1       3.402   7.978  17.387  0.00  0.00    +0.000 A 
ATOM     16  N   UNL     1       2.400   7.782  18.330  0.00  0.00    +0.000 N 
ATOM     17  C   UNL     1       2.608   6.537  18.890  0.00  0.00    +0.000 A 
ATOM     18  C   UNL     1       3.784   6.009  18.371  0.00  0.00    +0.000 A 
ATOM     19  C   UNL     1       4.264   4.688  18.759  0.00  0.00    +0.000 C 
ATOM     20  O   UNL     1       5.272   4.176  18.274  0.00  0.00    +0.000 OA
ATOM     21  C   UNL     1       3.468   3.996  19.855  0.00  0.00    +0.000 C 
ATOM     22  C   UNL     1       1.946   4.264  19.727  0.00  0.00    +0.000 C 
ATOM     23  C   UNL     1       1.405   3.671  18.406  0.00  0.00    +0.000 C 
ATOM     24  C   UNL     1       1.221   3.567  20.889  0.00  0.00    +0.000 C 
ATOM     25  C   UNL     1       1.672   5.795  19.798  0.00  0.00    +0.000 C 
ENDBRANCH   1  16
BRANCH   5  26
ATOM     26  C   UNL     1       0.345  11.029  21.486  0.00  0.00    +0.000 C 
BRANCH  26  27
ATOM     27  C   UNL     1      -0.701  10.446  22.472  0.00  0.00    +0.000 C 
ATOM     28  C   UNL     1      -0.041   9.517  23.487  0.00  0.00    +0.000 C 
ATOM     29  C   UNL     1      -1.505  11.523  23.219  0.00  0.00    +0.000 C 
ENDBRANCH  26  27
ENDBRANCH   5  26
TORSDOF 3
ENDMDL
MODEL 3
REMARK VINA RESULT:      -9.2      1.314      1.832
REMARK  Name = 
REMARK  8 active torsions:
REMARK  status: ('A' for Active; 'I' for Inactive)
REMARK    1  A    between atoms: C_1  and  C_2
REMARK    2  A    between atoms: N_4  and  C_5
REMARK    3  A    between atoms: C_9  and  C_10
REMARK    4  A    between atoms: C_10  and  C_11
REMARK    5  A    between atoms: C_11  and  C_12
REMARK    6  A    between atoms: C_11  and  C_13
REMARK    7  A    between atoms: C_25  and  C_26
REMARK    8  A    between atoms: C_25  and  C_27
REMARK                            x       y       z     vdW  Elec       q    Type
REMARK                         _______ _______ _______ _____ _____    ______ ____
ROOT
ATOM      1  C   UNL     1       1.471   8.572  19.244  0.00  0.00    +0.000 A 
ATOM      2  C   UNL     1       1.354   8.746  20.615  0.00  0.00    +0.000 A 
ATOM      3  C   UNL     1       0.441   9.666  21.143  0.00  0.00    +0.000 A 
ATOM      4  C   UNL     1      -0.435  10.386  20.290  0.00  0.00    +0.000 A 
ATOM      5  C   UNL     1      -0.285  10.261  18.883  0.00  0.00    +0.000 A 
ATOM      6  C   UNL     1       0.684   9.353  18.390  0.00  0.00    +0.000 A 
ATOM      7  C   UNL     1      -1.497  11.218  20.957  0.00  0.00    +0.000 C 
ATOM      8  O   UNL     1      -2.532  11.567  20.403  0.00  0.00    +0.000 OA
ATOM      9  N   UNL     1      -1.305  11.528  22.295  0.00  0.00    +0.000 N 
ATOM     10  C   UNL     1      -0.798  10.484  23.151  0.00  0.00    +0.000 C 
ATOM     11  C   UNL     1       0.519   9.955  22.632  0.00  0.00    +0.000 C 
ATOM     12  H   UNL     1      -2.065  12.084  22.669  0.00  0.00    +0.000 HD
ENDROOT
BRANCH   1  16
ATOM     13  C   UNL     1       5.099   6.545  16.435  0.00  0.00    +0.000 C 
ATOM     14  C   UNL     1       4.046   6.716  17.468  0.00  0.00    +0.000 A 
ATOM     15  C   UNL     1       3.237   7.817  17.660  0.00  0.00    +0.000 A 
ATOM     16  N   UNL     1       2.387   7.600  18.738  0.00  0.00    +0.000 N 
ATOM     17  C   UNL     1       2.601   6.306  19.170  0.00  0.00    +0.000 A 
ATOM     18  C   UNL     1       3.644   5.760  18.432  0.00  0.00    +0.000 A 
ATOM     19  C   UNL     1       4.095   4.390  18.645  0.00  0.00    +0.000 C 
ATOM     20  O   UNL     1       4.978   3.866  17.968  0.00  0.00    +0.000 OA
ATOM     21  C   UNL     1       3.440   3.657  19.806  0.00  0.00    +0.000 C 
ATOM     22  C   UNL     1       1.938   4.012  19.948  0.00  0.00    +0.000 C 
ATOM     23  C   UNL     1       1.157   3.553  18.695  0.00  0.00    +0.000 C 
ATOM     24  C   UNL     1       1.363   3.265  21.161  0.00  0.00    +0.000 C 
ATOM     25  C   UNL     1       1.777   5.545  20.166  0.00  0.00    +0.000 C 
ENDBRANCH   1  16
BRANCH   5  26
ATOM     26  C   UNL     1      -1.031  11.095  17.829  0.00  0.00    +0.000 C 
BRANCH  26  27
ATOM     27  C   UNL     1      -1.997  10.290  16.921  0.00  0.00    +0.000 C 
ATOM     28  C   UNL     1      -3.069   9.585  17.746  0.00  0.00    +0.000 C 
ATOM     29  C   UNL     1      -2.674  11.146  15.836  0.00  0.00    +0.000 C 
ENDBRANCH  26  27
ENDBRANCH   5  26
TORSDOF 3
ENDMDL
MODEL 4
REMARK VINA RESULT:      -9.0      1.834      7.903
REMARK  Name = 
REMARK  8 active torsions:
REMARK  status: ('A' for Active; 'I' for Inactive)
REMARK    1  A    between atoms: C_1  and  C_2
REMARK    2  A    between atoms: N_4  and  C_5
REMARK    3  A    between atoms: C_9  and  C_10
REMARK    4  A    between atoms: C_10  and  C_11
REMARK    5  A    between atoms: C_11  and  C_12
REMARK    6  A    between atoms: C_11  and  C_13
REMARK    7  A    between atoms: C_25  and  C_26
REMARK    8  A    between atoms: C_25  and  C_27
REMARK                            x       y       z     vdW  Elec       q    Type
REMARK                         _______ _______ _______ _____ _____    ______ ____
ROOT
ATOM      1  C   UNL     1       1.694   8.317  19.369  0.00  0.00    +0.000 A 
ATOM      2  C   UNL     1       2.515   8.435  18.258  0.00  0.00    +0.000 A 
ATOM      3  C   UNL     1       3.355   7.383  17.875  0.00  0.00    +0.000 A 
ATOM      4  C   UNL     1       3.331   6.147  18.574  0.00  0.00    +0.000 A 
ATOM      5  C   UNL     1       2.539   6.035  19.748  0.00  0.00    +0.000 A 
ATOM      6  C   UNL     1       1.738   7.141  20.127  0.00  0.00    +0.000 A 
ATOM      7  C   UNL     1       4.136   5.022  17.986  0.00  0.00    +0.000 C 
ATOM      8  O   UNL     1       3.922   3.838  18.221  0.00  0.00    +0.000 OA
ATOM      9  N   UNL     1       5.120   5.363  17.069  0.00  0.00    +0.000 N 
ATOM     10  C   UNL     1       4.797   6.381  16.100  0.00  0.00    +0.000 C 
ATOM     11  C   UNL     1       4.373   7.661  16.784  0.00  0.00    +0.000 C 
ATOM     12  H   UNL     1       5.611   4.550  16.718  0.00  0.00    +0.000 HD
ENDROOT
BRANCH   1  16
ATOM     13  C   UNL     1      -0.441  11.956  22.083  0.00  0.00    +0.000 C 
ATOM     14  C   UNL     1      -0.110  11.049  20.955  0.00  0.00    +0.000 A 
ATOM     15  C   UNL     1       0.777   9.993  20.966  0.00  0.00    +0.000 A 
ATOM     16  N   UNL     1       0.822   9.395  19.713  0.00  0.00    +0.000 N 
ATOM     17  C   UNL     1      -0.122  10.027  18.928  0.00  0.00    +0.000 A 
ATOM     18  C   UNL     1      -0.676  11.072  19.657  0.00  0.00    +0.000 A 
ATOM     19  C   UNL     1      -1.723  11.920  19.101  0.00  0.00    +0.000 C 
ATOM     20  O   UNL     1      -2.268  12.816  19.745  0.00  0.00    +0.000 OA
ATOM     21  C   UNL     1      -2.067  11.667  17.641  0.00  0.00    +0.000 C 
ATOM     22  C   UNL     1      -2.016  10.159  17.283  0.00  0.00    +0.000 C 
ATOM     23  C   UNL     1      -3.083   9.380  18.085  0.00  0.00    +0.000 C 
ATOM     24  C   UNL     1      -2.334   9.993  15.789  0.00  0.00    +0.000 C 
ATOM     25  C   UNL     1      -0.592   9.598  17.570  0.00  0.00    +0.000 C 
ENDBRANCH   1  16
BRANCH   5  26
ATOM     26  C   UNL     1       2.534   4.834  20.708  0.00  0.00    +0.000 C 
BRANCH  26  27
ATOM     27  C   UNL     1       1.233   3.989  20.694  0.00  0.00    +0.000 C 
ATOM     28  C   UNL     1       0.867   3.566  19.275  0.00  0.00    +0.000 C 
ATOM     29  C   UNL     1       1.303   2.742  21.593  0.00  0.00    +0.000 C 
ENDBRANCH  26  27
ENDBRANCH   5  26
TORSDOF 3
ENDMDL
MODEL 5
REMARK VINA RESULT:      -8.1      0.985      2.800
REMARK  Name = 
REMARK  8 active torsions:
REMARK  status: ('A' for Active; 'I' for Inactive)
REMARK    1  A    between atoms: C_1  and  C_2
REMARK    2  A    between atoms: N_4  and  C_5
REMARK    3  A    between atoms: C_9  and  C_10
REMARK    4  A    between atoms: C_10  and  C_11
REMARK    5  A    between atoms: C_11  and  C_12
REMARK    6  A    between atoms: C_11  and  C_13
REMARK    7  A    between atoms: C_25  and  C_26
REMARK    8  A    between atoms: C_25  and  C_27
REMARK                            x       y       z     vdW  Elec       q    Type
REMARK                         _______ _______ _______ _____ _____    ______ ____
ROOT
ATOM      1  C   UNL     1       1.496   7.683  20.300  0.00  0.00    +0.000 A 
ATOM      2  C   UNL     1       0.948   7.962  21.542  0.00  0.00    +0.000 A 
ATOM      3  C   UNL     1       0.349   9.201  21.796  0.00  0.00    +0.000 A 
ATOM      4  C   UNL     1       0.225  10.170  20.766  0.00  0.00    +0.000 A 
ATOM      5  C   UNL     1       0.835   9.918  19.508  0.00  0.00    +0.000 A 
ATOM      6  C   UNL     1       1.472   8.669  19.307  0.00  0.00    +0.000 A 
ATOM      7  C   UNL     1      -0.585  11.396  21.084  0.00  0.00    +0.000 C 
ATOM      8  O   UNL     1      -1.102  12.108  20.231  0.00  0.00    +0.000 OA
ATOM      9  N   UNL     1      -0.810  11.673  22.425  0.00  0.00    +0.000 N 
ATOM     10  C   UNL     1      -1.124  10.560  23.286  0.00  0.00    +0.000 C 
ATOM     11  C   UNL     1      -0.036   9.512  23.232  0.00  0.00    +0.000 C 
ATOM     12  H   UNL     1      -1.365  12.509  22.553  0.00  0.00    +0.000 HD
ENDROOT
BRANCH   1  16
ATOM     13  C   UNL     1       2.644   2.847  20.982  0.00  0.00    +0.000 C 
ATOM     14  C   UNL     1       2.553   4.203  20.383  0.00  0.00    +0.000 A 
ATOM     15  C   UNL     1       1.960   5.320  20.934  0.00  0.00    +0.000 A 
ATOM     16  N   UNL     1       2.068   6.396  20.061  0.00  0.00    +0.000 N 
ATOM     17  C   UNL     1       2.823   5.971  18.986  0.00  0.00    +0.000 A 
ATOM     18  C   UNL     1       3.095   4.618  19.143  0.00  0.00    +0.000 A 
ATOM     19  C   UNL     1       3.896   3.882  18.171  0.00  0.00    +0.000 C 
ATOM     20  O   UNL     1       4.197   2.698  18.316  0.00  0.00    +0.000 OA
ATOM     21  C   UNL     1       4.292   4.658  16.925  0.00  0.00    +0.000 C 
ATOM     22  C   UNL     1       4.622   6.140  17.242  0.00  0.00    +0.000 C 
ATOM     23  C   UNL     1       5.851   6.229  18.175  0.00  0.00    +0.000 C 
ATOM     24  C   UNL     1       4.973   6.861  15.931  0.00  0.00    +0.000 C 
ATOM     25  C   UNL     1       3.386   6.828  17.891  0.00  0.00    +0.000 C 
ENDBRANCH   1  16
BRANCH   5  26
ATOM     26  C   UNL     1       0.941  10.927  18.352  0.00  0.00    +0.000 C 
BRANCH  26  27
ATOM     27  C   UNL     1       1.845  12.156  18.636  0.00  0.00    +0.000 C 
ATOM     28  C   UNL     1       3.075  12.154  17.733  0.00  0.00    +0.000 C 
ATOM     29  C   UNL     1       1.112  13.501  18.493  0.00  0.00    +0.000 C 
ENDBRANCH  26  27
ENDBRANCH   5  26
TORSDOF 3
ENDMDL
MODEL 6
REMARK VINA RESULT:      -8.1      1.777      2.594
REMARK  Name = 
REMARK  8 active torsions:
REMARK  status: ('A' for Active; 'I' for Inactive)
REMARK    1  A    between atoms: C_1  and  C_2
REMARK    2  A    between atoms: N_4  and  C_5
REMARK    3  A    between atoms: C_9  and  C_10
REMARK    4  A    between atoms: C_10  and  C_11
REMARK    5  A    between atoms: C_11  and  C_12
REMARK    6  A    between atoms: C_11  and  C_13
REMARK    7  A    between atoms: C_25  and  C_26
REMARK    8  A    between atoms: C_25  and  C_27
REMARK                            x       y       z     vdW  Elec       q    Type
REMARK                         _______ _______ _______ _____ _____    ______ ____
ROOT
ATOM      1  C   UNL     1       1.510   8.919  18.446  0.00  0.00    +0.000 A 
ATOM      2  C   UNL     1       0.400   8.970  17.616  0.00  0.00    +0.000 A 
ATOM      3  C   UNL     1      -0.582   9.951  17.797  0.00  0.00    +0.000 A 
ATOM      4  C   UNL     1      -0.428  10.956  18.787  0.00  0.00    +0.000 A 
ATOM      5  C   UNL     1       0.674  10.878  19.681  0.00  0.00    +0.000 A 
ATOM      6  C   UNL     1       1.621   9.842  19.492  0.00  0.00    +0.000 A 
ATOM      7  C   UNL     1      -1.444  12.064  18.792  0.00  0.00    +0.000 C 
ATOM      8  O   UNL     1      -1.246  13.165  19.291  0.00  0.00    +0.000 OA
ATOM      9  N   UNL     1      -2.635  11.828  18.120  0.00  0.00    +0.000 N 
ATOM     10  C   UNL     1      -2.556  11.152  16.850  0.00  0.00    +0.000 C 
ATOM     11  C   UNL     1      -1.864   9.816  16.993  0.00  0.00    +0.000 C 
ATOM     12  H   UNL     1      -3.261  12.623  18.166  0.00  0.00    +0.000 HD
ENDROOT
BRANCH   1  16
ATOM     13  C   UNL     1       5.607   6.731  16.552  0.00  0.00    +0.000 C 
ATOM     14  C   UNL     1       4.383   6.972  17.357  0.00  0.00    +0.000 A 
ATOM     15  C   UNL     1       3.541   8.063  17.289  0.00  0.00    +0.000 A 
ATOM     16  N   UNL     1       2.512   7.929  18.213  0.00  0.00    +0.000 N 
ATOM     17  C   UNL     1       2.657   6.689  18.804  0.00  0.00    +0.000 A 
ATOM     18  C   UNL     1       3.822   6.104  18.324  0.00  0.00    +0.000 A 
ATOM     19  C   UNL     1       4.241   4.774  18.751  0.00  0.00    +0.000 C 
ATOM     20  O   UNL     1       5.238   4.211  18.300  0.00  0.00    +0.000 OA
ATOM     21  C   UNL     1       3.394   4.139  19.844  0.00  0.00    +0.000 C 
ATOM     22  C   UNL     1       1.888   4.463  19.676  0.00  0.00    +0.000 C 
ATOM     23  C   UNL     1       1.352   3.863  18.357  0.00  0.00    +0.000 C 
ATOM     24  C   UNL     1       1.110   3.822  20.836  0.00  0.00    +0.000 C 
ATOM     25  C   UNL     1       1.674   6.005  19.707  0.00  0.00    +0.000 C 
ENDBRANCH   1  16
BRANCH   5  26
ATOM     26  C   UNL     1       0.891  11.780  20.908  0.00  0.00    +0.000 C 
BRANCH  26  27
ATOM     27  C   UNL     1       1.924  12.920  20.707  0.00  0.00    +0.000 C 
ATOM     28  C   UNL     1       2.233  13.129  19.227  0.00  0.00    +0.000 C 
ATOM     29  C   UNL     1       1.487  14.259  21.327  0.00  0.00    +0.000 C 
ENDBRANCH  26  27
ENDBRANCH   5  26
TORSDOF 3
ENDMDL
MODEL 7
REMARK VINA RESULT:      -7.9      1.521      3.072
REMARK  Name = 
REMARK  8 active torsions:
REMARK  status: ('A' for Active; 'I' for Inactive)
REMARK    1  A    between atoms: C_1  and  C_2
REMARK    2  A    between atoms: N_4  and  C_5
REMARK    3  A    between atoms: C_9  and  C_10
REMARK    4  A    between atoms: C_10  and  C_11
REMARK    5  A    between atoms: C_11  and  C_12
REMARK    6  A    between atoms: C_11  and  C_13
REMARK    7  A    between atoms: C_25  and  C_26
REMARK    8  A    between atoms: C_25  and  C_27
REMARK                            x       y       z     vdW  Elec       q    Type
REMARK                         _______ _______ _______ _____ _____    ______ ____
ROOT
ATOM      1  C   UNL     1       2.149   7.567  18.987  0.00  0.00    +0.000 A 
ATOM      2  C   UNL     1       1.800   7.493  20.327  0.00  0.00    +0.000 A 
ATOM      3  C   UNL     1       1.171   8.569  20.962  0.00  0.00    +0.000 A 
ATOM      4  C   UNL     1       0.812   9.732  20.231  0.00  0.00    +0.000 A 
ATOM      5  C   UNL     1       1.217   9.844  18.874  0.00  0.00    +0.000 A 
ATOM      6  C   UNL     1       1.894   8.749  18.282  0.00  0.00    +0.000 A 
ATOM      7  C   UNL     1      -0.013  10.759  20.955  0.00  0.00    +0.000 C 
ATOM      8  O   UNL     1      -0.713  11.591  20.388  0.00  0.00    +0.000 OA
ATOM      9  N   UNL     1      -0.028  10.693  22.341  0.00  0.00    +0.000 N 
ATOM     10  C   UNL     1      -0.118   9.385  22.939  0.00  0.00    +0.000 C 
ATOM     11  C   UNL     1       1.013   8.498  22.471  0.00  0.00    +0.000 C 
ATOM     12  H   UNL     1      -0.609  11.414  22.749  0.00  0.00    +0.000 HD
ENDROOT
BRANCH   1  16
ATOM     13  C   UNL     1       2.688   2.926  17.161  0.00  0.00    +0.000 C 
ATOM     14  C   UNL     1       2.966   4.340  17.522  0.00  0.00    +0.000 A 
ATOM     15  C   UNL     1       2.155   5.192  18.243  0.00  0.00    +0.000 A 
ATOM     16  N   UNL     1       2.758   6.438  18.359  0.00  0.00    +0.000 N 
ATOM     17  C   UNL     1       4.009   6.339  17.783  0.00  0.00    +0.000 A 
ATOM     18  C   UNL     1       4.141   5.073  17.227  0.00  0.00    +0.000 A 
ATOM     19  C   UNL     1       5.367   4.657  16.557  0.00  0.00    +0.000 C 
ATOM     20  O   UNL     1       5.529   3.524  16.105  0.00  0.00    +0.000 OA
ATOM     21  C   UNL     1       6.427   5.736  16.399  0.00  0.00    +0.000 C 
ATOM     22  C   UNL     1       6.493   6.674  17.631  0.00  0.00    +0.000 C 
ATOM     23  C   UNL     1       6.918   5.880  18.888  0.00  0.00    +0.000 C 
ATOM     24  C   UNL     1       7.555   7.755  17.376  0.00  0.00    +0.000 C 
ATOM     25  C   UNL     1       5.110   7.355  17.851  0.00  0.00    +0.000 C 
ENDBRANCH   1  16
BRANCH   5  26
ATOM     26  C   UNL     1       1.061  11.098  17.998  0.00  0.00    +0.000 C 
BRANCH  26  27
ATOM     27  C   UNL     1       1.764  12.369  18.542  0.00  0.00    +0.000 C 
ATOM     28  C   UNL     1       3.098  12.603  17.838  0.00  0.00    +0.000 C 
ATOM     29  C   UNL     1       0.903  13.639  18.433  0.00  0.00    +0.000 C 
ENDBRANCH  26  27
ENDBRANCH   5  26
TORSDOF 3
ENDMDL
MODEL 8
REMARK VINA RESULT:      -7.8      4.315      9.597
REMARK  Name = 
REMARK  8 active torsions:
REMARK  status: ('A' for Active; 'I' for Inactive)
REMARK    1  A    between atoms: C_1  and  C_2
REMARK    2  A    between atoms: N_4  and  C_5
REMARK    3  A    between atoms: C_9  and  C_10
REMARK    4  A    between atoms: C_10  and  C_11
REMARK    5  A    between atoms: C_11  and  C_12
REMARK    6  A    between atoms: C_11  and  C_13
REMARK    7  A    between atoms: C_25  and  C_26
REMARK    8  A    between atoms: C_25  and  C_27
REMARK                            x       y       z     vdW  Elec       q    Type
REMARK                         _______ _______ _______ _____ _____    ______ ____
ROOT
ATOM      1  C   UNL     1      -2.005  12.559  22.120  0.00  0.00    +0.000 A 
ATOM      2  C   UNL     1      -1.246  11.630  22.816  0.00  0.00    +0.000 A 
ATOM      3  C   UNL     1      -0.513  10.652  22.135  0.00  0.00    +0.000 A 
ATOM      4  C   UNL     1      -0.474  10.635  20.716  0.00  0.00    +0.000 A 
ATOM      5  C   UNL     1      -1.293  11.543  19.993  0.00  0.00    +0.000 A 
ATOM      6  C   UNL     1      -2.056  12.487  20.724  0.00  0.00    +0.000 A 
ATOM      7  C   UNL     1       0.476   9.660  20.077  0.00  0.00    +0.000 C 
ATOM      8  O   UNL     1       0.909   9.782  18.937  0.00  0.00    +0.000 OA
ATOM      9  N   UNL     1       0.932   8.614  20.867  0.00  0.00    +0.000 N 
ATOM     10  C   UNL     1       1.284   8.921  22.231  0.00  0.00    +0.000 C 
ATOM     11  C   UNL     1       0.118   9.545  22.962  0.00  0.00    +0.000 C 
ATOM     12  H   UNL     1       1.568   8.008  20.365  0.00  0.00    +0.000 HD
ENDROOT
BRANCH   1  16
ATOM     13  C   UNL     1      -2.836  16.412  25.224  0.00  0.00    +0.000 C 
ATOM     14  C   UNL     1      -3.056  15.324  24.236  0.00  0.00    +0.000 A 
ATOM     15  C   UNL     1      -2.125  14.419  23.771  0.00  0.00    +0.000 A 
ATOM     16  N   UNL     1      -2.713  13.566  22.844  0.00  0.00    +0.000 N 
ATOM     17  C   UNL     1      -4.056  13.881  22.798  0.00  0.00    +0.000 A 
ATOM     18  C   UNL     1      -4.281  14.984  23.613  0.00  0.00    +0.000 A 
ATOM     19  C   UNL     1      -5.615  15.546  23.787  0.00  0.00    +0.000 C 
ATOM     20  O   UNL     1      -5.848  16.487  24.545  0.00  0.00    +0.000 OA
ATOM     21  C   UNL     1      -6.704  14.931  22.922  0.00  0.00    +0.000 C 
ATOM     22  C   UNL     1      -6.521  13.401  22.754  0.00  0.00    +0.000 C 
ATOM     23  C   UNL     1      -6.650  12.692  24.122  0.00  0.00    +0.000 C 
ATOM     24  C   UNL     1      -7.633  12.865  21.839  0.00  0.00    +0.000 C 
ATOM     25  C   UNL     1      -5.137  13.103  22.107  0.00  0.00    +0.000 C 
ENDBRANCH   1  16
BRANCH   5  26
ATOM     26  C   UNL     1      -1.497  11.540  18.469  0.00  0.00    +0.000 C 
BRANCH  26  27
ATOM     27  C   UNL     1      -2.603  10.581  17.957  0.00  0.00    +0.000 C 
ATOM     28  C   UNL     1      -3.941  11.302  17.832  0.00  0.00    +0.000 C 
ATOM     29  C   UNL     1      -2.260   9.911  16.615  0.00  0.00    +0.000 C 
ENDBRANCH  26  27
ENDBRANCH   5  26
TORSDOF 3
ENDMDL
MODEL 9
REMARK VINA RESULT:      -7.8      1.871      3.437
REMARK  Name = 
REMARK  8 active torsions:
REMARK  status: ('A' for Active; 'I' for Inactive)
REMARK    1  A    between atoms: C_1  and  C_2
REMARK    2  A    between atoms: N_4  and  C_5
REMARK    3  A    between atoms: C_9  and  C_10
REMARK    4  A    between atoms: C_10  and  C_11
REMARK    5  A    between atoms: C_11  and  C_12
REMARK    6  A    between atoms: C_11  and  C_13
REMARK    7  A    between atoms: C_25  and  C_26
REMARK    8  A    between atoms: C_25  and  C_27
REMARK                            x       y       z     vdW  Elec       q    Type
REMARK                         _______ _______ _______ _____ _____    ______ ____
ROOT
ATOM      1  C   UNL     1       1.992   7.394  18.895  0.00  0.00    +0.000 A 
ATOM      2  C   UNL     1       2.006   7.516  20.276  0.00  0.00    +0.000 A 
ATOM      3  C   UNL     1       1.348   8.578  20.906  0.00  0.00    +0.000 A 
ATOM      4  C   UNL     1       0.593   9.512  20.149  0.00  0.00    +0.000 A 
ATOM      5  C   UNL     1       0.621   9.432  18.731  0.00  0.00    +0.000 A 
ATOM      6  C   UNL     1       1.337   8.368  18.132  0.00  0.00    +0.000 A 
ATOM      7  C   UNL     1      -0.219  10.513  20.924  0.00  0.00    +0.000 C 
ATOM      8  O   UNL     1      -1.189  11.103  20.464  0.00  0.00    +0.000 OA
ATOM      9  N   UNL     1       0.122  10.705  22.256  0.00  0.00    +0.000 N 
ATOM     10  C   UNL     1       0.448   9.533  23.030  0.00  0.00    +0.000 C 
ATOM     11  C   UNL     1       1.584   8.765  22.394  0.00  0.00    +0.000 C 
ATOM     12  H   UNL     1      -0.474  11.388  22.706  0.00  0.00    +0.000 HD
ENDROOT
BRANCH   1  16
ATOM     13  C   UNL     1       2.697   2.754  17.123  0.00  0.00    +0.000 C 
ATOM     14  C   UNL     1       2.925   4.179  17.472  0.00  0.00    +0.000 A 
ATOM     15  C   UNL     1       2.080   5.012  18.176  0.00  0.00    +0.000 A 
ATOM     16  N   UNL     1       2.642   6.278  18.285  0.00  0.00    +0.000 N 
ATOM     17  C   UNL     1       3.901   6.213  17.722  0.00  0.00    +0.000 A 
ATOM     18  C   UNL     1       4.079   4.946  17.180  0.00  0.00    +0.000 A 
ATOM     19  C   UNL     1       5.325   4.563  16.527  0.00  0.00    +0.000 C 
ATOM     20  O   UNL     1       5.527   3.431  16.088  0.00  0.00    +0.000 OA
ATOM     21  C   UNL     1       6.351   5.674  16.366  0.00  0.00    +0.000 C 
ATOM     22  C   UNL     1       6.375   6.626  17.590  0.00  0.00    +0.000 C 
ATOM     23  C   UNL     1       6.813   5.859  18.859  0.00  0.00    +0.000 C 
ATOM     24  C   UNL     1       7.404   7.738  17.333  0.00  0.00    +0.000 C 
ATOM     25  C   UNL     1       4.969   7.265  17.789  0.00  0.00    +0.000 C 
ENDBRANCH   1  16
BRANCH   5  26
ATOM     26  C   UNL     1       0.003  10.461  17.768  0.00  0.00    +0.000 C 
BRANCH  26  27
ATOM     27  C   UNL     1      -1.531  10.339  17.576  0.00  0.00    +0.000 C 
ATOM     28  C   UNL     1      -2.184  11.714  17.478  0.00  0.00    +0.000 C 
ATOM     29  C   UNL     1      -1.930   9.500  16.349  0.00  0.00    +0.000 C 
ENDBRANCH  26  27
ENDBRANCH   5  26
TORSDOF 3
ENDMDL
