MODEL 1
REMARK VINA RESULT:      -7.0      0.000      0.000
REMARK  Name = 
REMARK  5 active torsions:
REMARK  status: ('A' for Active; 'I' for Inactive)
REMARK    1  A    between atoms: C_2  and  O_3
REMARK    2  A    between atoms: C_2  and  C_4
REMARK    3  A    between atoms: C_7  and  C_8
REMARK    4  A    between atoms: N_9  and  O_10
REMARK    5  A    between atoms: O_10  and  C_11
REMARK                            x       y       z     vdW  Elec       q    Type
REMARK                         _______ _______ _______ _____ _____    ______ ____
ROOT
ATOM      1  C   UNL     1       2.537   5.665  18.938  0.00  0.00    +0.000 C 
ATOM      2  N   UNL     1       2.631   6.705  19.700  0.00  0.00    +0.000 NA
ENDROOT
BRANCH   1   6
ATOM      3  C   UNL     1       5.502   4.935  15.962  0.00  0.00    +0.000 A 
ATOM      4  C   UNL     1       4.769   3.865  16.487  0.00  0.00    +0.000 A 
ATOM      5  C   UNL     1       3.791   4.096  17.457  0.00  0.00    +0.000 A 
ATOM      6  C   UNL     1       3.534   5.401  17.886  0.00  0.00    +0.000 A 
ATOM      7  C   UNL     1       4.241   6.479  17.342  0.00  0.00    +0.000 A 
ATOM      8  C   UNL     1       5.227   6.245  16.378  0.00  0.00    +0.000 A 
BRANCH   3  10
ATOM      9  O   UNL     1       7.495   5.370  14.741  0.00  0.00    +0.000 OA
ATOM     10  C   UNL     1       6.539   4.643  14.940  0.00  0.00    +0.000 C 
BRANCH  10  11
ATOM     11  O   UNL     1       6.294   3.523  14.228  0.00  0.00    +0.000 OA
ATOM     12  H   UNL     1       6.950   3.318  13.539  0.00  0.00    +0.000 HD
ENDBRANCH  10  11
ENDBRANCH   3  10
ENDBRANCH   1   6
BRANCH   2  13
ATOM     13  O   UNL     1       1.532   6.748  20.568  0.00  0.00    +0.000 OA
BRANCH  13  14
ATOM     14  C   UNL     1       1.094   8.047  20.712  0.00  0.00    +0.000 A 
ATOM     15  C   UNL     1       1.410   8.925  19.675  0.00  0.00    +0.000 A 
ATOM     16  C   UNL     1       1.013  10.259  19.754  0.00  0.00    +0.000 A 
ATOM     17 CL   UNL     1       1.423  11.348  18.484  0.00  0.00    +0.000 Cl
ATOM     18  C   UNL     1       0.297  10.725  20.853  0.00  0.00    +0.000 A 
ATOM     19  C   UNL     1      -0.028   9.839  21.876  0.00  0.00    +0.000 A 
ATOM     20 CL   UNL     1      -0.917  10.400  23.241  0.00  0.00    +0.000 Cl
ATOM     21  C   UNL     1       0.361   8.503  21.811  0.00  0.00    +0.000 A 
ENDBRANCH  13  14
ENDBRANCH   2  13
TORSDOF 5
ENDMDL
MODEL 2
REMARK VINA RESULT:      -7.0      0.225      2.294
REMARK  Name = 
REMARK  5 active torsions:
REMARK  status: ('A' for Active; 'I' for Inactive)
REMARK    1  A    between atoms: C_2  and  O_3
REMARK    2  A    between atoms: C_2  and  C_4
REMARK    3  A    between atoms: C_7  and  C_8
REMARK    4  A    between atoms: N_9  and  O_10
REMARK    5  A    between atoms: O_10  and  C_11
REMARK                            x       y       z     vdW  Elec       q    Type
REMARK                         _______ _______ _______ _____ _____    ______ ____
ROOT
ATOM      1  C   UNL     1       2.673   5.789  18.814  0.00  0.00    +0.000 C 
ATOM      2  N   UNL     1       2.757   6.839  19.564  0.00  0.00    +0.000 NA
ENDROOT
BRANCH   1   6
ATOM      3  C   UNL     1       5.555   4.925  15.792  0.00  0.00    +0.000 A 
ATOM      4  C   UNL     1       5.375   6.244  16.220  0.00  0.00    +0.000 A 
ATOM      5  C   UNL     1       4.438   6.535  17.214  0.00  0.00    +0.000 A 
ATOM      6  C   UNL     1       3.696   5.501  17.793  0.00  0.00    +0.000 A 
ATOM      7  C   UNL     1       3.894   4.176  17.392  0.00  0.00    +0.000 A 
ATOM      8  C   UNL     1       4.826   3.887  16.390  0.00  0.00    +0.000 A 
BRANCH   3  10
ATOM      9  O   UNL     1       7.448   5.442  14.451  0.00  0.00    +0.000 OA
ATOM     10  C   UNL     1       6.554   4.662  14.726  0.00  0.00    +0.000 C 
BRANCH  10  11
ATOM     11  O   UNL     1       6.348   3.504  14.066  0.00  0.00    +0.000 OA
ATOM     12  H   UNL     1       7.151   3.073  13.723  0.00  0.00    +0.000 HD
ENDBRANCH  10  11
ENDBRANCH   3  10
ENDBRANCH   1   6
BRANCH   2  13
ATOM     13  O   UNL     1       1.636   6.904  20.401  0.00  0.00    +0.000 OA
BRANCH  13  14
ATOM     14  C   UNL     1       1.204   8.208  20.511  0.00  0.00    +0.000 A 
ATOM     15  C   UNL     1       0.514   8.535  21.678  0.00  0.00    +0.000 A 
ATOM     16  C   UNL     1       0.033   9.831  21.856  0.00  0.00    +0.000 A 
ATOM     17 CL   UNL     1      -0.838  10.229  23.288  0.00  0.00    +0.000 Cl
ATOM     18  C   UNL     1       0.241  10.808  20.886  0.00  0.00    +0.000 A 
ATOM     19  C   UNL     1       0.943  10.478  19.731  0.00  0.00    +0.000 A 
ATOM     20 CL   UNL     1       1.211  11.675  18.523  0.00  0.00    +0.000 Cl
ATOM     21  C   UNL     1       1.431   9.187  19.539  0.00  0.00    +0.000 A 
ENDBRANCH  13  14
ENDBRANCH   2  13
TORSDOF 5
ENDMDL
MODEL 3
REMARK VINA RESULT:      -7.0      0.211      1.101
REMARK  Name = 
REMARK  5 active torsions:
REMARK  status: ('A' for Active; 'I' for Inactive)
REMARK    1  A    between atoms: C_2  and  O_3
REMARK    2  A    between atoms: C_2  and  C_4
REMARK    3  A    between atoms: C_7  and  C_8
REMARK    4  A    between atoms: N_9  and  O_10
REMARK    5  A    between atoms: O_10  and  C_11
REMARK                            x       y       z     vdW  Elec       q    Type
REMARK                         _______ _______ _______ _____ _____    ______ ____
ROOT
ATOM      1  C   UNL     1       2.804   5.638  18.915  0.00  0.00    +0.000 C 
ATOM      2  N   UNL     1       2.747   6.776  19.525  0.00  0.00    +0.000 NA
ENDROOT
BRANCH   1   6
ATOM      3  C   UNL     1       5.637   4.865  15.823  0.00  0.00    +0.000 A 
ATOM      4  C   UNL     1       5.329   6.186  16.166  0.00  0.00    +0.000 A 
ATOM      5  C   UNL     1       4.407   6.448  17.183  0.00  0.00    +0.000 A 
ATOM      6  C   UNL     1       3.809   5.387  17.868  0.00  0.00    +0.000 A 
ATOM      7  C   UNL     1       4.138   4.064  17.553  0.00  0.00    +0.000 A 
ATOM      8  C   UNL     1       5.053   3.803  16.528  0.00  0.00    +0.000 A 
BRANCH   3  10
ATOM      9  O   UNL     1       7.563   5.368  14.525  0.00  0.00    +0.000 OA
ATOM     10  C   UNL     1       6.615   4.633  14.731  0.00  0.00    +0.000 C 
BRANCH  10  11
ATOM     11  O   UNL     1       6.325   3.560  13.966  0.00  0.00    +0.000 OA
ATOM     12  H   UNL     1       6.815   3.504  13.126  0.00  0.00    +0.000 HD
ENDBRANCH  10  11
ENDBRANCH   3  10
ENDBRANCH   1   6
BRANCH   2  13
ATOM     13  O   UNL     1       1.673   6.770  20.425  0.00  0.00    +0.000 OA
BRANCH  13  14
ATOM     14  C   UNL     1       1.207   8.054  20.612  0.00  0.00    +0.000 A 
ATOM     15  C   UNL     1       1.493   8.970  19.600  0.00  0.00    +0.000 A 
ATOM     16  C   UNL     1       1.066  10.291  19.723  0.00  0.00    +0.000 A 
ATOM     17 CL   UNL     1       1.439  11.427  18.483  0.00  0.00    +0.000 Cl
ATOM     18  C   UNL     1       0.349  10.707  20.842  0.00  0.00    +0.000 A 
ATOM     19  C   UNL     1       0.055   9.784  21.840  0.00  0.00    +0.000 A 
ATOM     20 CL   UNL     1      -0.834  10.282  23.229  0.00  0.00    +0.000 Cl
ATOM     21  C   UNL     1       0.473   8.459  21.730  0.00  0.00    +0.000 A 
ENDBRANCH  13  14
ENDBRANCH   2  13
TORSDOF 5
ENDMDL
MODEL 4
REMARK VINA RESULT:      -6.9      3.942      7.820
REMARK  Name = 
REMARK  5 active torsions:
REMARK  status: ('A' for Active; 'I' for Inactive)
REMARK    1  A    between atoms: C_2  and  O_3
REMARK    2  A    between atoms: C_2  and  C_4
REMARK    3  A    between atoms: C_7  and  C_8
REMARK    4  A    between atoms: N_9  and  O_10
REMARK    5  A    between atoms: O_10  and  C_11
REMARK                            x       y       z     vdW  Elec       q    Type
REMARK                         _______ _______ _______ _____ _____    ______ ____
ROOT
ATOM      1  C   UNL     1       2.845   6.251  19.262  0.00  0.00    +0.000 C 
ATOM      2  N   UNL     1       2.624   5.368  18.344  0.00  0.00    +0.000 NA
ENDROOT
BRANCH   1   6
ATOM      3  C   UNL     1       0.881  10.031  19.070  0.00  0.00    +0.000 A 
ATOM      4  C   UNL     1       0.902   9.321  20.276  0.00  0.00    +0.000 A 
ATOM      5  C   UNL     1       1.549   8.086  20.349  0.00  0.00    +0.000 A 
ATOM      6  C   UNL     1       2.192   7.571  19.220  0.00  0.00    +0.000 A 
ATOM      7  C   UNL     1       2.203   8.290  18.020  0.00  0.00    +0.000 A 
ATOM      8  C   UNL     1       1.547   9.522  17.945  0.00  0.00    +0.000 A 
BRANCH   3  10
ATOM      9  O   UNL     1      -0.823  11.565  19.695  0.00  0.00    +0.000 OA
ATOM     10  C   UNL     1       0.174  11.336  19.035  0.00  0.00    +0.000 C 
BRANCH  10  11
ATOM     11  O   UNL     1       0.715  12.219  18.171  0.00  0.00    +0.000 OA
ATOM     12  H   UNL     1       1.224  12.942  18.580  0.00  0.00    +0.000 HD
ENDBRANCH  10  11
ENDBRANCH   3  10
ENDBRANCH   1   6
BRANCH   2  13
ATOM     13  O   UNL     1       3.408   4.233  18.590  0.00  0.00    +0.000 OA
BRANCH  13  14
ATOM     14  C   UNL     1       4.626   4.356  17.959  0.00  0.00    +0.000 A 
ATOM     15  C   UNL     1       5.686   4.810  18.742  0.00  0.00    +0.000 A 
ATOM     16  C   UNL     1       6.948   4.973  18.172  0.00  0.00    +0.000 A 
ATOM     17 CL   UNL     1       8.252   5.555  19.135  0.00  0.00    +0.000 Cl
ATOM     18  C   UNL     1       7.166   4.679  16.828  0.00  0.00    +0.000 A 
ATOM     19  C   UNL     1       6.107   4.211  16.057  0.00  0.00    +0.000 A 
ATOM     20 CL   UNL     1       6.361   3.840  14.394  0.00  0.00    +0.000 Cl
ATOM     21  C   UNL     1       4.840   4.042  16.613  0.00  0.00    +0.000 A 
ENDBRANCH  13  14
ENDBRANCH   2  13
TORSDOF 5
ENDMDL
MODEL 5
REMARK VINA RESULT:      -6.9      0.564      2.080
REMARK  Name = 
REMARK  5 active torsions:
REMARK  status: ('A' for Active; 'I' for Inactive)
REMARK    1  A    between atoms: C_2  and  O_3
REMARK    2  A    between atoms: C_2  and  C_4
REMARK    3  A    between atoms: C_7  and  C_8
REMARK    4  A    between atoms: N_9  and  O_10
REMARK    5  A    between atoms: O_10  and  C_11
REMARK                            x       y       z     vdW  Elec       q    Type
REMARK                         _______ _______ _______ _____ _____    ______ ____
ROOT
ATOM      1  C   UNL     1       3.435   6.098  19.191  0.00  0.00    +0.000 C 
ATOM      2  N   UNL     1       2.434   6.909  19.089  0.00  0.00    +0.000 NA
ENDROOT
BRANCH   1   6
ATOM      3  C   UNL     1       5.820   5.084  15.804  0.00  0.00    +0.000 A 
ATOM      4  C   UNL     1       5.553   4.115  16.778  0.00  0.00    +0.000 A 
ATOM      5  C   UNL     1       4.767   4.437  17.887  0.00  0.00    +0.000 A 
ATOM      6  C   UNL     1       4.232   5.724  18.010  0.00  0.00    +0.000 A 
ATOM      7  C   UNL     1       4.469   6.687  17.023  0.00  0.00    +0.000 A 
ATOM      8  C   UNL     1       5.264   6.366  15.918  0.00  0.00    +0.000 A 
BRANCH   3  10
ATOM      9  O   UNL     1       7.593   5.386  14.251  0.00  0.00    +0.000 OA
ATOM     10  C   UNL     1       6.668   4.701  14.647  0.00  0.00    +0.000 C 
BRANCH  10  11
ATOM     11  O   UNL     1       6.286   3.550  14.056  0.00  0.00    +0.000 OA
ATOM     12  H   UNL     1       6.512   2.738  14.543  0.00  0.00    +0.000 HD
ENDBRANCH  10  11
ENDBRANCH   3  10
ENDBRANCH   1   6
BRANCH   2  13
ATOM     13  O   UNL     1       1.818   7.050  20.339  0.00  0.00    +0.000 OA
BRANCH  13  14
ATOM     14  C   UNL     1       1.294   8.318  20.467  0.00  0.00    +0.000 A 
ATOM     15  C   UNL     1       0.605   8.586  21.650  0.00  0.00    +0.000 A 
ATOM     16  C   UNL     1       0.034   9.842  21.848  0.00  0.00    +0.000 A 
ATOM     17 CL   UNL     1      -0.835  10.166  23.299  0.00  0.00    +0.000 Cl
ATOM     18  C   UNL     1       0.150  10.838  20.881  0.00  0.00    +0.000 A 
ATOM     19  C   UNL     1       0.852  10.567  19.710  0.00  0.00    +0.000 A 
ATOM     20 CL   UNL     1       1.007  11.789  18.507  0.00  0.00    +0.000 Cl
ATOM     21  C   UNL     1       1.429   9.317  19.499  0.00  0.00    +0.000 A 
ENDBRANCH  13  14
ENDBRANCH   2  13
TORSDOF 5
ENDMDL
MODEL 6
REMARK VINA RESULT:      -6.9      3.965      7.754
REMARK  Name = 
REMARK  5 active torsions:
REMARK  status: ('A' for Active; 'I' for Inactive)
REMARK    1  A    between atoms: C_2  and  O_3
REMARK    2  A    between atoms: C_2  and  C_4
REMARK    3  A    between atoms: C_7  and  C_8
REMARK    4  A    between atoms: N_9  and  O_10
REMARK    5  A    between atoms: O_10  and  C_11
REMARK                            x       y       z     vdW  Elec       q    Type
REMARK                         _______ _______ _______ _____ _____    ______ ____
ROOT
ATOM      1  C   UNL     1       2.912   6.203  19.311  0.00  0.00    +0.000 C 
ATOM      2  N   UNL     1       2.581   5.202  18.563  0.00  0.00    +0.000 NA
ENDROOT
BRANCH   1   6
ATOM      3  C   UNL     1       0.961   9.987  19.068  0.00  0.00    +0.000 A 
ATOM      4  C   UNL     1       1.576   9.451  17.931  0.00  0.00    +0.000 A 
ATOM      5  C   UNL     1       2.212   8.209  18.000  0.00  0.00    +0.000 A 
ATOM      6  C   UNL     1       2.213   7.496  19.203  0.00  0.00    +0.000 A 
ATOM      7  C   UNL     1       1.572   8.011  20.334  0.00  0.00    +0.000 A 
ATOM      8  C   UNL     1       0.944   9.259  20.266  0.00  0.00    +0.000 A 
BRANCH   3  10
ATOM      9  O   UNL     1      -0.760  11.574  19.480  0.00  0.00    +0.000 OA
ATOM     10  C   UNL     1       0.306  11.314  18.951  0.00  0.00    +0.000 C 
BRANCH  10  11
ATOM     11  O   UNL     1       0.982  12.183  18.171  0.00  0.00    +0.000 OA
ATOM     12  H   UNL     1       1.898  11.929  17.964  0.00  0.00    +0.000 HD
ENDBRANCH  10  11
ENDBRANCH   3  10
ENDBRANCH   1   6
BRANCH   2  13
ATOM     13  O   UNL     1       3.434   4.122  18.824  0.00  0.00    +0.000 OA
BRANCH  13  14
ATOM     14  C   UNL     1       4.622   4.283  18.144  0.00  0.00    +0.000 A 
ATOM     15  C   UNL     1       5.696   4.780  18.881  0.00  0.00    +0.000 A 
ATOM     16  C   UNL     1       6.927   4.982  18.259  0.00  0.00    +0.000 A 
ATOM     17 CL   UNL     1       8.247   5.617  19.166  0.00  0.00    +0.000 Cl
ATOM     18  C   UNL     1       7.101   4.687  16.910  0.00  0.00    +0.000 A 
ATOM     19  C   UNL     1       6.028   4.178  16.184  0.00  0.00    +0.000 A 
ATOM     20 CL   UNL     1       6.228   3.804  14.515  0.00  0.00    +0.000 Cl
ATOM     21  C   UNL     1       4.792   3.968  16.792  0.00  0.00    +0.000 A 
ENDBRANCH  13  14
ENDBRANCH   2  13
TORSDOF 5
ENDMDL
MODEL 7
REMARK VINA RESULT:      -6.8      3.871      7.715
REMARK  Name = 
REMARK  5 active torsions:
REMARK  status: ('A' for Active; 'I' for Inactive)
REMARK    1  A    between atoms: C_2  and  O_3
REMARK    2  A    between atoms: C_2  and  C_4
REMARK    3  A    between atoms: C_7  and  C_8
REMARK    4  A    between atoms: N_9  and  O_10
REMARK    5  A    between atoms: O_10  and  C_11
REMARK                            x       y       z     vdW  Elec       q    Type
REMARK                         _______ _______ _______ _____ _____    ______ ____
ROOT
ATOM      1  C   UNL     1       2.684   6.169  18.296  0.00  0.00    +0.000 C 
ATOM      2  N   UNL     1       2.861   5.156  19.080  0.00  0.00    +0.000 NA
ENDROOT
BRANCH   1   6
ATOM      3  C   UNL     1       1.056   9.841  19.728  0.00  0.00    +0.000 A 
ATOM      4  C   UNL     1       1.302   8.796  20.626  0.00  0.00    +0.000 A 
ATOM      5  C   UNL     1       1.842   7.592  20.166  0.00  0.00    +0.000 A 
ATOM      6  C   UNL     1       2.153   7.443  18.811  0.00  0.00    +0.000 A 
ATOM      7  C   UNL     1       1.939   8.496  17.914  0.00  0.00    +0.000 A 
ATOM      8  C   UNL     1       1.390   9.697  18.374  0.00  0.00    +0.000 A 
BRANCH   3  10
ATOM      9  O   UNL     1      -0.234  11.833  19.591  0.00  0.00    +0.000 OA
ATOM     10  C   UNL     1       0.472  11.099  20.259  0.00  0.00    +0.000 C 
BRANCH  10  11
ATOM     11  O   UNL     1       0.837  11.369  21.529  0.00  0.00    +0.000 OA
ATOM     12  H   UNL     1       0.928  12.315  21.742  0.00  0.00    +0.000 HD
ENDBRANCH  10  11
ENDBRANCH   3  10
ENDBRANCH   1   6
BRANCH   2  13
ATOM     13  O   UNL     1       3.317   4.063  18.332  0.00  0.00    +0.000 OA
BRANCH  13  14
ATOM     14  C   UNL     1       4.597   4.301  17.881  0.00  0.00    +0.000 A 
ATOM     15  C   UNL     1       4.844   4.012  16.539  0.00  0.00    +0.000 A 
ATOM     16  C   UNL     1       6.119   4.214  16.012  0.00  0.00    +0.000 A 
ATOM     17 CL   UNL     1       6.429   3.836  14.360  0.00  0.00    +0.000 Cl
ATOM     18  C   UNL     1       7.149   4.709  16.807  0.00  0.00    +0.000 A 
ATOM     19  C   UNL     1       6.891   5.009  18.141  0.00  0.00    +0.000 A 
ATOM     20 CL   UNL     1       8.153   5.625  19.137  0.00  0.00    +0.000 Cl
ATOM     21  C   UNL     1       5.621   4.814  18.682  0.00  0.00    +0.000 A 
ENDBRANCH  13  14
ENDBRANCH   2  13
TORSDOF 5
ENDMDL
MODEL 8
REMARK VINA RESULT:      -6.7      3.786      7.830
REMARK  Name = 
REMARK  5 active torsions:
REMARK  status: ('A' for Active; 'I' for Inactive)
REMARK    1  A    between atoms: C_2  and  O_3
REMARK    2  A    between atoms: C_2  and  C_4
REMARK    3  A    between atoms: C_7  and  C_8
REMARK    4  A    between atoms: N_9  and  O_10
REMARK    5  A    between atoms: O_10  and  C_11
REMARK                            x       y       z     vdW  Elec       q    Type
REMARK                         _______ _______ _______ _____ _____    ______ ____
ROOT
ATOM      1  C   UNL     1       2.692   6.239  18.827  0.00  0.00    +0.000 C 
ATOM      2  N   UNL     1       3.283   5.477  19.689  0.00  0.00    +0.000 NA
ENDROOT
BRANCH   1   6
ATOM      3  C   UNL     1       0.891   9.942  19.936  0.00  0.00    +0.000 A 
ATOM      4  C   UNL     1       1.069   8.943  20.899  0.00  0.00    +0.000 A 
ATOM      5  C   UNL     1       1.664   7.729  20.546  0.00  0.00    +0.000 A 
ATOM      6  C   UNL     1       2.099   7.526  19.233  0.00  0.00    +0.000 A 
ATOM      7  C   UNL     1       1.953   8.533  18.273  0.00  0.00    +0.000 A 
ATOM      8  C   UNL     1       1.348   9.743  18.626  0.00  0.00    +0.000 A 
BRANCH   3  10
ATOM      9  O   UNL     1      -0.586  11.786  19.672  0.00  0.00    +0.000 OA
ATOM     10  C   UNL     1       0.245  11.212  20.353  0.00  0.00    +0.000 C 
BRANCH  10  11
ATOM     11  O   UNL     1       0.699  11.687  21.531  0.00  0.00    +0.000 OA
ATOM     12  H   UNL     1       0.179  11.426  22.312  0.00  0.00    +0.000 HD
ENDBRANCH  10  11
ENDBRANCH   3  10
ENDBRANCH   1   6
BRANCH   2  13
ATOM     13  O   UNL     1       3.702   4.299  19.057  0.00  0.00    +0.000 OA
BRANCH  13  14
ATOM     14  C   UNL     1       4.795   4.555  18.258  0.00  0.00    +0.000 A 
ATOM     15  C   UNL     1       5.798   5.346  18.817  0.00  0.00    +0.000 A 
ATOM     16  C   UNL     1       6.930   5.660  18.065  0.00  0.00    +0.000 A 
ATOM     17 CL   UNL     1       8.159   6.655  18.748  0.00  0.00    +0.000 Cl
ATOM     18  C   UNL     1       7.076   5.186  16.764  0.00  0.00    +0.000 A 
ATOM     19  C   UNL     1       6.077   4.384  16.219  0.00  0.00    +0.000 A 
ATOM     20 CL   UNL     1       6.244   3.787  14.613  0.00  0.00    +0.000 Cl
ATOM     21  C   UNL     1       4.941   4.061  16.959  0.00  0.00    +0.000 A 
ENDBRANCH  13  14
ENDBRANCH   2  13
TORSDOF 5
ENDMDL
MODEL 9
REMARK VINA RESULT:      -6.7      3.925      7.704
REMARK  Name = 
REMARK  5 active torsions:
REMARK  status: ('A' for Active; 'I' for Inactive)
REMARK    1  A    between atoms: C_2  and  O_3
REMARK    2  A    between atoms: C_2  and  C_4
REMARK    3  A    between atoms: C_7  and  C_8
REMARK    4  A    between atoms: N_9  and  O_10
REMARK    5  A    between atoms: O_10  and  C_11
REMARK                            x       y       z     vdW  Elec       q    Type
REMARK                         _______ _______ _______ _____ _____    ______ ____
ROOT
ATOM      1  C   UNL     1       2.708   6.270  19.316  0.00  0.00    +0.000 C 
ATOM      2  N   UNL     1       2.545   5.432  18.345  0.00  0.00    +0.000 NA
ENDROOT
BRANCH   1   6
ATOM      3  C   UNL     1       0.928  10.144  19.311  0.00  0.00    +0.000 A 
ATOM      4  C   UNL     1       1.466   9.628  18.127  0.00  0.00    +0.000 A 
ATOM      5  C   UNL     1       2.044   8.357  18.118  0.00  0.00    +0.000 A 
ATOM      6  C   UNL     1       2.066   7.596  19.291  0.00  0.00    +0.000 A 
ATOM      7  C   UNL     1       1.501   8.093  20.470  0.00  0.00    +0.000 A 
ATOM      8  C   UNL     1       0.930   9.369  20.479  0.00  0.00    +0.000 A 
BRANCH   3  10
ATOM      9  O   UNL     1      -0.512  11.835  18.462  0.00  0.00    +0.000 OA
ATOM     10  C   UNL     1       0.331  11.503  19.277  0.00  0.00    +0.000 C 
BRANCH  10  11
ATOM     11  O   UNL     1       0.843  12.341  20.201  0.00  0.00    +0.000 OA
ATOM     12  H   UNL     1       0.614  12.131  21.124  0.00  0.00    +0.000 HD
ENDBRANCH  10  11
ENDBRANCH   3  10
ENDBRANCH   1   6
BRANCH   2  13
ATOM     13  O   UNL     1       3.304   4.280  18.590  0.00  0.00    +0.000 OA
BRANCH  13  14
ATOM     14  C   UNL     1       4.578   4.440  18.090  0.00  0.00    +0.000 A 
ATOM     15  C   UNL     1       4.762   4.111  16.747  0.00  0.00    +0.000 A 
ATOM     16  C   UNL     1       6.026   4.234  16.172  0.00  0.00    +0.000 A 
ATOM     17 CL   UNL     1       6.256   3.806  14.519  0.00  0.00    +0.000 Cl
ATOM     18  C   UNL     1       7.108   4.689  16.920  0.00  0.00    +0.000 A 
ATOM     19  C   UNL     1       6.914   5.029  18.255  0.00  0.00    +0.000 A 
ATOM     20 CL   UNL     1       8.242   5.597  19.194  0.00  0.00    +0.000 Cl
ATOM     21  C   UNL     1       5.656   4.914  18.844  0.00  0.00    +0.000 A 
ENDBRANCH  13  14
ENDBRANCH   2  13
TORSDOF 5
ENDMDL
