MODEL 1
REMARK VINA RESULT:      -8.7      0.000      0.000
REMARK  Name = 
REMARK  2 active torsions:
REMARK  status: ('A' for Active; 'I' for Inactive)
REMARK    1  A    between atoms: C_5  and  C_6
REMARK    2  A    between atoms: C_8  and  C_9
REMARK                            x       y       z     vdW  Elec       q    Type
REMARK                         _______ _______ _______ _____ _____    ______ ____
ROOT
ATOM      1  C   UNL     1       6.530   4.398  15.852  0.00  0.00    +0.000 A 
ATOM      2  C   UNL     1       5.324   4.125  16.471  0.00  0.00    +0.000 A 
ATOM      3  C   UNL     1       5.278   4.175  17.853  0.00  0.00    +0.000 A 
ATOM      4  N   UNL     1       6.366   4.499  18.581  0.00  0.00    +0.000 NA
ATOM      5  C   UNL     1       7.493   4.737  17.898  0.00  0.00    +0.000 A 
ATOM      6  N   UNL     1       7.635   4.695  16.565  0.00  0.00    +0.000 NA
ENDROOT
BRANCH   3   7
ATOM      7  C   UNL     1       4.050   3.860  18.612  0.00  0.00    +0.000 A 
ATOM      8  C   UNL     1       2.768   4.131  18.067  0.00  0.00    +0.000 A 
ATOM      9  C   UNL     1       1.589   3.849  18.770  0.00  0.00    +0.000 A 
ATOM     10  C   UNL     1       1.710   3.300  20.025  0.00  0.00    +0.000 A 
ATOM     11  C   UNL     1       2.938   3.028  20.574  0.00  0.00    +0.000 A 
ATOM     12  C   UNL     1       4.112   3.291  19.901  0.00  0.00    +0.000 A 
ATOM     13  O   UNL     1       2.846   2.495  21.821  0.00  0.00    +0.000 OA
ATOM     14  C   UNL     1       1.417   2.520  22.018  0.00  0.00    +0.000 C 
ATOM     15  O   UNL     1       0.688   2.977  20.861  0.00  0.00    +0.000 OA
ENDBRANCH   3   7
BRANCH   1  20
ATOM     16  C   UNL     1       6.138   3.461  12.192  0.00  0.00    +0.000 A 
ATOM     17  C   UNL     1       7.094   4.300  11.651  0.00  0.00    +0.000 A 
ATOM     18  N   UNL     1       7.830   5.158  12.384  0.00  0.00    +0.000 NA
ATOM     19  C   UNL     1       7.603   5.171  13.723  0.00  0.00    +0.000 A 
ATOM     20  C   UNL     1       6.682   4.359  14.386  0.00  0.00    +0.000 A 
ATOM     21  C   UNL     1       5.930   3.499  13.570  0.00  0.00    +0.000 A 
ENDBRANCH   1  20
TORSDOF 2
ENDMDL
MODEL 2
REMARK VINA RESULT:      -8.5      0.606      1.048
REMARK  Name = 
REMARK  2 active torsions:
REMARK  status: ('A' for Active; 'I' for Inactive)
REMARK    1  A    between atoms: C_5  and  C_6
REMARK    2  A    between atoms: C_8  and  C_9
REMARK                            x       y       z     vdW  Elec       q    Type
REMARK                         _______ _______ _______ _____ _____    ______ ____
ROOT
ATOM      1  C   UNL     1       6.657   4.419  15.848  0.00  0.00    +0.000 A 
ATOM      2  C   UNL     1       5.437   4.163  16.446  0.00  0.00    +0.000 A 
ATOM      3  C   UNL     1       5.372   4.188  17.828  0.00  0.00    +0.000 A 
ATOM      4  N   UNL     1       6.456   4.473  18.577  0.00  0.00    +0.000 NA
ATOM      5  C   UNL     1       7.598   4.697  17.914  0.00  0.00    +0.000 A 
ATOM      6  N   UNL     1       7.759   4.676  16.583  0.00  0.00    +0.000 NA
ENDROOT
BRANCH   3   7
ATOM      7  C   UNL     1       4.126   3.889  18.563  0.00  0.00    +0.000 A 
ATOM      8  C   UNL     1       2.858   4.171  17.992  0.00  0.00    +0.000 A 
ATOM      9  C   UNL     1       1.663   3.903  18.672  0.00  0.00    +0.000 A 
ATOM     10  C   UNL     1       1.754   3.357  19.932  0.00  0.00    +0.000 A 
ATOM     11  C   UNL     1       2.967   3.074  20.506  0.00  0.00    +0.000 A 
ATOM     12  C   UNL     1       4.157   3.324  19.855  0.00  0.00    +0.000 A 
ATOM     13  O   UNL     1       2.846   2.548  21.753  0.00  0.00    +0.000 OA
ATOM     14  C   UNL     1       1.414   2.587  21.922  0.00  0.00    +0.000 C 
ATOM     15  O   UNL     1       0.712   3.047  20.748  0.00  0.00    +0.000 OA
ENDBRANCH   3   7
BRANCH   1  20
ATOM     16  C   UNL     1       7.797   5.263  12.326  0.00  0.00    +0.000 A 
ATOM     17  C   UNL     1       7.025   4.355  11.626  0.00  0.00    +0.000 A 
ATOM     18  N   UNL     1       6.189   3.480  12.217  0.00  0.00    +0.000 NA
ATOM     19  C   UNL     1       6.116   3.521  13.573  0.00  0.00    +0.000 A 
ATOM     20  C   UNL     1       6.829   4.404  14.385  0.00  0.00    +0.000 A 
ATOM     21  C   UNL     1       7.698   5.280  13.716  0.00  0.00    +0.000 A 
ENDBRANCH   1  20
TORSDOF 2
ENDMDL
MODEL 3
REMARK VINA RESULT:      -8.0      4.128      4.752
REMARK  Name = 
REMARK  2 active torsions:
REMARK  status: ('A' for Active; 'I' for Inactive)
REMARK    1  A    between atoms: C_5  and  C_6
REMARK    2  A    between atoms: C_8  and  C_9
REMARK                            x       y       z     vdW  Elec       q    Type
REMARK                         _______ _______ _______ _____ _____    ______ ____
ROOT
ATOM      1  C   UNL     1       4.626   5.253  17.419  0.00  0.00    +0.000 A 
ATOM      2  C   UNL     1       3.892   6.408  17.617  0.00  0.00    +0.000 A 
ATOM      3  C   UNL     1       3.091   6.484  18.742  0.00  0.00    +0.000 A 
ATOM      4  N   UNL     1       3.037   5.476  19.635  0.00  0.00    +0.000 NA
ATOM      5  C   UNL     1       3.772   4.392  19.358  0.00  0.00    +0.000 A 
ATOM      6  N   UNL     1       4.561   4.222  18.287  0.00  0.00    +0.000 NA
ENDROOT
BRANCH   3   7
ATOM      7  C   UNL     1       2.237   7.657  19.022  0.00  0.00    +0.000 A 
ATOM      8  C   UNL     1       1.914   8.584  17.997  0.00  0.00    +0.000 A 
ATOM      9  C   UNL     1       1.113   9.708  18.240  0.00  0.00    +0.000 A 
ATOM     10  C   UNL     1       0.647   9.895  19.521  0.00  0.00    +0.000 A 
ATOM     11  C   UNL     1       0.945   9.013  20.529  0.00  0.00    +0.000 A 
ATOM     12  C   UNL     1       1.727   7.898  20.315  0.00  0.00    +0.000 A 
ATOM     13  O   UNL     1       0.399   9.376  21.720  0.00  0.00    +0.000 OA
ATOM     14  C   UNL     1      -0.229  10.623  21.357  0.00  0.00    +0.000 C 
ATOM     15  O   UNL     1      -0.123  10.930  19.951  0.00  0.00    +0.000 OA
ENDBRANCH   3   7
BRANCH   1  20
ATOM     16  C   UNL     1       6.017   4.088  14.083  0.00  0.00    +0.000 A 
ATOM     17  C   UNL     1       7.240   4.729  14.124  0.00  0.00    +0.000 A 
ATOM     18  N   UNL     1       7.628   5.526  15.138  0.00  0.00    +0.000 NA
ATOM     19  C   UNL     1       6.752   5.682  16.165  0.00  0.00    +0.000 A 
ATOM     20  C   UNL     1       5.500   5.072  16.246  0.00  0.00    +0.000 A 
ATOM     21  C   UNL     1       5.141   4.268  15.153  0.00  0.00    +0.000 A 
ENDBRANCH   1  20
TORSDOF 2
ENDMDL
MODEL 4
REMARK VINA RESULT:      -8.0      1.108      1.109
REMARK  Name = 
REMARK  2 active torsions:
REMARK  status: ('A' for Active; 'I' for Inactive)
REMARK    1  A    between atoms: C_5  and  C_6
REMARK    2  A    between atoms: C_8  and  C_9
REMARK                            x       y       z     vdW  Elec       q    Type
REMARK                         _______ _______ _______ _____ _____    ______ ____
ROOT
ATOM      1  C   UNL     1       6.407   5.169  15.569  0.00  0.00    +0.000 A 
ATOM      2  C   UNL     1       5.327   4.830  16.363  0.00  0.00    +0.000 A 
ATOM      3  C   UNL     1       5.296   5.314  17.659  0.00  0.00    +0.000 A 
ATOM      4  N   UNL     1       6.275   6.109  18.135  0.00  0.00    +0.000 NA
ATOM      5  C   UNL     1       7.287   6.376  17.301  0.00  0.00    +0.000 A 
ATOM      6  N   UNL     1       7.410   5.939  16.039  0.00  0.00    +0.000 NA
ENDROOT
BRANCH   3   7
ATOM      7  C   UNL     1       4.208   4.976  18.599  0.00  0.00    +0.000 A 
ATOM      8  C   UNL     1       3.144   5.885  18.838  0.00  0.00    +0.000 A 
ATOM      9  C   UNL     1       2.104   5.591  19.730  0.00  0.00    +0.000 A 
ATOM     10  C   UNL     1       2.147   4.382  20.385  0.00  0.00    +0.000 A 
ATOM     11  C   UNL     1       3.164   3.486  20.171  0.00  0.00    +0.000 A 
ATOM     12  C   UNL     1       4.196   3.749  19.294  0.00  0.00    +0.000 A 
ATOM     13  O   UNL     1       3.031   2.356  20.914  0.00  0.00    +0.000 OA
ATOM     14  C   UNL     1       1.841   2.670  21.667  0.00  0.00    +0.000 C 
ATOM     15  O   UNL     1       1.245   3.930  21.295  0.00  0.00    +0.000 OA
ENDBRANCH   3   7
BRANCH   1  20
ATOM     16  C   UNL     1       5.871   3.266  12.327  0.00  0.00    +0.000 A 
ATOM     17  C   UNL     1       6.906   3.806  11.587  0.00  0.00    +0.000 A 
ATOM     18  N   UNL     1       7.740   4.754  12.056  0.00  0.00    +0.000 NA
ATOM     19  C   UNL     1       7.532   5.177  13.330  0.00  0.00    +0.000 A 
ATOM     20  C   UNL     1       6.536   4.694  14.180  0.00  0.00    +0.000 A 
ATOM     21  C   UNL     1       5.686   3.721  13.631  0.00  0.00    +0.000 A 
ENDBRANCH   1  20
TORSDOF 2
ENDMDL
MODEL 5
REMARK VINA RESULT:      -7.9      4.189      5.043
REMARK  Name = 
REMARK  2 active torsions:
REMARK  status: ('A' for Active; 'I' for Inactive)
REMARK    1  A    between atoms: C_5  and  C_6
REMARK    2  A    between atoms: C_8  and  C_9
REMARK                            x       y       z     vdW  Elec       q    Type
REMARK                         _______ _______ _______ _____ _____    ______ ____
ROOT
ATOM      1  C   UNL     1       4.544   5.100  17.773  0.00  0.00    +0.000 A 
ATOM      2  C   UNL     1       3.825   6.244  18.069  0.00  0.00    +0.000 A 
ATOM      3  C   UNL     1       3.022   6.232  19.196  0.00  0.00    +0.000 A 
ATOM      4  N   UNL     1       2.954   5.151  19.999  0.00  0.00    +0.000 NA
ATOM      5  C   UNL     1       3.675   4.085  19.629  0.00  0.00    +0.000 A 
ATOM      6  N   UNL     1       4.464   3.999  18.548  0.00  0.00    +0.000 NA
ENDROOT
BRANCH   3   7
ATOM      7  C   UNL     1       2.184   7.387  19.577  0.00  0.00    +0.000 A 
ATOM      8  C   UNL     1       1.561   7.447  20.851  0.00  0.00    +0.000 A 
ATOM      9  C   UNL     1       0.756   8.529  21.232  0.00  0.00    +0.000 A 
ATOM     10  C   UNL     1       0.576   9.543  20.321  0.00  0.00    +0.000 A 
ATOM     11  C   UNL     1       1.167   9.509  19.083  0.00  0.00    +0.000 A 
ATOM     12  C   UNL     1       1.968   8.460  18.686  0.00  0.00    +0.000 A 
ATOM     13  O   UNL     1       0.863  10.598  18.328  0.00  0.00    +0.000 OA
ATOM     14  C   UNL     1      -0.039  11.294  19.214  0.00  0.00    +0.000 C 
ATOM     15  O   UNL     1      -0.181  10.658  20.501  0.00  0.00    +0.000 OA
ENDBRANCH   3   7
BRANCH   1  20
ATOM     16  C   UNL     1       5.988   4.110  14.402  0.00  0.00    +0.000 A 
ATOM     17  C   UNL     1       7.158   4.845  14.445  0.00  0.00    +0.000 A 
ATOM     18  N   UNL     1       7.492   5.651  15.472  0.00  0.00    +0.000 NA
ATOM     19  C   UNL     1       6.617   5.718  16.508  0.00  0.00    +0.000 A 
ATOM     20  C   UNL     1       5.417   5.011  16.589  0.00  0.00    +0.000 A 
ATOM     21  C   UNL     1       5.111   4.202  15.483  0.00  0.00    +0.000 A 
ENDBRANCH   1  20
TORSDOF 2
ENDMDL
MODEL 6
REMARK VINA RESULT:      -7.6      1.059      1.313
REMARK  Name = 
REMARK  2 active torsions:
REMARK  status: ('A' for Active; 'I' for Inactive)
REMARK    1  A    between atoms: C_5  and  C_6
REMARK    2  A    between atoms: C_8  and  C_9
REMARK                            x       y       z     vdW  Elec       q    Type
REMARK                         _______ _______ _______ _____ _____    ______ ____
ROOT
ATOM      1  C   UNL     1       6.685   4.488  15.764  0.00  0.00    +0.000 A 
ATOM      2  C   UNL     1       5.457   4.414  16.395  0.00  0.00    +0.000 A 
ATOM      3  C   UNL     1       5.433   4.460  17.778  0.00  0.00    +0.000 A 
ATOM      4  N   UNL     1       6.566   4.595  18.495  0.00  0.00    +0.000 NA
ATOM      5  C   UNL     1       7.710   4.648  17.802  0.00  0.00    +0.000 A 
ATOM      6  N   UNL     1       7.831   4.593  16.468  0.00  0.00    +0.000 NA
ENDROOT
BRANCH   3   7
ATOM      7  C   UNL     1       4.177   4.347  18.547  0.00  0.00    +0.000 A 
ATOM      8  C   UNL     1       3.872   5.270  19.582  0.00  0.00    +0.000 A 
ATOM      9  C   UNL     1       2.691   5.179  20.330  0.00  0.00    +0.000 A 
ATOM     10  C   UNL     1       1.825   4.151  20.036  0.00  0.00    +0.000 A 
ATOM     11  C   UNL     1       2.097   3.247  19.040  0.00  0.00    +0.000 A 
ATOM     12  C   UNL     1       3.249   3.317  18.286  0.00  0.00    +0.000 A 
ATOM     13  O   UNL     1       1.125   2.306  18.909  0.00  0.00    +0.000 OA
ATOM     14  C   UNL     1       0.237   2.688  19.979  0.00  0.00    +0.000 C 
ATOM     15  O   UNL     1       0.647   3.891  20.662  0.00  0.00    +0.000 OA
ENDBRANCH   3   7
BRANCH   1  20
ATOM     16  C   UNL     1       6.270   3.488  12.124  0.00  0.00    +0.000 A 
ATOM     17  C   UNL     1       7.185   4.355  11.557  0.00  0.00    +0.000 A 
ATOM     18  N   UNL     1       7.899   5.250  12.266  0.00  0.00    +0.000 NA
ATOM     19  C   UNL     1       7.694   5.273  13.608  0.00  0.00    +0.000 A 
ATOM     20  C   UNL     1       6.815   4.436  14.297  0.00  0.00    +0.000 A 
ATOM     21  C   UNL     1       6.084   3.536  13.505  0.00  0.00    +0.000 A 
ENDBRANCH   1  20
TORSDOF 2
ENDMDL
MODEL 7
REMARK VINA RESULT:      -7.6      4.827      8.001
REMARK  Name = 
REMARK  2 active torsions:
REMARK  status: ('A' for Active; 'I' for Inactive)
REMARK    1  A    between atoms: C_5  and  C_6
REMARK    2  A    between atoms: C_8  and  C_9
REMARK                            x       y       z     vdW  Elec       q    Type
REMARK                         _______ _______ _______ _____ _____    ______ ____
ROOT
ATOM      1  C   UNL     1       1.965   7.147  20.261  0.00  0.00    +0.000 A 
ATOM      2  C   UNL     1       3.019   6.971  19.382  0.00  0.00    +0.000 A 
ATOM      3  C   UNL     1       3.501   5.688  19.196  0.00  0.00    +0.000 A 
ATOM      4  N   UNL     1       2.953   4.632  19.830  0.00  0.00    +0.000 NA
ATOM      5  C   UNL     1       1.945   4.897  20.671  0.00  0.00    +0.000 A 
ATOM      6  N   UNL     1       1.425   6.106  20.927  0.00  0.00    +0.000 NA
ENDROOT
BRANCH   3   7
ATOM      7  C   UNL     1       4.649   5.400  18.311  0.00  0.00    +0.000 A 
ATOM      8  C   UNL     1       5.945   5.183  18.847  0.00  0.00    +0.000 A 
ATOM      9  C   UNL     1       7.050   4.915  18.028  0.00  0.00    +0.000 A 
ATOM     10  C   UNL     1       6.843   4.875  16.669  0.00  0.00    +0.000 A 
ATOM     11  C   UNL     1       5.599   5.081  16.126  0.00  0.00    +0.000 A 
ATOM     12  C   UNL     1       4.495   5.340  16.910  0.00  0.00    +0.000 A 
ATOM     13  O   UNL     1       5.603   5.007  14.769  0.00  0.00    +0.000 OA
ATOM     14  C   UNL     1       7.007   4.791  14.516  0.00  0.00    +0.000 C 
ATOM     15  O   UNL     1       7.790   4.650  15.720  0.00  0.00    +0.000 OA
ENDBRANCH   3   7
BRANCH   1  20
ATOM     16  C   UNL     1       0.499  10.622  19.815  0.00  0.00    +0.000 A 
ATOM     17  C   UNL     1       0.395  10.984  21.145  0.00  0.00    +0.000 A 
ATOM     18  N   UNL     1       0.739  10.174  22.165  0.00  0.00    +0.000 NA
ATOM     19  C   UNL     1       1.220   8.946  21.838  0.00  0.00    +0.000 A 
ATOM     20  C   UNL     1       1.389   8.476  20.535  0.00  0.00    +0.000 A 
ATOM     21  C   UNL     1       0.996   9.355  19.513  0.00  0.00    +0.000 A 
ENDBRANCH   1  20
TORSDOF 2
ENDMDL
MODEL 8
REMARK VINA RESULT:      -7.6      4.582      5.364
REMARK  Name = 
REMARK  2 active torsions:
REMARK  status: ('A' for Active; 'I' for Inactive)
REMARK    1  A    between atoms: C_5  and  C_6
REMARK    2  A    between atoms: C_8  and  C_9
REMARK                            x       y       z     vdW  Elec       q    Type
REMARK                         _______ _______ _______ _____ _____    ______ ____
ROOT
ATOM      1  C   UNL     1       3.807   5.375  18.159  0.00  0.00    +0.000 A 
ATOM      2  C   UNL     1       3.193   6.580  18.445  0.00  0.00    +0.000 A 
ATOM      3  C   UNL     1       2.418   6.660  19.588  0.00  0.00    +0.000 A 
ATOM      4  N   UNL     1       2.278   5.605  20.416  0.00  0.00    +0.000 NA
ATOM      5  C   UNL     1       2.898   4.475  20.055  0.00  0.00    +0.000 A 
ATOM      6  N   UNL     1       3.653   4.301  18.960  0.00  0.00    +0.000 NA
ENDROOT
BRANCH   3   7
ATOM      7  C   UNL     1       1.689   7.889  19.960  0.00  0.00    +0.000 A 
ATOM      8  C   UNL     1       1.537   8.954  19.035  0.00  0.00    +0.000 A 
ATOM      9  C   UNL     1       0.856  10.133  19.367  0.00  0.00    +0.000 A 
ATOM     10  C   UNL     1       0.336  10.234  20.637  0.00  0.00    +0.000 A 
ATOM     11  C   UNL     1       0.468   9.218  21.549  0.00  0.00    +0.000 A 
ATOM     12  C   UNL     1       1.129   8.047  21.246  0.00  0.00    +0.000 A 
ATOM     13  O   UNL     1      -0.106   9.512  22.745  0.00  0.00    +0.000 OA
ATOM     14  C   UNL     1      -0.564  10.857  22.499  0.00  0.00    +0.000 C 
ATOM     15  O   UNL     1      -0.336  11.301  21.145  0.00  0.00    +0.000 OA
ENDBRANCH   3   7
BRANCH   1  20
ATOM     16  C   UNL     1       5.892   3.794  15.406  0.00  0.00    +0.000 A 
ATOM     17  C   UNL     1       6.278   4.943  14.741  0.00  0.00    +0.000 A 
ATOM     18  N   UNL     1       5.890   6.180  15.108  0.00  0.00    +0.000 NA
ATOM     19  C   UNL     1       5.082   6.271  16.197  0.00  0.00    +0.000 A 
ATOM     20  C   UNL     1       4.643   5.188  16.959  0.00  0.00    +0.000 A 
ATOM     21  C   UNL     1       5.063   3.923  16.520  0.00  0.00    +0.000 A 
ENDBRANCH   1  20
TORSDOF 2
ENDMDL
MODEL 9
REMARK VINA RESULT:      -7.6      5.443      8.314
REMARK  Name = 
REMARK  2 active torsions:
REMARK  status: ('A' for Active; 'I' for Inactive)
REMARK    1  A    between atoms: C_5  and  C_6
REMARK    2  A    between atoms: C_8  and  C_9
REMARK                            x       y       z     vdW  Elec       q    Type
REMARK                         _______ _______ _______ _____ _____    ______ ____
ROOT
ATOM      1  C   UNL     1       1.149   9.388  19.788  0.00  0.00    +0.000 A 
ATOM      2  C   UNL     1       1.637   8.101  19.652  0.00  0.00    +0.000 A 
ATOM      3  C   UNL     1       2.302   7.780  18.481  0.00  0.00    +0.000 A 
ATOM      4  N   UNL     1       2.491   8.692  17.507  0.00  0.00    +0.000 NA
ATOM      5  C   UNL     1       1.975   9.909  17.720  0.00  0.00    +0.000 A 
ATOM      6  N   UNL     1       1.303  10.305  18.811  0.00  0.00    +0.000 NA
ENDROOT
BRANCH   3   7
ATOM      7  C   UNL     1       2.825   6.423  18.221  0.00  0.00    +0.000 A 
ATOM      8  C   UNL     1       3.953   6.226  17.383  0.00  0.00    +0.000 A 
ATOM      9  C   UNL     1       4.463   4.948  17.115  0.00  0.00    +0.000 A 
ATOM     10  C   UNL     1       3.826   3.873  17.690  0.00  0.00    +0.000 A 
ATOM     11  C   UNL     1       2.735   4.037  18.505  0.00  0.00    +0.000 A 
ATOM     12  C   UNL     1       2.217   5.283  18.788  0.00  0.00    +0.000 A 
ATOM     13  O   UNL     1       2.246   2.857  18.968  0.00  0.00    +0.000 OA
ATOM     14  C   UNL     1       3.121   1.924  18.301  0.00  0.00    +0.000 C 
ATOM     15  O   UNL     1       4.161   2.565  17.533  0.00  0.00    +0.000 OA
ENDBRANCH   3   7
BRANCH   1  20
ATOM     16  C   UNL     1      -0.242   9.560  23.318  0.00  0.00    +0.000 A 
ATOM     17  C   UNL     1      -1.056  10.667  23.175  0.00  0.00    +0.000 A 
ATOM     18  N   UNL     1      -1.162  11.369  22.030  0.00  0.00    +0.000 NA
ATOM     19  C   UNL     1      -0.423  10.937  20.975  0.00  0.00    +0.000 A 
ATOM     20  C   UNL     1       0.418   9.823  20.991  0.00  0.00    +0.000 A 
ATOM     21  C   UNL     1       0.503   9.142  22.216  0.00  0.00    +0.000 A 
ENDBRANCH   1  20
TORSDOF 2
ENDMDL
