MODEL 1
REMARK VINA RESULT:      -7.6      0.000      0.000
REMARK  Name = 
REMARK  8 active torsions:
REMARK  status: ('A' for Active; 'I' for Inactive)
REMARK    1  A    between atoms: C_1  and  N_2
REMARK    2  A    between atoms: N_2  and  C_3
REMARK    3  A    between atoms: N_2  and  C_10
REMARK    4  A    between atoms: C_3  and  C_4
REMARK    5  A    between atoms: C_10  and  C_11
REMARK    6  A    between atoms: C_14  and  C_15
REMARK    7  A    between atoms: C_15  and  C_16
REMARK    8  A    between atoms: N_23  and  C_24
REMARK                            x       y       z     vdW  Elec       q    Type
REMARK                         _______ _______ _______ _____ _____    ______ ____
ROOT
ATOM      1  C   UNL     1       1.268   2.962  18.444  0.00  0.00    +0.000 C 
ATOM      2  C   UNL     1       0.689   2.592  19.800  0.00  0.00    +0.000 C 
ATOM      3  C   UNL     1       1.235   3.674  20.697  0.00  0.00    +0.000 C 
ATOM      4  C   UNL     1       1.215   4.890  19.782  0.00  0.00    +0.000 C 
ATOM      5  O   UNL     1       1.458   4.390  18.454  0.00  0.00    +0.000 OA
ENDROOT
BRANCH   1   6
ATOM      6  C   UNL     1       2.635   2.307  18.139  0.00  0.00    +0.000 C 
BRANCH   6   8
ATOM      7  C   UNL     1       4.551   2.621  19.593  0.00  0.00    +0.000 C 
ATOM      8  N   UNL     1       3.811   3.146  18.438  0.00  0.00    +0.000 NA
BRANCH   8   9
ATOM      9  C   UNL     1       4.676   3.231  17.242  0.00  0.00    +0.000 C 
BRANCH   9  10
ATOM     10  C   UNL     1       5.391   4.552  17.133  0.00  0.00    +0.000 A 
ATOM     11  C   UNL     1       4.703   5.768  17.226  0.00  0.00    +0.000 A 
ATOM     12  C   UNL     1       5.414   6.961  17.206  0.00  0.00    +0.000 A 
ATOM     13  C   UNL     1       6.792   6.905  17.082  0.00  0.00    +0.000 A 
ATOM     14  N   UNL     1       7.492   5.755  16.969  0.00  0.00    +0.000 NA
ATOM     15  C   UNL     1       6.778   4.608  16.997  0.00  0.00    +0.000 A 
ENDBRANCH   9  10
ENDBRANCH   8   9
ENDBRANCH   6   8
ENDBRANCH   1   6
BRANCH   4  16
ATOM     16  C   UNL     1       2.284   5.915  20.163  0.00  0.00    +0.000 C 
BRANCH  16  17
ATOM     17  C   UNL     1       1.852   7.350  19.953  0.00  0.00    +0.000 A 
ATOM     18  C   UNL     1       2.068   7.966  18.712  0.00  0.00    +0.000 A 
ATOM     19  C   UNL     1       1.751   9.310  18.491  0.00  0.00    +0.000 A 
ATOM     20  C   UNL     1       1.191  10.019  19.559  0.00  0.00    +0.000 A 
ATOM     21  C   UNL     1       0.918   9.428  20.788  0.00  0.00    +0.000 A 
ATOM     22  C   UNL     1       0.336  10.461  21.556  0.00  0.00    +0.000 A 
ATOM     23  N   UNL     1       0.271  11.622  20.900  0.00  0.00    +0.000 NA
ATOM     24  N   UNL     1       0.810  11.331  19.697  0.00  0.00    +0.000 N 
ATOM     25  C   UNL     1       0.991  12.381  18.723  0.00  0.00    +0.000 C 
ATOM     26  C   UNL     1       1.247   8.074  20.995  0.00  0.00    +0.000 A 
ENDBRANCH  16  17
ENDBRANCH   4  16
TORSDOF 6
ENDMDL
MODEL 2
REMARK VINA RESULT:      -7.5      1.021      1.294
REMARK  Name = 
REMARK  8 active torsions:
REMARK  status: ('A' for Active; 'I' for Inactive)
REMARK    1  A    between atoms: C_1  and  N_2
REMARK    2  A    between atoms: N_2  and  C_3
REMARK    3  A    between atoms: N_2  and  C_10
REMARK    4  A    between atoms: C_3  and  C_4
REMARK    5  A    between atoms: C_10  and  C_11
REMARK    6  A    between atoms: C_14  and  C_15
REMARK    7  A    between atoms: C_15  and  C_16
REMARK    8  A    between atoms: N_23  and  C_24
REMARK                            x       y       z     vdW  Elec       q    Type
REMARK                         _______ _______ _______ _____ _____    ______ ____
ROOT
ATOM      1  C   UNL     1       0.851   3.066  19.831  0.00  0.00    +0.000 C 
ATOM      2  C   UNL     1       1.535   2.776  21.157  0.00  0.00    +0.000 C 
ATOM      3  C   UNL     1       2.514   3.917  21.280  0.00  0.00    +0.000 C 
ATOM      4  C   UNL     1       1.737   5.073  20.666  0.00  0.00    +0.000 C 
ATOM      5  O   UNL     1       0.906   4.493  19.644  0.00  0.00    +0.000 OA
ENDROOT
BRANCH   1   6
ATOM      6  C   UNL     1       1.533   2.405  18.610  0.00  0.00    +0.000 C 
BRANCH   6   8
ATOM      7  C   UNL     1       3.671   1.261  18.551  0.00  0.00    +0.000 C 
ATOM      8  N   UNL     1       2.998   2.566  18.548  0.00  0.00    +0.000 NA
BRANCH   8   9
ATOM      9  C   UNL     1       3.360   3.352  17.350  0.00  0.00    +0.000 C 
BRANCH   9  10
ATOM     10  C   UNL     1       4.408   4.396  17.632  0.00  0.00    +0.000 A 
ATOM     11  C   UNL     1       5.338   4.241  18.667  0.00  0.00    +0.000 A 
ATOM     12  C   UNL     1       6.340   5.188  18.838  0.00  0.00    +0.000 A 
ATOM     13  C   UNL     1       6.377   6.270  17.974  0.00  0.00    +0.000 A 
ATOM     14  N   UNL     1       5.488   6.468  16.976  0.00  0.00    +0.000 NA
ATOM     15  C   UNL     1       4.526   5.530  16.829  0.00  0.00    +0.000 A 
ENDBRANCH   9  10
ENDBRANCH   8   9
ENDBRANCH   6   8
ENDBRANCH   1   6
BRANCH   4  16
ATOM     16  C   UNL     1       2.661   6.129  20.058  0.00  0.00    +0.000 C 
BRANCH  16  17
ATOM     17  C   UNL     1       2.001   7.478  19.872  0.00  0.00    +0.000 A 
ATOM     18  C   UNL     1       2.091   8.130  18.633  0.00  0.00    +0.000 A 
ATOM     19  C   UNL     1       1.559   9.408  18.432  0.00  0.00    +0.000 A 
ATOM     20  C   UNL     1       0.915  10.011  19.519  0.00  0.00    +0.000 A 
ATOM     21  C   UNL     1       0.765   9.374  20.746  0.00  0.00    +0.000 A 
ATOM     22  C   UNL     1       0.041  10.295  21.536  0.00  0.00    +0.000 A 
ATOM     23  N   UNL     1      -0.221  11.436  20.895  0.00  0.00    +0.000 NA
ATOM     24  N   UNL     1       0.332  11.244  19.679  0.00  0.00    +0.000 N 
ATOM     25  C   UNL     1       0.324  12.317  18.712  0.00  0.00    +0.000 C 
ATOM     26  C   UNL     1       1.309   8.089  20.933  0.00  0.00    +0.000 A 
ENDBRANCH  16  17
ENDBRANCH   4  16
TORSDOF 6
ENDMDL
MODEL 3
REMARK VINA RESULT:      -7.5      0.874      1.554
REMARK  Name = 
REMARK  8 active torsions:
REMARK  status: ('A' for Active; 'I' for Inactive)
REMARK    1  A    between atoms: C_1  and  N_2
REMARK    2  A    between atoms: N_2  and  C_3
REMARK    3  A    between atoms: N_2  and  C_10
REMARK    4  A    between atoms: C_3  and  C_4
REMARK    5  A    between atoms: C_10  and  C_11
REMARK    6  A    between atoms: C_14  and  C_15
REMARK    7  A    between atoms: C_15  and  C_16
REMARK    8  A    between atoms: N_23  and  C_24
REMARK                            x       y       z     vdW  Elec       q    Type
REMARK                         _______ _______ _______ _____ _____    ______ ____
ROOT
ATOM      1  C   UNL     1       1.163   2.734  19.675  0.00  0.00    +0.000 C 
ATOM      2  C   UNL     1       1.312   2.644  21.185  0.00  0.00    +0.000 C 
ATOM      3  C   UNL     1       2.048   3.917  21.520  0.00  0.00    +0.000 C 
ATOM      4  C   UNL     1       1.453   4.903  20.525  0.00  0.00    +0.000 C 
ATOM      5  O   UNL     1       1.140   4.136  19.347  0.00  0.00    +0.000 OA
ENDROOT
BRANCH   1   6
ATOM      6  C   UNL     1       2.324   2.086  18.885  0.00  0.00    +0.000 C 
BRANCH   6   8
ATOM      7  C   UNL     1       4.604   2.179  19.705  0.00  0.00    +0.000 C 
ATOM      8  N   UNL     1       3.586   2.849  18.888  0.00  0.00    +0.000 NA
BRANCH   8   9
ATOM      9  C   UNL     1       4.054   3.037  17.498  0.00  0.00    +0.000 C 
BRANCH   9  10
ATOM     10  C   UNL     1       4.749   4.357  17.291  0.00  0.00    +0.000 A 
ATOM     11  C   UNL     1       4.035   5.559  17.222  0.00  0.00    +0.000 A 
ATOM     12  C   UNL     1       4.723   6.762  17.116  0.00  0.00    +0.000 A 
ATOM     13  C   UNL     1       6.107   6.726  17.071  0.00  0.00    +0.000 A 
ATOM     14  N   UNL     1       6.833   5.588  17.113  0.00  0.00    +0.000 NA
ATOM     15  C   UNL     1       6.140   4.433  17.222  0.00  0.00    +0.000 A 
ENDBRANCH   9  10
ENDBRANCH   8   9
ENDBRANCH   6   8
ENDBRANCH   1   6
BRANCH   4  16
ATOM     16  C   UNL     1       2.426   6.030  20.178  0.00  0.00    +0.000 C 
BRANCH  16  17
ATOM     17  C   UNL     1       1.798   7.406  20.207  0.00  0.00    +0.000 A 
ATOM     18  C   UNL     1       1.060   7.809  21.329  0.00  0.00    +0.000 A 
ATOM     19  C   UNL     1       0.401   9.042  21.374  0.00  0.00    +0.000 A 
ATOM     20  C   UNL     1       0.521   9.873  20.253  0.00  0.00    +0.000 A 
ATOM     21  C   UNL     1       1.284   9.526  19.144  0.00  0.00    +0.000 A 
ATOM     22  C   UNL     1       1.169  10.634  18.275  0.00  0.00    +0.000 A 
ATOM     23  N   UNL     1       0.376  11.593  18.758  0.00  0.00    +0.000 NA
ATOM     24  N   UNL     1      -0.016  11.101  19.952  0.00  0.00    +0.000 N 
ATOM     25  C   UNL     1      -0.969  11.835  20.750  0.00  0.00    +0.000 C 
ATOM     26  C   UNL     1       1.938   8.279  19.113  0.00  0.00    +0.000 A 
ENDBRANCH  16  17
ENDBRANCH   4  16
TORSDOF 6
ENDMDL
MODEL 4
REMARK VINA RESULT:      -7.1      1.583      4.109
REMARK  Name = 
REMARK  8 active torsions:
REMARK  status: ('A' for Active; 'I' for Inactive)
REMARK    1  A    between atoms: C_1  and  N_2
REMARK    2  A    between atoms: N_2  and  C_3
REMARK    3  A    between atoms: N_2  and  C_10
REMARK    4  A    between atoms: C_3  and  C_4
REMARK    5  A    between atoms: C_10  and  C_11
REMARK    6  A    between atoms: C_14  and  C_15
REMARK    7  A    between atoms: C_15  and  C_16
REMARK    8  A    between atoms: N_23  and  C_24
REMARK                            x       y       z     vdW  Elec       q    Type
REMARK                         _______ _______ _______ _____ _____    ______ ____
ROOT
ATOM      1  C   UNL     1       6.133   5.432  18.645  0.00  0.00    +0.000 C 
ATOM      2  C   UNL     1       6.728   6.376  17.612  0.00  0.00    +0.000 C 
ATOM      3  C   UNL     1       5.504   6.987  16.980  0.00  0.00    +0.000 C 
ATOM      4  C   UNL     1       4.555   7.102  18.165  0.00  0.00    +0.000 C 
ATOM      5  O   UNL     1       4.862   5.991  19.027  0.00  0.00    +0.000 OA
ENDROOT
BRANCH   1   6
ATOM      6  C   UNL     1       5.880   4.000  18.122  0.00  0.00    +0.000 C 
BRANCH   6   8
ATOM      7  C   UNL     1       4.611   3.642  16.087  0.00  0.00    +0.000 C 
ATOM      8  N   UNL     1       4.541   3.770  17.548  0.00  0.00    +0.000 NA
BRANCH   8   9
ATOM      9  C   UNL     1       3.938   2.569  18.162  0.00  0.00    +0.000 C 
BRANCH   9  10
ATOM     10  C   UNL     1       3.105   2.891  19.375  0.00  0.00    +0.000 A 
ATOM     11  C   UNL     1       1.899   3.593  19.272  0.00  0.00    +0.000 A 
ATOM     12  C   UNL     1       1.121   3.793  20.406  0.00  0.00    +0.000 A 
ATOM     13  C   UNL     1       1.579   3.294  21.614  0.00  0.00    +0.000 A 
ATOM     14  N   UNL     1       2.746   2.630  21.761  0.00  0.00    +0.000 NA
ATOM     15  C   UNL     1       3.480   2.444  20.642  0.00  0.00    +0.000 A 
ENDBRANCH   9  10
ENDBRANCH   8   9
ENDBRANCH   6   8
ENDBRANCH   1   6
BRANCH   4  16
ATOM     16  C   UNL     1       3.088   7.048  17.736  0.00  0.00    +0.000 C 
BRANCH  16  17
ATOM     17  C   UNL     1       2.192   7.987  18.514  0.00  0.00    +0.000 A 
ATOM     18  C   UNL     1       1.608   9.085  17.867  0.00  0.00    +0.000 A 
ATOM     19  C   UNL     1       0.831  10.020  18.557  0.00  0.00    +0.000 A 
ATOM     20  C   UNL     1       0.643   9.808  19.928  0.00  0.00    +0.000 A 
ATOM     21  C   UNL     1       1.167   8.705  20.592  0.00  0.00    +0.000 A 
ATOM     22  C   UNL     1       0.723   8.851  21.926  0.00  0.00    +0.000 A 
ATOM     23  N   UNL     1       0.009   9.963  22.117  0.00  0.00    +0.000 NA
ATOM     24  N   UNL     1      -0.011  10.534  20.894  0.00  0.00    +0.000 N 
ATOM     25  C   UNL     1      -0.634  11.825  20.717  0.00  0.00    +0.000 C 
ATOM     26  C   UNL     1       1.950   7.774  19.883  0.00  0.00    +0.000 A 
ENDBRANCH  16  17
ENDBRANCH   4  16
TORSDOF 6
ENDMDL
MODEL 5
REMARK VINA RESULT:      -7.0      4.481      7.903
REMARK  Name = 
REMARK  8 active torsions:
REMARK  status: ('A' for Active; 'I' for Inactive)
REMARK    1  A    between atoms: C_1  and  N_2
REMARK    2  A    between atoms: N_2  and  C_3
REMARK    3  A    between atoms: N_2  and  C_10
REMARK    4  A    between atoms: C_3  and  C_4
REMARK    5  A    between atoms: C_10  and  C_11
REMARK    6  A    between atoms: C_14  and  C_15
REMARK    7  A    between atoms: C_15  and  C_16
REMARK    8  A    between atoms: N_23  and  C_24
REMARK                            x       y       z     vdW  Elec       q    Type
REMARK                         _______ _______ _______ _____ _____    ______ ____
ROOT
ATOM      1  C   UNL     1       8.323   7.658  17.701  0.00  0.00    +0.000 C 
ATOM      2  C   UNL     1       8.088   6.645  18.809  0.00  0.00    +0.000 C 
ATOM      3  C   UNL     1       6.770   6.026  18.416  0.00  0.00    +0.000 C 
ATOM      4  C   UNL     1       6.870   5.999  16.897  0.00  0.00    +0.000 C 
ATOM      5  O   UNL     1       7.653   7.150  16.532  0.00  0.00    +0.000 OA
ENDROOT
BRANCH   1   6
ATOM      6  C   UNL     1       7.752   9.064  17.997  0.00  0.00    +0.000 C 
BRANCH   6   8
ATOM      7  C   UNL     1       8.170  11.418  17.591  0.00  0.00    +0.000 C 
ATOM      8  N   UNL     1       8.751  10.148  18.045  0.00  0.00    +0.000 NA
BRANCH   8   9
ATOM      9  C   UNL     1       9.288  10.266  19.418  0.00  0.00    +0.000 C 
BRANCH   9  10
ATOM     10  C   UNL     1      10.276  11.393  19.562  0.00  0.00    +0.000 A 
ATOM     11  C   UNL     1      11.420  11.473  18.759  0.00  0.00    +0.000 A 
ATOM     12  C   UNL     1      12.259  12.575  18.867  0.00  0.00    +0.000 A 
ATOM     13  C   UNL     1      11.935  13.561  19.785  0.00  0.00    +0.000 A 
ATOM     14  N   UNL     1      10.854  13.513  20.592  0.00  0.00    +0.000 NA
ATOM     15  C   UNL     1      10.051  12.433  20.464  0.00  0.00    +0.000 A 
ENDBRANCH   9  10
ENDBRANCH   8   9
ENDBRANCH   6   8
ENDBRANCH   1   6
BRANCH   4  16
ATOM     16  C   UNL     1       5.496   6.060  16.229  0.00  0.00    +0.000 C 
BRANCH  16  17
ATOM     17  C   UNL     1       4.414   5.333  16.997  0.00  0.00    +0.000 A 
ATOM     18  C   UNL     1       3.461   6.067  17.718  0.00  0.00    +0.000 A 
ATOM     19  C   UNL     1       2.485   5.441  18.500  0.00  0.00    +0.000 A 
ATOM     20  C   UNL     1       2.485   4.041  18.523  0.00  0.00    +0.000 A 
ATOM     21  C   UNL     1       3.384   3.281  17.782  0.00  0.00    +0.000 A 
ATOM     22  C   UNL     1       3.025   1.943  18.056  0.00  0.00    +0.000 A 
ATOM     23  N   UNL     1       2.013   1.842  18.921  0.00  0.00    +0.000 NA
ATOM     24  N   UNL     1       1.714   3.129  19.201  0.00  0.00    +0.000 N 
ATOM     25  C   UNL     1       0.702   3.429  20.185  0.00  0.00    +0.000 C 
ATOM     26  C   UNL     1       4.362   3.928  17.003  0.00  0.00    +0.000 A 
ENDBRANCH  16  17
ENDBRANCH   4  16
TORSDOF 6
ENDMDL
MODEL 6
REMARK VINA RESULT:      -6.9      1.561      6.631
REMARK  Name = 
REMARK  8 active torsions:
REMARK  status: ('A' for Active; 'I' for Inactive)
REMARK    1  A    between atoms: C_1  and  N_2
REMARK    2  A    between atoms: N_2  and  C_3
REMARK    3  A    between atoms: N_2  and  C_10
REMARK    4  A    between atoms: C_3  and  C_4
REMARK    5  A    between atoms: C_10  and  C_11
REMARK    6  A    between atoms: C_14  and  C_15
REMARK    7  A    between atoms: C_15  and  C_16
REMARK    8  A    between atoms: N_23  and  C_24
REMARK                            x       y       z     vdW  Elec       q    Type
REMARK                         _______ _______ _______ _____ _____    ______ ____
ROOT
ATOM      1  C   UNL     1       1.913   5.607  20.091  0.00  0.00    +0.000 C 
ATOM      2  C   UNL     1       0.804   4.590  20.307  0.00  0.00    +0.000 C 
ATOM      3  C   UNL     1       1.511   3.277  20.083  0.00  0.00    +0.000 C 
ATOM      4  C   UNL     1       2.889   3.552  20.670  0.00  0.00    +0.000 C 
ATOM      5  O   UNL     1       3.146   4.949  20.439  0.00  0.00    +0.000 OA
ENDROOT
BRANCH   1   6
ATOM      6  C   UNL     1       2.041   6.103  18.632  0.00  0.00    +0.000 C 
BRANCH   6   8
ATOM      7  C   UNL     1       3.846   7.354  17.604  0.00  0.00    +0.000 C 
ATOM      8  N   UNL     1       2.666   7.430  18.474  0.00  0.00    +0.000 NA
BRANCH   8   9
ATOM      9  C   UNL     1       1.671   8.387  17.945  0.00  0.00    +0.000 C 
BRANCH   9  10
ATOM     10  C   UNL     1       1.316   9.465  18.935  0.00  0.00    +0.000 A 
ATOM     11  C   UNL     1       0.934   9.159  20.247  0.00  0.00    +0.000 A 
ATOM     12  C   UNL     1       0.699  10.188  21.150  0.00  0.00    +0.000 A 
ATOM     13  C   UNL     1       0.842  11.494  20.713  0.00  0.00    +0.000 A 
ATOM     14  N   UNL     1       1.188  11.832  19.451  0.00  0.00    +0.000 NA
ATOM     15  C   UNL     1       1.417  10.813  18.594  0.00  0.00    +0.000 A 
ENDBRANCH   9  10
ENDBRANCH   8   9
ENDBRANCH   6   8
ENDBRANCH   1   6
BRANCH   4  16
ATOM     16  C   UNL     1       3.975   2.699  20.013  0.00  0.00    +0.000 C 
BRANCH  16  17
ATOM     17  C   UNL     1       4.607   3.349  18.801  0.00  0.00    +0.000 A 
ATOM     18  C   UNL     1       4.127   3.042  17.520  0.00  0.00    +0.000 A 
ATOM     19  C   UNL     1       4.723   3.561  16.366  0.00  0.00    +0.000 A 
ATOM     20  C   UNL     1       5.815   4.419  16.540  0.00  0.00    +0.000 A 
ATOM     21  C   UNL     1       6.286   4.783  17.797  0.00  0.00    +0.000 A 
ATOM     22  C   UNL     1       7.353   5.671  17.531  0.00  0.00    +0.000 A 
ATOM     23  N   UNL     1       7.577   5.838  16.225  0.00  0.00    +0.000 NA
ATOM     24  N   UNL     1       6.641   5.056  15.647  0.00  0.00    +0.000 N 
ATOM     25  C   UNL     1       6.621   4.910  14.211  0.00  0.00    +0.000 C 
ATOM     26  C   UNL     1       5.677   4.248  18.948  0.00  0.00    +0.000 A 
ENDBRANCH  16  17
ENDBRANCH   4  16
TORSDOF 6
ENDMDL
MODEL 7
REMARK VINA RESULT:      -6.9      1.225      1.723
REMARK  Name = 
REMARK  8 active torsions:
REMARK  status: ('A' for Active; 'I' for Inactive)
REMARK    1  A    between atoms: C_1  and  N_2
REMARK    2  A    between atoms: N_2  and  C_3
REMARK    3  A    between atoms: N_2  and  C_10
REMARK    4  A    between atoms: C_3  and  C_4
REMARK    5  A    between atoms: C_10  and  C_11
REMARK    6  A    between atoms: C_14  and  C_15
REMARK    7  A    between atoms: C_15  and  C_16
REMARK    8  A    between atoms: N_23  and  C_24
REMARK                            x       y       z     vdW  Elec       q    Type
REMARK                         _______ _______ _______ _____ _____    ______ ____
ROOT
ATOM      1  C   UNL     1       2.358   3.871  19.315  0.00  0.00    +0.000 C 
ATOM      2  C   UNL     1       1.821   3.780  20.734  0.00  0.00    +0.000 C 
ATOM      3  C   UNL     1       1.923   5.205  21.217  0.00  0.00    +0.000 C 
ATOM      4  C   UNL     1       1.591   5.994  19.958  0.00  0.00    +0.000 C 
ATOM      5  O   UNL     1       2.085   5.209  18.858  0.00  0.00    +0.000 OA
ENDROOT
BRANCH   1   6
ATOM      6  C   UNL     1       3.882   3.637  19.199  0.00  0.00    +0.000 C 
BRANCH   6   8
ATOM      7  C   UNL     1       3.413   1.654  17.884  0.00  0.00    +0.000 C 
ATOM      8  N   UNL     1       4.303   2.808  18.053  0.00  0.00    +0.000 NA
BRANCH   8   9
ATOM      9  C   UNL     1       4.343   3.638  16.830  0.00  0.00    +0.000 C 
BRANCH   9  10
ATOM     10  C   UNL     1       5.349   4.755  16.917  0.00  0.00    +0.000 A 
ATOM     11  C   UNL     1       4.955   6.098  16.932  0.00  0.00    +0.000 A 
ATOM     12  C   UNL     1       5.911   7.093  17.099  0.00  0.00    +0.000 A 
ATOM     13  C   UNL     1       7.236   6.715  17.236  0.00  0.00    +0.000 A 
ATOM     14  N   UNL     1       7.661   5.433  17.206  0.00  0.00    +0.000 NA
ATOM     15  C   UNL     1       6.711   4.485  17.047  0.00  0.00    +0.000 A 
ENDBRANCH   9  10
ENDBRANCH   8   9
ENDBRANCH   6   8
ENDBRANCH   1   6
BRANCH   4  16
ATOM     16  C   UNL     1       2.246   7.376  19.957  0.00  0.00    +0.000 C 
BRANCH  16  17
ATOM     17  C   UNL     1       1.307   8.494  20.355  0.00  0.00    +0.000 A 
ATOM     18  C   UNL     1       0.944   9.466  19.411  0.00  0.00    +0.000 A 
ATOM     19  C   UNL     1       0.137  10.556  19.749  0.00  0.00    +0.000 A 
ATOM     20  C   UNL     1      -0.313  10.633  21.073  0.00  0.00    +0.000 A 
ATOM     21  C   UNL     1      -0.013   9.662  22.022  0.00  0.00    +0.000 A 
ATOM     22  C   UNL     1      -0.677  10.094  23.192  0.00  0.00    +0.000 A 
ATOM     23  N   UNL     1      -1.317  11.255  23.027  0.00  0.00    +0.000 NA
ATOM     24  N   UNL     1      -1.068  11.568  21.738  0.00  0.00    +0.000 N 
ATOM     25  C   UNL     1      -1.537  12.825  21.205  0.00  0.00    +0.000 C 
ATOM     26  C   UNL     1       0.804   8.572  21.666  0.00  0.00    +0.000 A 
ENDBRANCH  16  17
ENDBRANCH   4  16
TORSDOF 6
ENDMDL
MODEL 8
REMARK VINA RESULT:      -6.5      1.405      2.387
REMARK  Name = 
REMARK  8 active torsions:
REMARK  status: ('A' for Active; 'I' for Inactive)
REMARK    1  A    between atoms: C_1  and  N_2
REMARK    2  A    between atoms: N_2  and  C_3
REMARK    3  A    between atoms: N_2  and  C_10
REMARK    4  A    between atoms: C_3  and  C_4
REMARK    5  A    between atoms: C_10  and  C_11
REMARK    6  A    between atoms: C_14  and  C_15
REMARK    7  A    between atoms: C_15  and  C_16
REMARK    8  A    between atoms: N_23  and  C_24
REMARK                            x       y       z     vdW  Elec       q    Type
REMARK                         _______ _______ _______ _____ _____    ______ ____
ROOT
ATOM      1  C   UNL     1       2.283   4.178  19.144  0.00  0.00    +0.000 C 
ATOM      2  C   UNL     1       1.616   3.992  20.498  0.00  0.00    +0.000 C 
ATOM      3  C   UNL     1       1.699   5.372  21.099  0.00  0.00    +0.000 C 
ATOM      4  C   UNL     1       1.499   6.264  19.882  0.00  0.00    +0.000 C 
ATOM      5  O   UNL     1       2.077   5.554  18.771  0.00  0.00    +0.000 OA
ENDROOT
BRANCH   1   6
ATOM      6  C   UNL     1       3.807   3.915  19.148  0.00  0.00    +0.000 C 
BRANCH   6   8
ATOM      7  C   UNL     1       3.255   1.952  17.836  0.00  0.00    +0.000 C 
ATOM      8  N   UNL     1       4.280   2.960  18.128  0.00  0.00    +0.000 NA
BRANCH   8   9
ATOM      9  C   UNL     1       4.672   3.695  16.906  0.00  0.00    +0.000 C 
BRANCH   9  10
ATOM     10  C   UNL     1       5.600   4.846  17.191  0.00  0.00    +0.000 A 
ATOM     11  C   UNL     1       6.794   4.668  17.901  0.00  0.00    +0.000 A 
ATOM     12  C   UNL     1       7.661   5.741  18.067  0.00  0.00    +0.000 A 
ATOM     13  C   UNL     1       7.304   6.965  17.526  0.00  0.00    +0.000 A 
ATOM     14  N   UNL     1       6.153   7.185  16.853  0.00  0.00    +0.000 NA
ATOM     15  C   UNL     1       5.330   6.124  16.701  0.00  0.00    +0.000 A 
ENDBRANCH   9  10
ENDBRANCH   8   9
ENDBRANCH   6   8
ENDBRANCH   1   6
BRANCH   4  16
ATOM     16  C   UNL     1       2.176   7.625  20.048  0.00  0.00    +0.000 C 
BRANCH  16  17
ATOM     17  C   UNL     1       1.259   8.696  20.598  0.00  0.00    +0.000 A 
ATOM     18  C   UNL     1       1.028   8.772  21.979  0.00  0.00    +0.000 A 
ATOM     19  C   UNL     1       0.135   9.697  22.528  0.00  0.00    +0.000 A 
ATOM     20  C   UNL     1      -0.513  10.564  21.640  0.00  0.00    +0.000 A 
ATOM     21  C   UNL     1      -0.272  10.550  20.271  0.00  0.00    +0.000 A 
ATOM     22  C   UNL     1      -1.085  11.585  19.758  0.00  0.00    +0.000 A 
ATOM     23  N   UNL     1      -1.814  12.189  20.700  0.00  0.00    +0.000 NA
ATOM     24  N   UNL     1      -1.460  11.542  21.830  0.00  0.00    +0.000 N 
ATOM     25  C   UNL     1      -2.114  11.867  23.075  0.00  0.00    +0.000 C 
ATOM     26  C   UNL     1       0.627   9.609  19.734  0.00  0.00    +0.000 A 
ENDBRANCH  16  17
ENDBRANCH   4  16
TORSDOF 6
ENDMDL
MODEL 9
REMARK VINA RESULT:      -6.5      4.197      6.797
REMARK  Name = 
REMARK  8 active torsions:
REMARK  status: ('A' for Active; 'I' for Inactive)
REMARK    1  A    between atoms: C_1  and  N_2
REMARK    2  A    between atoms: N_2  and  C_3
REMARK    3  A    between atoms: N_2  and  C_10
REMARK    4  A    between atoms: C_3  and  C_4
REMARK    5  A    between atoms: C_10  and  C_11
REMARK    6  A    between atoms: C_14  and  C_15
REMARK    7  A    between atoms: C_15  and  C_16
REMARK    8  A    between atoms: N_23  and  C_24
REMARK                            x       y       z     vdW  Elec       q    Type
REMARK                         _______ _______ _______ _____ _____    ______ ____
ROOT
ATOM      1  C   UNL     1       6.277   5.746  16.092  0.00  0.00    +0.000 C 
ATOM      2  C   UNL     1       5.182   6.763  16.372  0.00  0.00    +0.000 C 
ATOM      3  C   UNL     1       5.796   7.620  17.450  0.00  0.00    +0.000 C 
ATOM      4  C   UNL     1       7.260   7.659  17.032  0.00  0.00    +0.000 C 
ATOM      5  O   UNL     1       7.526   6.392  16.404  0.00  0.00    +0.000 OA
ENDROOT
BRANCH   1   6
ATOM      6  C   UNL     1       6.184   4.463  16.949  0.00  0.00    +0.000 C 
BRANCH   6   8
ATOM      7  C   UNL     1       4.162   3.125  16.980  0.00  0.00    +0.000 C 
ATOM      8  N   UNL     1       4.882   4.241  17.605  0.00  0.00    +0.000 NA
BRANCH   8   9
ATOM      9  C   UNL     1       5.089   4.003  19.049  0.00  0.00    +0.000 C 
BRANCH   9  10
ATOM     10  C   UNL     1       3.795   3.927  19.818  0.00  0.00    +0.000 A 
ATOM     11  C   UNL     1       2.908   5.009  19.868  0.00  0.00    +0.000 A 
ATOM     12  C   UNL     1       1.688   4.866  20.518  0.00  0.00    +0.000 A 
ATOM     13  C   UNL     1       1.395   3.648  21.108  0.00  0.00    +0.000 A 
ATOM     14  N   UNL     1       2.232   2.587  21.101  0.00  0.00    +0.000 NA
ATOM     15  C   UNL     1       3.409   2.750  20.458  0.00  0.00    +0.000 A 
ENDBRANCH   9  10
ENDBRANCH   8   9
ENDBRANCH   6   8
ENDBRANCH   1   6
BRANCH   4  16
ATOM     16  C   UNL     1       8.194   7.864  18.226  0.00  0.00    +0.000 C 
BRANCH  16  17
ATOM     17  C   UNL     1       8.570   9.310  18.462  0.00  0.00    +0.000 A 
ATOM     18  C   UNL     1       9.366   9.649  19.566  0.00  0.00    +0.000 A 
ATOM     19  C   UNL     1       9.682  10.978  19.867  0.00  0.00    +0.000 A 
ATOM     20  C   UNL     1       9.182  11.964  19.008  0.00  0.00    +0.000 A 
ATOM     21  C   UNL     1       8.431  11.661  17.878  0.00  0.00    +0.000 A 
ATOM     22  C   UNL     1       8.164  12.914  17.284  0.00  0.00    +0.000 A 
ATOM     23  N   UNL     1       8.663  13.937  17.982  0.00  0.00    +0.000 NA
ATOM     24  N   UNL     1       9.262  13.335  19.031  0.00  0.00    +0.000 N 
ATOM     25  C   UNL     1       9.856  14.139  20.072  0.00  0.00    +0.000 C 
ATOM     26  C   UNL     1       8.119  10.318  17.592  0.00  0.00    +0.000 A 
ENDBRANCH  16  17
ENDBRANCH   4  16
TORSDOF 6
ENDMDL
