MODEL 1
REMARK VINA RESULT:      -7.4      0.000      0.000
REMARK  Name = 
REMARK  4 active torsions:
REMARK  status: ('A' for Active; 'I' for Inactive)
REMARK    1  A    between atoms: C_1  and  O_2
REMARK    2  A    between atoms: O_2  and  C_3
REMARK    3  A    between atoms: C_3  and  C_5
REMARK    4  A    between atoms: N_7  and  C_8
REMARK                            x       y       z     vdW  Elec       q    Type
REMARK                         _______ _______ _______ _____ _____    ______ ____
ROOT
ATOM      1  C   UNL     1       6.436   5.800  17.369  0.00  0.00    +0.000 A 
ATOM      2  N   UNL     1       5.392   5.565  18.116  0.00  0.00    +0.000 NA
ATOM      3  N   UNL     1       4.457   4.663  17.672  0.00  0.00    +0.000 N 
ATOM      4  C   UNL     1       4.596   3.981  16.481  0.00  0.00    +0.000 A 
ATOM      5  C   UNL     1       5.611   4.140  15.627  0.00  0.00    +0.000 A 
ATOM      6  C   UNL     1       6.615   5.133  16.027  0.00  0.00    +0.000 A 
ATOM      7  O   UNL     1       7.537   5.434  15.283  0.00  0.00    +0.000 OA
ENDROOT
BRANCH   3   8
ATOM      8  C   UNL     1       3.337   4.496  18.546  0.00  0.00    +0.000 A 
ATOM      9  C   UNL     1       3.298   5.163  19.786  0.00  0.00    +0.000 A 
ATOM     10  C   UNL     1       2.214   5.026  20.656  0.00  0.00    +0.000 A 
ATOM     11  C   UNL     1       1.151   4.198  20.311  0.00  0.00    +0.000 A 
ATOM     12  C   UNL     1       1.169   3.513  19.098  0.00  0.00    +0.000 A 
ATOM     13  C   UNL     1       2.251   3.666  18.222  0.00  0.00    +0.000 A 
ENDBRANCH   3   8
BRANCH   1  14
ATOM     14  C   UNL     1       7.474   6.763  17.914  0.00  0.00    +0.000 C 
ATOM     15  O   UNL     1       8.148   6.520  18.897  0.00  0.00    +0.000 OA
BRANCH  14  17
ATOM     16  C   UNL     1       8.039   9.024  17.863  0.00  0.00    +0.000 C 
ATOM     17  O   UNL     1       7.473   7.901  17.186  0.00  0.00    +0.000 OA
ENDBRANCH  14  17
ENDBRANCH   1  14
TORSDOF 3
ENDMDL
MODEL 2
REMARK VINA RESULT:      -7.4      0.126      1.167
REMARK  Name = 
REMARK  4 active torsions:
REMARK  status: ('A' for Active; 'I' for Inactive)
REMARK    1  A    between atoms: C_1  and  O_2
REMARK    2  A    between atoms: O_2  and  C_3
REMARK    3  A    between atoms: C_3  and  C_5
REMARK    4  A    between atoms: N_7  and  C_8
REMARK                            x       y       z     vdW  Elec       q    Type
REMARK                         _______ _______ _______ _____ _____    ______ ____
ROOT
ATOM      1  C   UNL     1       6.434   5.883  17.344  0.00  0.00    +0.000 A 
ATOM      2  N   UNL     1       5.397   5.648  18.101  0.00  0.00    +0.000 NA
ATOM      3  N   UNL     1       4.455   4.750  17.662  0.00  0.00    +0.000 N 
ATOM      4  C   UNL     1       4.580   4.072  16.467  0.00  0.00    +0.000 A 
ATOM      5  C   UNL     1       5.587   4.232  15.604  0.00  0.00    +0.000 A 
ATOM      6  C   UNL     1       6.598   5.221  15.998  0.00  0.00    +0.000 A 
ATOM      7  O   UNL     1       7.512   5.522  15.245  0.00  0.00    +0.000 OA
ENDROOT
BRANCH   3   8
ATOM      8  C   UNL     1       3.343   4.583  18.547  0.00  0.00    +0.000 A 
ATOM      9  C   UNL     1       2.362   3.610  18.279  0.00  0.00    +0.000 A 
ATOM     10  C   UNL     1       1.271   3.419  19.129  0.00  0.00    +0.000 A 
ATOM     11  C   UNL     1       1.127   4.214  20.261  0.00  0.00    +0.000 A 
ATOM     12  C   UNL     1       2.075   5.196  20.544  0.00  0.00    +0.000 A 
ATOM     13  C   UNL     1       3.175   5.374  19.696  0.00  0.00    +0.000 A 
ENDBRANCH   3   8
BRANCH   1  14
ATOM     14  C   UNL     1       7.480   6.841  17.882  0.00  0.00    +0.000 C 
ATOM     15  O   UNL     1       8.179   6.583  18.844  0.00  0.00    +0.000 OA
BRANCH  14  17
ATOM     16  C   UNL     1       8.087   9.091  17.836  0.00  0.00    +0.000 C 
ATOM     17  O   UNL     1       7.456   7.992  17.176  0.00  0.00    +0.000 OA
ENDBRANCH  14  17
ENDBRANCH   1  14
TORSDOF 3
ENDMDL
MODEL 3
REMARK VINA RESULT:      -7.2      1.549      2.515
REMARK  Name = 
REMARK  4 active torsions:
REMARK  status: ('A' for Active; 'I' for Inactive)
REMARK    1  A    between atoms: C_1  and  O_2
REMARK    2  A    between atoms: O_2  and  C_3
REMARK    3  A    between atoms: C_3  and  C_5
REMARK    4  A    between atoms: N_7  and  C_8
REMARK                            x       y       z     vdW  Elec       q    Type
REMARK                         _______ _______ _______ _____ _____    ______ ____
ROOT
ATOM      1  C   UNL     1       5.956   5.398  17.562  0.00  0.00    +0.000 A 
ATOM      2  N   UNL     1       4.982   4.718  18.104  0.00  0.00    +0.000 NA
ATOM      3  N   UNL     1       3.736   5.292  18.167  0.00  0.00    +0.000 N 
ATOM      4  C   UNL     1       3.474   6.546  17.655  0.00  0.00    +0.000 A 
ATOM      5  C   UNL     1       4.385   7.341  17.086  0.00  0.00    +0.000 A 
ATOM      6  C   UNL     1       5.748   6.798  17.040  0.00  0.00    +0.000 A 
ATOM      7  O   UNL     1       6.682   7.472  16.632  0.00  0.00    +0.000 OA
ENDROOT
BRANCH   3   8
ATOM      8  C   UNL     1       2.745   4.481  18.804  0.00  0.00    +0.000 A 
ATOM      9  C   UNL     1       2.031   3.520  18.063  0.00  0.00    +0.000 A 
ATOM     10  C   UNL     1       1.063   2.708  18.660  0.00  0.00    +0.000 A 
ATOM     11  C   UNL     1       0.775   2.856  20.013  0.00  0.00    +0.000 A 
ATOM     12  C   UNL     1       1.455   3.809  20.768  0.00  0.00    +0.000 A 
ATOM     13  C   UNL     1       2.435   4.610  20.168  0.00  0.00    +0.000 A 
ENDBRANCH   3   8
BRANCH   1  14
ATOM     14  C   UNL     1       7.306   4.714  17.463  0.00  0.00    +0.000 C 
ATOM     15  O   UNL     1       7.795   4.367  16.404  0.00  0.00    +0.000 OA
BRANCH  14  17
ATOM     16  C   UNL     1       8.060   5.720  19.426  0.00  0.00    +0.000 C 
ATOM     17  O   UNL     1       7.813   4.515  18.700  0.00  0.00    +0.000 OA
ENDBRANCH  14  17
ENDBRANCH   1  14
TORSDOF 3
ENDMDL
MODEL 4
REMARK VINA RESULT:      -7.2      1.550      2.249
REMARK  Name = 
REMARK  4 active torsions:
REMARK  status: ('A' for Active; 'I' for Inactive)
REMARK    1  A    between atoms: C_1  and  O_2
REMARK    2  A    between atoms: O_2  and  C_3
REMARK    3  A    between atoms: C_3  and  C_5
REMARK    4  A    between atoms: N_7  and  C_8
REMARK                            x       y       z     vdW  Elec       q    Type
REMARK                         _______ _______ _______ _____ _____    ______ ____
ROOT
ATOM      1  C   UNL     1       5.942   5.401  17.576  0.00  0.00    +0.000 A 
ATOM      2  N   UNL     1       4.974   4.714  18.119  0.00  0.00    +0.000 NA
ATOM      3  N   UNL     1       3.726   5.282  18.188  0.00  0.00    +0.000 N 
ATOM      4  C   UNL     1       3.456   6.536  17.681  0.00  0.00    +0.000 A 
ATOM      5  C   UNL     1       4.360   7.338  17.112  0.00  0.00    +0.000 A 
ATOM      6  C   UNL     1       5.726   6.802  17.059  0.00  0.00    +0.000 A 
ATOM      7  O   UNL     1       6.655   7.482  16.650  0.00  0.00    +0.000 OA
ENDROOT
BRANCH   3   8
ATOM      8  C   UNL     1       2.741   4.464  18.826  0.00  0.00    +0.000 A 
ATOM      9  C   UNL     1       2.474   4.614  20.201  0.00  0.00    +0.000 A 
ATOM     10  C   UNL     1       1.513   3.835  20.848  0.00  0.00    +0.000 A 
ATOM     11  C   UNL     1       0.808   2.871  20.135  0.00  0.00    +0.000 A 
ATOM     12  C   UNL     1       1.061   2.690  18.777  0.00  0.00    +0.000 A 
ATOM     13  C   UNL     1       2.016   3.483  18.129  0.00  0.00    +0.000 A 
ENDBRANCH   3   8
BRANCH   1  14
ATOM     14  C   UNL     1       7.295   4.724  17.471  0.00  0.00    +0.000 C 
ATOM     15  O   UNL     1       7.782   4.382  16.409  0.00  0.00    +0.000 OA
BRANCH  14  17
ATOM     16  C   UNL     1       8.061   5.732  19.428  0.00  0.00    +0.000 C 
ATOM     17  O   UNL     1       7.809   4.526  18.705  0.00  0.00    +0.000 OA
ENDBRANCH  14  17
ENDBRANCH   1  14
TORSDOF 3
ENDMDL
MODEL 5
REMARK VINA RESULT:      -7.2      1.718      2.381
REMARK  Name = 
REMARK  4 active torsions:
REMARK  status: ('A' for Active; 'I' for Inactive)
REMARK    1  A    between atoms: C_1  and  O_2
REMARK    2  A    between atoms: O_2  and  C_3
REMARK    3  A    between atoms: C_3  and  C_5
REMARK    4  A    between atoms: N_7  and  C_8
REMARK                            x       y       z     vdW  Elec       q    Type
REMARK                         _______ _______ _______ _____ _____    ______ ____
ROOT
ATOM      1  C   UNL     1       6.036   5.218  17.742  0.00  0.00    +0.000 A 
ATOM      2  N   UNL     1       5.189   4.577  18.500  0.00  0.00    +0.000 NA
ATOM      3  N   UNL     1       3.904   5.051  18.594  0.00  0.00    +0.000 N 
ATOM      4  C   UNL     1       3.473   6.160  17.895  0.00  0.00    +0.000 A 
ATOM      5  C   UNL     1       4.244   6.904  17.097  0.00  0.00    +0.000 A 
ATOM      6  C   UNL     1       5.644   6.473  17.002  0.00  0.00    +0.000 A 
ATOM      7  O   UNL     1       6.465   7.130  16.379  0.00  0.00    +0.000 OA
ENDROOT
BRANCH   3   8
ATOM      8  C   UNL     1       3.060   4.299  19.470  0.00  0.00    +0.000 A 
ATOM      9  C   UNL     1       1.687   4.596  19.563  0.00  0.00    +0.000 A 
ATOM     10  C   UNL     1       0.838   3.873  20.404  0.00  0.00    +0.000 A 
ATOM     11  C   UNL     1       1.352   2.846  21.188  0.00  0.00    +0.000 A 
ATOM     12  C   UNL     1       2.709   2.539  21.129  0.00  0.00    +0.000 A 
ATOM     13  C   UNL     1       3.554   3.257  20.273  0.00  0.00    +0.000 A 
ENDBRANCH   3   8
BRANCH   1  14
ATOM     14  C   UNL     1       7.433   4.638  17.623  0.00  0.00    +0.000 C 
ATOM     15  O   UNL     1       7.884   4.213  16.576  0.00  0.00    +0.000 OA
BRANCH  14  17
ATOM     16  C   UNL     1       8.135   5.914  19.444  0.00  0.00    +0.000 C 
ATOM     17  O   UNL     1       8.031   4.626  18.834  0.00  0.00    +0.000 OA
ENDBRANCH  14  17
ENDBRANCH   1  14
TORSDOF 3
ENDMDL
MODEL 6
REMARK VINA RESULT:      -7.2      1.656      2.963
REMARK  Name = 
REMARK  4 active torsions:
REMARK  status: ('A' for Active; 'I' for Inactive)
REMARK    1  A    between atoms: C_1  and  O_2
REMARK    2  A    between atoms: O_2  and  C_3
REMARK    3  A    between atoms: C_3  and  C_5
REMARK    4  A    between atoms: N_7  and  C_8
REMARK                            x       y       z     vdW  Elec       q    Type
REMARK                         _______ _______ _______ _____ _____    ______ ____
ROOT
ATOM      1  C   UNL     1       5.575   5.105  17.063  0.00  0.00    +0.000 A 
ATOM      2  N   UNL     1       4.648   4.439  17.695  0.00  0.00    +0.000 NA
ATOM      3  N   UNL     1       3.565   5.126  18.186  0.00  0.00    +0.000 N 
ATOM      4  C   UNL     1       3.411   6.485  18.010  0.00  0.00    +0.000 A 
ATOM      5  C   UNL     1       4.292   7.277  17.390  0.00  0.00    +0.000 A 
ATOM      6  C   UNL     1       5.497   6.603  16.892  0.00  0.00    +0.000 A 
ATOM      7  O   UNL     1       6.415   7.238  16.395  0.00  0.00    +0.000 OA
ENDROOT
BRANCH   3   8
ATOM      8  C   UNL     1       2.620   4.313  18.887  0.00  0.00    +0.000 A 
ATOM      9  C   UNL     1       1.818   3.391  18.187  0.00  0.00    +0.000 A 
ATOM     10  C   UNL     1       0.893   2.579  18.847  0.00  0.00    +0.000 A 
ATOM     11  C   UNL     1       0.736   2.686  20.224  0.00  0.00    +0.000 A 
ATOM     12  C   UNL     1       1.505   3.600  20.942  0.00  0.00    +0.000 A 
ATOM     13  C   UNL     1       2.442   4.402  20.278  0.00  0.00    +0.000 A 
ENDBRANCH   3   8
BRANCH   1  14
ATOM     14  C   UNL     1       6.732   4.308  16.491  0.00  0.00    +0.000 C 
ATOM     15  O   UNL     1       7.871   4.404  16.909  0.00  0.00    +0.000 OA
BRANCH  14  17
ATOM     16  C   UNL     1       6.411   4.206  14.184  0.00  0.00    +0.000 C 
ATOM     17  O   UNL     1       6.305   3.557  15.453  0.00  0.00    +0.000 OA
ENDBRANCH  14  17
ENDBRANCH   1  14
TORSDOF 3
ENDMDL
MODEL 7
REMARK VINA RESULT:      -7.2      1.720      2.768
REMARK  Name = 
REMARK  4 active torsions:
REMARK  status: ('A' for Active; 'I' for Inactive)
REMARK    1  A    between atoms: C_1  and  O_2
REMARK    2  A    between atoms: O_2  and  C_3
REMARK    3  A    between atoms: C_3  and  C_5
REMARK    4  A    between atoms: N_7  and  C_8
REMARK                            x       y       z     vdW  Elec       q    Type
REMARK                         _______ _______ _______ _____ _____    ______ ____
ROOT
ATOM      1  C   UNL     1       5.504   5.084  17.102  0.00  0.00    +0.000 A 
ATOM      2  N   UNL     1       4.645   4.435  17.839  0.00  0.00    +0.000 NA
ATOM      3  N   UNL     1       3.574   5.121  18.356  0.00  0.00    +0.000 N 
ATOM      4  C   UNL     1       3.362   6.460  18.102  0.00  0.00    +0.000 A 
ATOM      5  C   UNL     1       4.171   7.234  17.372  0.00  0.00    +0.000 A 
ATOM      6  C   UNL     1       5.363   6.563  16.838  0.00  0.00    +0.000 A 
ATOM      7  O   UNL     1       6.223   7.190  16.238  0.00  0.00    +0.000 OA
ENDROOT
BRANCH   3   8
ATOM      8  C   UNL     1       2.706   4.330  19.173  0.00  0.00    +0.000 A 
ATOM      9  C   UNL     1       2.826   4.362  20.576  0.00  0.00    +0.000 A 
ATOM     10  C   UNL     1       1.988   3.607  21.399  0.00  0.00    +0.000 A 
ATOM     11  C   UNL     1       1.020   2.785  20.832  0.00  0.00    +0.000 A 
ATOM     12  C   UNL     1       0.887   2.721  19.447  0.00  0.00    +0.000 A 
ATOM     13  C   UNL     1       1.720   3.491  18.626  0.00  0.00    +0.000 A 
ENDBRANCH   3   8
BRANCH   1  14
ATOM     14  C   UNL     1       6.647   4.285  16.506  0.00  0.00    +0.000 C 
ATOM     15  O   UNL     1       7.800   4.401  16.879  0.00  0.00    +0.000 OA
BRANCH  14  17
ATOM     16  C   UNL     1       6.342   4.083  14.204  0.00  0.00    +0.000 C 
ATOM     17  O   UNL     1       6.190   3.506  15.502  0.00  0.00    +0.000 OA
ENDBRANCH  14  17
ENDBRANCH   1  14
TORSDOF 3
ENDMDL
MODEL 8
REMARK VINA RESULT:      -7.1      1.594      2.645
REMARK  Name = 
REMARK  4 active torsions:
REMARK  status: ('A' for Active; 'I' for Inactive)
REMARK    1  A    between atoms: C_1  and  O_2
REMARK    2  A    between atoms: O_2  and  C_3
REMARK    3  A    between atoms: C_3  and  C_5
REMARK    4  A    between atoms: N_7  and  C_8
REMARK                            x       y       z     vdW  Elec       q    Type
REMARK                         _______ _______ _______ _____ _____    ______ ____
ROOT
ATOM      1  C   UNL     1       5.956   5.316  17.626  0.00  0.00    +0.000 A 
ATOM      2  N   UNL     1       5.123   4.640  18.370  0.00  0.00    +0.000 NA
ATOM      3  N   UNL     1       3.889   5.183  18.633  0.00  0.00    +0.000 N 
ATOM      4  C   UNL     1       3.493   6.399  18.117  0.00  0.00    +0.000 A 
ATOM      5  C   UNL     1       4.254   7.187  17.352  0.00  0.00    +0.000 A 
ATOM      6  C   UNL     1       5.605   6.680  17.084  0.00  0.00    +0.000 A 
ATOM      7  O   UNL     1       6.424   7.355  16.478  0.00  0.00    +0.000 OA
ENDROOT
BRANCH   3   8
ATOM      8  C   UNL     1       3.061   4.381  19.480  0.00  0.00    +0.000 A 
ATOM      9  C   UNL     1       1.693   4.682  19.626  0.00  0.00    +0.000 A 
ATOM     10  C   UNL     1       0.859   3.912  20.440  0.00  0.00    +0.000 A 
ATOM     11  C   UNL     1       1.382   2.832  21.143  0.00  0.00    +0.000 A 
ATOM     12  C   UNL     1       2.735   2.520  21.029  0.00  0.00    +0.000 A 
ATOM     13  C   UNL     1       3.565   3.285  20.201  0.00  0.00    +0.000 A 
ENDBRANCH   3   8
BRANCH   1  14
ATOM     14  C   UNL     1       7.290   4.664  17.315  0.00  0.00    +0.000 C 
ATOM     15  O   UNL     1       8.077   4.326  18.179  0.00  0.00    +0.000 OA
BRANCH  14  17
ATOM     16  C   UNL     1       6.461   3.820  15.307  0.00  0.00    +0.000 C 
ATOM     17  O   UNL     1       7.463   4.585  15.978  0.00  0.00    +0.000 OA
ENDBRANCH  14  17
ENDBRANCH   1  14
TORSDOF 3
ENDMDL
MODEL 9
REMARK VINA RESULT:      -7.0      1.415      1.676
REMARK  Name = 
REMARK  4 active torsions:
REMARK  status: ('A' for Active; 'I' for Inactive)
REMARK    1  A    between atoms: C_1  and  O_2
REMARK    2  A    between atoms: O_2  and  C_3
REMARK    3  A    between atoms: C_3  and  C_5
REMARK    4  A    between atoms: N_7  and  C_8
REMARK                            x       y       z     vdW  Elec       q    Type
REMARK                         _______ _______ _______ _____ _____    ______ ____
ROOT
ATOM      1  C   UNL     1       6.222   4.575  17.659  0.00  0.00    +0.000 A 
ATOM      2  N   UNL     1       5.327   4.280  18.562  0.00  0.00    +0.000 NA
ATOM      3  N   UNL     1       4.055   3.972  18.149  0.00  0.00    +0.000 N 
ATOM      4  C   UNL     1       3.699   3.938  16.816  0.00  0.00    +0.000 A 
ATOM      5  C   UNL     1       4.519   4.228  15.802  0.00  0.00    +0.000 A 
ATOM      6  C   UNL     1       5.880   4.616  16.190  0.00  0.00    +0.000 A 
ATOM      7  O   UNL     1       6.689   4.996  15.356  0.00  0.00    +0.000 OA
ENDROOT
BRANCH   3   8
ATOM      8  C   UNL     1       3.141   3.692  19.213  0.00  0.00    +0.000 A 
ATOM      9  C   UNL     1       3.525   2.853  20.277  0.00  0.00    +0.000 A 
ATOM     10  C   UNL     1       2.657   2.569  21.333  0.00  0.00    +0.000 A 
ATOM     11  C   UNL     1       1.373   3.105  21.338  0.00  0.00    +0.000 A 
ATOM     12  C   UNL     1       0.961   3.927  20.291  0.00  0.00    +0.000 A 
ATOM     13  C   UNL     1       1.839   4.221  19.241  0.00  0.00    +0.000 A 
ENDBRANCH   3   8
BRANCH   1  14
ATOM     14  C   UNL     1       7.629   4.861  18.147  0.00  0.00    +0.000 C 
ATOM     15  O   UNL     1       8.568   4.117  17.930  0.00  0.00    +0.000 OA
BRANCH  14  17
ATOM     16  C   UNL     1       7.936   7.172  18.119  0.00  0.00    +0.000 C 
ATOM     17  O   UNL     1       7.642   5.997  18.877  0.00  0.00    +0.000 OA
ENDBRANCH  14  17
ENDBRANCH   1  14
TORSDOF 3
ENDMDL
