MODEL 1
REMARK VINA RESULT:      -8.3      0.000      0.000
REMARK  Name = 
REMARK  3 active torsions:
REMARK  status: ('A' for Active; 'I' for Inactive)
REMARK    1  A    between atoms: C_1  and  C_2
REMARK    2  A    between atoms: C_2  and  C_3
REMARK    3  A    between atoms: C_3  and  C_4
REMARK                            x       y       z     vdW  Elec       q    Type
REMARK                         _______ _______ _______ _____ _____    ______ ____
ROOT
ATOM      1  C   UNL     1       3.689   4.355  18.592  0.00  0.00    +0.000 C 
ATOM      2  C   UNL     1       2.567   4.483  17.519  0.00  0.00    +0.000 C 
ATOM      3  C   UNL     1       1.199   4.024  17.981  0.00  0.00    +0.000 C 
ATOM      4  C   UNL     1       1.256   2.599  18.443  0.00  0.00    +0.000 C 
ATOM      5  O   UNL     1       0.256   1.896  18.534  0.00  0.00    +0.000 OA
ATOM      6  N   UNL     1       2.477   2.162  18.869  0.00  0.00    +0.000 N 
ATOM      7  C   UNL     1       3.509   2.968  19.288  0.00  0.00    +0.000 C 
ATOM      8  O   UNL     1       4.164   2.597  20.255  0.00  0.00    +0.000 OA
ATOM      9  H   UNL     1       2.429   1.276  19.365  0.00  0.00    +0.000 HD
ENDROOT
BRANCH   1  10
ATOM     10  C   UNL     1       5.078   4.531  17.908  0.00  0.00    +0.000 A 
ATOM     11  C   UNL     1       5.362   4.185  16.578  0.00  0.00    +0.000 A 
ATOM     12  F   UNL     1       4.431   3.698  15.753  0.00  0.00    +0.000 F 
ATOM     13  C   UNL     1       6.648   4.352  16.051  0.00  0.00    +0.000 A 
ATOM     14  F   UNL     1       6.870   4.005  14.776  0.00  0.00    +0.000 F 
ATOM     15  N   UNL     1       7.699   4.846  16.733  0.00  0.00    +0.000 NA
ATOM     16  C   UNL     1       7.437   5.180  18.006  0.00  0.00    +0.000 A 
ATOM     17  F   UNL     1       8.441   5.696  18.729  0.00  0.00    +0.000 F 
ATOM     18  C   UNL     1       6.191   5.033  18.614  0.00  0.00    +0.000 A 
ATOM     19  F   UNL     1       6.103   5.382  19.904  0.00  0.00    +0.000 F 
ENDBRANCH   1  10
BRANCH   1  21
ATOM     20  C   UNL     1       2.841   6.731  19.350  0.00  0.00    +0.000 C 
ATOM     21  C   UNL     1       3.503   5.411  19.734  0.00  0.00    +0.000 C 
ENDBRANCH   1  21
TORSDOF 2
ENDMDL
MODEL 2
REMARK VINA RESULT:      -8.2      1.608      2.374
REMARK  Name = 
REMARK  3 active torsions:
REMARK  status: ('A' for Active; 'I' for Inactive)
REMARK    1  A    between atoms: C_1  and  C_2
REMARK    2  A    between atoms: C_2  and  C_3
REMARK    3  A    between atoms: C_3  and  C_4
REMARK                            x       y       z     vdW  Elec       q    Type
REMARK                         _______ _______ _______ _____ _____    ______ ____
ROOT
ATOM      1  C   UNL     1       3.880   4.252  18.348  0.00  0.00    +0.000 C 
ATOM      2  C   UNL     1       4.294   3.034  19.228  0.00  0.00    +0.000 C 
ATOM      3  C   UNL     1       3.220   2.553  20.182  0.00  0.00    +0.000 C 
ATOM      4  C   UNL     1       2.789   3.668  21.087  0.00  0.00    +0.000 C 
ATOM      5  O   UNL     1       2.208   3.469  22.147  0.00  0.00    +0.000 OA
ATOM      6  N   UNL     1       2.979   4.931  20.604  0.00  0.00    +0.000 N 
ATOM      7  C   UNL     1       3.132   5.261  19.277  0.00  0.00    +0.000 C 
ATOM      8  O   UNL     1       2.580   6.280  18.878  0.00  0.00    +0.000 OA
ATOM      9  H   UNL     1       2.488   5.639  21.143  0.00  0.00    +0.000 HD
ENDROOT
BRANCH   1  10
ATOM     10  C   UNL     1       5.148   4.854  17.673  0.00  0.00    +0.000 A 
ATOM     11  C   UNL     1       5.443   4.762  16.304  0.00  0.00    +0.000 A 
ATOM     12  F   UNL     1       4.622   4.167  15.435  0.00  0.00    +0.000 F 
ATOM     13  C   UNL     1       6.622   5.310  15.785  0.00  0.00    +0.000 A 
ATOM     14  F   UNL     1       6.861   5.195  14.471  0.00  0.00    +0.000 F 
ATOM     15  N   UNL     1       7.552   5.960  16.512  0.00  0.00    +0.000 NA
ATOM     16  C   UNL     1       7.278   6.053  17.821  0.00  0.00    +0.000 A 
ATOM     17  F   UNL     1       8.158   6.708  18.592  0.00  0.00    +0.000 F 
ATOM     18  C   UNL     1       6.137   5.524  18.424  0.00  0.00    +0.000 A 
ATOM     19  F   UNL     1       6.029   5.673  19.749  0.00  0.00    +0.000 F 
ENDBRANCH   1  10
BRANCH   1  21
ATOM     20  C   UNL     1       1.361   3.845  17.692  0.00  0.00    +0.000 C 
ATOM     21  C   UNL     1       2.827   3.836  17.267  0.00  0.00    +0.000 C 
ENDBRANCH   1  21
TORSDOF 2
ENDMDL
MODEL 3
REMARK VINA RESULT:      -8.2      1.601      3.307
REMARK  Name = 
REMARK  3 active torsions:
REMARK  status: ('A' for Active; 'I' for Inactive)
REMARK    1  A    between atoms: C_1  and  C_2
REMARK    2  A    between atoms: C_2  and  C_3
REMARK    3  A    between atoms: C_3  and  C_4
REMARK                            x       y       z     vdW  Elec       q    Type
REMARK                         _______ _______ _______ _____ _____    ______ ____
ROOT
ATOM      1  C   UNL     1       3.878   4.257  18.383  0.00  0.00    +0.000 C 
ATOM      2  C   UNL     1       4.254   2.996  19.218  0.00  0.00    +0.000 C 
ATOM      3  C   UNL     1       3.161   2.507  20.146  0.00  0.00    +0.000 C 
ATOM      4  C   UNL     1       2.751   3.598  21.089  0.00  0.00    +0.000 C 
ATOM      5  O   UNL     1       2.157   3.373  22.137  0.00  0.00    +0.000 OA
ATOM      6  N   UNL     1       2.977   4.872  20.657  0.00  0.00    +0.000 N 
ATOM      7  C   UNL     1       3.149   5.249  19.345  0.00  0.00    +0.000 C 
ATOM      8  O   UNL     1       2.627   6.296  18.981  0.00  0.00    +0.000 OA
ATOM      9  H   UNL     1       2.501   5.573  21.219  0.00  0.00    +0.000 HD
ENDROOT
BRANCH   1  10
ATOM     10  C   UNL     1       5.168   4.851  17.740  0.00  0.00    +0.000 A 
ATOM     11  C   UNL     1       6.167   5.539  18.445  0.00  0.00    +0.000 A 
ATOM     12  F   UNL     1       6.115   5.715  19.768  0.00  0.00    +0.000 F 
ATOM     13  C   UNL     1       7.282   6.064  17.781  0.00  0.00    +0.000 A 
ATOM     14  F   UNL     1       8.209   6.715  18.498  0.00  0.00    +0.000 F 
ATOM     15  N   UNL     1       7.506   5.963  16.457  0.00  0.00    +0.000 NA
ATOM     16  C   UNL     1       6.555   5.306  15.775  0.00  0.00    +0.000 A 
ATOM     17  F   UNL     1       6.734   5.156  14.454  0.00  0.00    +0.000 F 
ATOM     18  C   UNL     1       5.407   4.765  16.352  0.00  0.00    +0.000 A 
ATOM     19  F   UNL     1       4.538   4.169  15.527  0.00  0.00    +0.000 F 
ENDBRANCH   1  10
BRANCH   1  21
ATOM     20  C   UNL     1       1.354   4.030  17.669  0.00  0.00    +0.000 C 
ATOM     21  C   UNL     1       2.824   3.911  17.279  0.00  0.00    +0.000 C 
ENDBRANCH   1  21
TORSDOF 2
ENDMDL
MODEL 4
REMARK VINA RESULT:      -8.2      0.130      2.336
REMARK  Name = 
REMARK  3 active torsions:
REMARK  status: ('A' for Active; 'I' for Inactive)
REMARK    1  A    between atoms: C_1  and  C_2
REMARK    2  A    between atoms: C_2  and  C_3
REMARK    3  A    between atoms: C_3  and  C_4
REMARK                            x       y       z     vdW  Elec       q    Type
REMARK                         _______ _______ _______ _____ _____    ______ ____
ROOT
ATOM      1  C   UNL     1       3.649   4.362  18.641  0.00  0.00    +0.000 C 
ATOM      2  C   UNL     1       2.553   4.411  17.535  0.00  0.00    +0.000 C 
ATOM      3  C   UNL     1       1.179   3.966  17.990  0.00  0.00    +0.000 C 
ATOM      4  C   UNL     1       1.238   2.572  18.539  0.00  0.00    +0.000 C 
ATOM      5  O   UNL     1       0.244   1.864  18.649  0.00  0.00    +0.000 OA
ATOM      6  N   UNL     1       2.452   2.176  19.021  0.00  0.00    +0.000 N 
ATOM      7  C   UNL     1       3.466   3.018  19.415  0.00  0.00    +0.000 C 
ATOM      8  O   UNL     1       4.100   2.714  20.419  0.00  0.00    +0.000 OA
ATOM      9  H   UNL     1       2.401   1.321  19.569  0.00  0.00    +0.000 HD
ENDROOT
BRANCH   1  10
ATOM     10  C   UNL     1       5.053   4.512  17.981  0.00  0.00    +0.000 A 
ATOM     11  C   UNL     1       6.182   5.049  18.619  0.00  0.00    +0.000 A 
ATOM     12  F   UNL     1       6.157   5.456  19.890  0.00  0.00    +0.000 F 
ATOM     13  C   UNL     1       7.400   5.171  17.940  0.00  0.00    +0.000 A 
ATOM     14  F   UNL     1       8.448   5.693  18.591  0.00  0.00    +0.000 F 
ATOM     15  N   UNL     1       7.609   4.795  16.663  0.00  0.00    +0.000 NA
ATOM     16  C   UNL     1       6.536   4.279  16.047  0.00  0.00    +0.000 A 
ATOM     17  F   UNL     1       6.689   3.868  14.779  0.00  0.00    +0.000 F 
ATOM     18  C   UNL     1       5.283   4.136  16.641  0.00  0.00    +0.000 A 
ATOM     19  F   UNL     1       4.305   3.634  15.877  0.00  0.00    +0.000 F 
ENDBRANCH   1  10
BRANCH   1  21
ATOM     20  C   UNL     1       2.859   6.810  19.210  0.00  0.00    +0.000 C 
ATOM     21  C   UNL     1       3.424   5.483  19.710  0.00  0.00    +0.000 C 
ENDBRANCH   1  21
TORSDOF 2
ENDMDL
MODEL 5
REMARK VINA RESULT:      -7.9      2.820      5.314
REMARK  Name = 
REMARK  3 active torsions:
REMARK  status: ('A' for Active; 'I' for Inactive)
REMARK    1  A    between atoms: C_1  and  C_2
REMARK    2  A    between atoms: C_2  and  C_3
REMARK    3  A    between atoms: C_3  and  C_4
REMARK                            x       y       z     vdW  Elec       q    Type
REMARK                         _______ _______ _______ _____ _____    ______ ____
ROOT
ATOM      1  C   UNL     1       4.422   4.817  17.492  0.00  0.00    +0.000 C 
ATOM      2  C   UNL     1       4.200   6.197  16.804  0.00  0.00    +0.000 C 
ATOM      3  C   UNL     1       5.447   6.803  16.194  0.00  0.00    +0.000 C 
ATOM      4  C   UNL     1       6.515   6.957  17.235  0.00  0.00    +0.000 C 
ATOM      5  O   UNL     1       7.466   7.717  17.096  0.00  0.00    +0.000 OA
ATOM      6  N   UNL     1       6.428   6.111  18.302  0.00  0.00    +0.000 N 
ATOM      7  C   UNL     1       5.743   4.919  18.320  0.00  0.00    +0.000 C 
ATOM      8  O   UNL     1       6.263   3.973  18.899  0.00  0.00    +0.000 OA
ATOM      9  H   UNL     1       7.273   6.100  18.869  0.00  0.00    +0.000 HD
ENDROOT
BRANCH   1  10
ATOM     10  C   UNL     1       3.174   4.467  18.357  0.00  0.00    +0.000 A 
ATOM     11  C   UNL     1       2.288   3.411  18.089  0.00  0.00    +0.000 A 
ATOM     12  F   UNL     1       2.465   2.573  17.065  0.00  0.00    +0.000 F 
ATOM     13  C   UNL     1       1.174   3.185  18.906  0.00  0.00    +0.000 A 
ATOM     14  F   UNL     1       0.356   2.165  18.608  0.00  0.00    +0.000 F 
ATOM     15  N   UNL     1       0.853   3.919  19.989  0.00  0.00    +0.000 NA
ATOM     16  C   UNL     1       1.695   4.929  20.252  0.00  0.00    +0.000 A 
ATOM     17  F   UNL     1       1.437   5.683  21.331  0.00  0.00    +0.000 F 
ATOM     18  C   UNL     1       2.817   5.235  19.485  0.00  0.00    +0.000 A 
ATOM     19  F   UNL     1       3.537   6.299  19.863  0.00  0.00    +0.000 F 
ENDBRANCH   1  10
BRANCH   1  21
ATOM     20  C   UNL     1       5.960   3.823  15.599  0.00  0.00    +0.000 C 
ATOM     21  C   UNL     1       4.690   3.694  16.435  0.00  0.00    +0.000 C 
ENDBRANCH   1  21
TORSDOF 2
ENDMDL
MODEL 6
REMARK VINA RESULT:      -7.8      2.843      5.742
REMARK  Name = 
REMARK  3 active torsions:
REMARK  status: ('A' for Active; 'I' for Inactive)
REMARK    1  A    between atoms: C_1  and  C_2
REMARK    2  A    between atoms: C_2  and  C_3
REMARK    3  A    between atoms: C_3  and  C_4
REMARK                            x       y       z     vdW  Elec       q    Type
REMARK                         _______ _______ _______ _____ _____    ______ ____
ROOT
ATOM      1  C   UNL     1       4.415   4.834  17.520  0.00  0.00    +0.000 C 
ATOM      2  C   UNL     1       4.230   6.195  16.782  0.00  0.00    +0.000 C 
ATOM      3  C   UNL     1       5.498   6.758  16.174  0.00  0.00    +0.000 C 
ATOM      4  C   UNL     1       6.551   6.927  17.228  0.00  0.00    +0.000 C 
ATOM      5  O   UNL     1       7.518   7.665  17.080  0.00  0.00    +0.000 OA
ATOM      6  N   UNL     1       6.431   6.119  18.321  0.00  0.00    +0.000 N 
ATOM      7  C   UNL     1       5.724   4.940  18.366  0.00  0.00    +0.000 C 
ATOM      8  O   UNL     1       6.216   4.005  18.985  0.00  0.00    +0.000 OA
ATOM      9  H   UNL     1       7.266   6.111  18.902  0.00  0.00    +0.000 HD
ENDROOT
BRANCH   1  10
ATOM     10  C   UNL     1       3.146   4.536  18.374  0.00  0.00    +0.000 A 
ATOM     11  C   UNL     1       2.699   5.328  19.442  0.00  0.00    +0.000 A 
ATOM     12  F   UNL     1       3.318   6.454  19.804  0.00  0.00    +0.000 F 
ATOM     13  C   UNL     1       1.561   4.969  20.174  0.00  0.00    +0.000 A 
ATOM     14  F   UNL     1       1.175   5.756  21.188  0.00  0.00    +0.000 F 
ATOM     15  N   UNL     1       0.805   3.879  19.936  0.00  0.00    +0.000 NA
ATOM     16  C   UNL     1       1.226   3.117  18.915  0.00  0.00    +0.000 A 
ATOM     17  F   UNL     1       0.501   2.028  18.618  0.00  0.00    +0.000 F 
ATOM     18  C   UNL     1       2.355   3.390  18.144  0.00  0.00    +0.000 A 
ATOM     19  F   UNL     1       2.658   2.510  17.183  0.00  0.00    +0.000 F 
ENDBRANCH   1  10
BRANCH   1  21
ATOM     20  C   UNL     1       5.906   3.807  15.607  0.00  0.00    +0.000 C 
ATOM     21  C   UNL     1       4.679   3.672  16.505  0.00  0.00    +0.000 C 
ENDBRANCH   1  21
TORSDOF 2
ENDMDL
MODEL 7
REMARK VINA RESULT:      -7.7      3.121      5.131
REMARK  Name = 
REMARK  3 active torsions:
REMARK  status: ('A' for Active; 'I' for Inactive)
REMARK    1  A    between atoms: C_1  and  C_2
REMARK    2  A    between atoms: C_2  and  C_3
REMARK    3  A    between atoms: C_3  and  C_4
REMARK                            x       y       z     vdW  Elec       q    Type
REMARK                         _______ _______ _______ _____ _____    ______ ____
ROOT
ATOM      1  C   UNL     1       4.301   5.044  18.042  0.00  0.00    +0.000 C 
ATOM      2  C   UNL     1       4.603   5.158  16.518  0.00  0.00    +0.000 C 
ATOM      3  C   UNL     1       5.719   4.258  16.029  0.00  0.00    +0.000 C 
ATOM      4  C   UNL     1       6.983   4.535  16.787  0.00  0.00    +0.000 C 
ATOM      5  O   UNL     1       8.087   4.207  16.369  0.00  0.00    +0.000 OA
ATOM      6  N   UNL     1       6.822   5.073  18.031  0.00  0.00    +0.000 N 
ATOM      7  C   UNL     1       5.674   5.005  18.786  0.00  0.00    +0.000 C 
ATOM      8  O   UNL     1       5.796   4.812  19.990  0.00  0.00    +0.000 OA
ATOM      9  H   UNL     1       7.673   5.048  18.587  0.00  0.00    +0.000 HD
ENDROOT
BRANCH   1  10
ATOM     10  C   UNL     1       3.393   6.234  18.477  0.00  0.00    +0.000 A 
ATOM     11  C   UNL     1       3.210   7.411  17.735  0.00  0.00    +0.000 A 
ATOM     12  F   UNL     1       3.784   7.601  16.545  0.00  0.00    +0.000 F 
ATOM     13  C   UNL     1       2.396   8.443  18.216  0.00  0.00    +0.000 A 
ATOM     14  F   UNL     1       2.255   9.549  17.471  0.00  0.00    +0.000 F 
ATOM     15  N   UNL     1       1.727   8.414  19.384  0.00  0.00    +0.000 NA
ATOM     16  C   UNL     1       1.896   7.292  20.100  0.00  0.00    +0.000 A 
ATOM     17  F   UNL     1       1.238   7.197  21.265  0.00  0.00    +0.000 F 
ATOM     18  C   UNL     1       2.699   6.223  19.705  0.00  0.00    +0.000 A 
ATOM     19  F   UNL     1       2.788   5.189  20.551  0.00  0.00    +0.000 F 
ENDBRANCH   1  10
BRANCH   1  21
ATOM     20  C   UNL     1       2.464   3.242  17.480  0.00  0.00    +0.000 C 
ATOM     21  C   UNL     1       3.615   3.679  18.382  0.00  0.00    +0.000 C 
ENDBRANCH   1  21
TORSDOF 2
ENDMDL
MODEL 8
REMARK VINA RESULT:      -7.7      3.149      5.395
REMARK  Name = 
REMARK  3 active torsions:
REMARK  status: ('A' for Active; 'I' for Inactive)
REMARK    1  A    between atoms: C_1  and  C_2
REMARK    2  A    between atoms: C_2  and  C_3
REMARK    3  A    between atoms: C_3  and  C_4
REMARK                            x       y       z     vdW  Elec       q    Type
REMARK                         _______ _______ _______ _____ _____    ______ ____
ROOT
ATOM      1  C   UNL     1       4.375   5.049  18.139  0.00  0.00    +0.000 C 
ATOM      2  C   UNL     1       4.437   5.049  16.582  0.00  0.00    +0.000 C 
ATOM      3  C   UNL     1       5.547   4.200  15.996  0.00  0.00    +0.000 C 
ATOM      4  C   UNL     1       6.877   4.644  16.526  0.00  0.00    +0.000 C 
ATOM      5  O   UNL     1       7.933   4.369  15.968  0.00  0.00    +0.000 OA
ATOM      6  N   UNL     1       6.853   5.277  17.734  0.00  0.00    +0.000 N 
ATOM      7  C   UNL     1       5.841   5.186  18.661  0.00  0.00    +0.000 C 
ATOM      8  O   UNL     1       6.157   5.112  19.842  0.00  0.00    +0.000 OA
ATOM      9  H   UNL     1       7.776   5.370  18.152  0.00  0.00    +0.000 HD
ENDROOT
BRANCH   1  10
ATOM     10  C   UNL     1       3.436   6.197  18.616  0.00  0.00    +0.000 A 
ATOM     11  C   UNL     1       2.704   6.184  19.813  0.00  0.00    +0.000 A 
ATOM     12  F   UNL     1       2.780   5.176  20.685  0.00  0.00    +0.000 F 
ATOM     13  C   UNL     1       1.862   7.250  20.151  0.00  0.00    +0.000 A 
ATOM     14  F   UNL     1       1.181   7.190  21.304  0.00  0.00    +0.000 F 
ATOM     15  N   UNL     1       1.679   8.354  19.400  0.00  0.00    +0.000 NA
ATOM     16  C   UNL     1       2.376   8.375  18.254  0.00  0.00    +0.000 A 
ATOM     17  F   UNL     1       2.250   9.458  17.474  0.00  0.00    +0.000 F 
ATOM     18  C   UNL     1       3.224   7.352  17.833  0.00  0.00    +0.000 A 
ATOM     19  F   UNL     1       3.821   7.512  16.645  0.00  0.00    +0.000 F 
ENDBRANCH   1  10
BRANCH   1  21
ATOM     20  C   UNL     1       2.715   3.014  17.942  0.00  0.00    +0.000 C 
ATOM     21  C   UNL     1       3.875   3.669  18.684  0.00  0.00    +0.000 C 
ENDBRANCH   1  21
TORSDOF 2
ENDMDL
MODEL 9
REMARK VINA RESULT:      -7.6      2.226      2.886
REMARK  Name = 
REMARK  3 active torsions:
REMARK  status: ('A' for Active; 'I' for Inactive)
REMARK    1  A    between atoms: C_1  and  C_2
REMARK    2  A    between atoms: C_2  and  C_3
REMARK    3  A    between atoms: C_3  and  C_4
REMARK                            x       y       z     vdW  Elec       q    Type
REMARK                         _______ _______ _______ _____ _____    ______ ____
ROOT
ATOM      1  C   UNL     1       3.544   5.033  18.261  0.00  0.00    +0.000 C 
ATOM      2  C   UNL     1       3.467   4.571  19.747  0.00  0.00    +0.000 C 
ATOM      3  C   UNL     1       2.191   4.964  20.462  0.00  0.00    +0.000 C 
ATOM      4  C   UNL     1       2.005   6.451  20.416  0.00  0.00    +0.000 C 
ATOM      5  O   UNL     1       1.266   7.046  21.192  0.00  0.00    +0.000 OA
ATOM      6  N   UNL     1       2.619   7.094  19.381  0.00  0.00    +0.000 N 
ATOM      7  C   UNL     1       3.023   6.505  18.206  0.00  0.00    +0.000 C 
ATOM      8  O   UNL     1       2.853   7.133  17.168  0.00  0.00    +0.000 OA
ATOM      9  H   UNL     1       2.299   8.052  19.264  0.00  0.00    +0.000 HD
ENDROOT
BRANCH   1  10
ATOM     10  C   UNL     1       5.007   4.874  17.748  0.00  0.00    +0.000 A 
ATOM     11  C   UNL     1       5.359   4.454  16.456  0.00  0.00    +0.000 A 
ATOM     12  F   UNL     1       4.445   4.183  15.520  0.00  0.00    +0.000 F 
ATOM     13  C   UNL     1       6.702   4.311  16.087  0.00  0.00    +0.000 A 
ATOM     14  F   UNL     1       6.987   3.905  14.842  0.00  0.00    +0.000 F 
ATOM     15  N   UNL     1       7.750   4.559  16.896  0.00  0.00    +0.000 NA
ATOM     16  C   UNL     1       7.423   4.962  18.133  0.00  0.00    +0.000 A 
ATOM     17  F   UNL     1       8.427   5.243  18.977  0.00  0.00    +0.000 F 
ATOM     18  C   UNL     1       6.115   5.115  18.588  0.00  0.00    +0.000 A 
ATOM     19  F   UNL     1       5.958   5.493  19.862  0.00  0.00    +0.000 F 
ENDBRANCH   1  10
BRANCH   1  21
ATOM     20  C   UNL     1       2.402   2.733  17.679  0.00  0.00    +0.000 C 
ATOM     21  C   UNL     1       2.556   4.217  17.362  0.00  0.00    +0.000 C 
ENDBRANCH   1  21
TORSDOF 2
ENDMDL
