MODEL 1
REMARK VINA RESULT:      -8.8      0.000      0.000
REMARK  Name = 
REMARK  6 active torsions:
REMARK  status: ('A' for Active; 'I' for Inactive)
REMARK    1  A    between atoms: C_2  and  C_26
REMARK    2  A    between atoms: N_3  and  C_4
REMARK    3  A    between atoms: C_8  and  C_9
REMARK    4  A    between atoms: C_9  and  N_10
REMARK    5  A    between atoms: C_13  and  C_14
REMARK    6  A    between atoms: N_16  and  C_17
REMARK                            x       y       z     vdW  Elec       q    Type
REMARK                         _______ _______ _______ _____ _____    ______ ____
ROOT
ATOM      1  C   UNL     1       0.340  10.679  20.349  0.00  0.00    +0.000 A 
ATOM      2  C   UNL     1       0.768  10.892  19.028  0.00  0.00    +0.000 A 
ATOM      3  C   UNL     1       1.455   9.912  18.310  0.00  0.00    +0.000 A 
ATOM      4  C   UNL     1       1.748   8.689  18.900  0.00  0.00    +0.000 A 
ATOM      5  C   UNL     1       1.356   8.415  20.222  0.00  0.00    +0.000 A 
ATOM      6  C   UNL     1       0.642   9.422  20.934  0.00  0.00    +0.000 A 
ENDROOT
BRANCH   1   9
ATOM      7  O   UNL     1      -0.342  10.722  23.218  0.00  0.00    +0.000 OA
ATOM      8  C   UNL     1      -0.690  11.616  22.451  0.00  0.00    +0.000 C 
ATOM      9  N   UNL     1      -0.302  11.721  21.113  0.00  0.00    +0.000 N 
ATOM     10  H   UNL     1      -0.490  12.611  20.647  0.00  0.00    +0.000 HD
BRANCH   8  11
ATOM     11  C   UNL     1      -1.621  12.598  23.060  0.00  0.00    +0.000 A 
ATOM     12  C   UNL     1      -2.913  12.165  23.453  0.00  0.00    +0.000 A 
ATOM     13  C   UNL     1      -3.832  13.043  24.022  0.00  0.00    +0.000 A 
ATOM     14  C   UNL     1      -3.457  14.357  24.219  0.00  0.00    +0.000 A 
ATOM     15  F   UNL     1      -4.328  15.219  24.759  0.00  0.00    +0.000 F 
ATOM     16  C   UNL     1      -2.186  14.785  23.852  0.00  0.00    +0.000 A 
ATOM     17  N   UNL     1      -1.257  13.924  23.263  0.00  0.00    +0.000 N 
ATOM     18  O   UNL     1      -0.114  14.379  22.929  0.00  0.00    +0.000 OA
ENDBRANCH   8  11
ENDBRANCH   1   9
BRANCH   5  19
ATOM     19  C   UNL     1       1.905   7.143  20.868  0.00  0.00    +0.000 C 
BRANCH  19  20
ATOM     20  N   UNL     1       1.619   5.826  20.239  0.00  0.00    +0.000 NA
ATOM     21  C   UNL     1       2.042   5.803  18.825  0.00  0.00    +0.000 C 
ATOM     22  C   UNL     1       1.844   4.421  18.175  0.00  0.00    +0.000 C 
ATOM     23  C   UNL     1       2.499   3.255  18.938  0.00  0.00    +0.000 C 
ATOM     24  C   UNL     1       2.181   3.376  20.428  0.00  0.00    +0.000 C 
ATOM     25  C   UNL     1       2.373   4.790  20.981  0.00  0.00    +0.000 C 
BRANCH  23  26
ATOM     26  C   UNL     1       3.993   3.042  18.610  0.00  0.00    +0.000 C 
ATOM     27  O   UNL     1       4.785   2.559  19.414  0.00  0.00    +0.000 OA
ATOM     28  N   UNL     1       4.393   3.534  17.372  0.00  0.00    +0.000 N 
ATOM     29  H   UNL     1       3.717   4.070  16.844  0.00  0.00    +0.000 HD
BRANCH  28  30
ATOM     30  C   UNL     1       5.808   3.720  17.013  0.00  0.00    +0.000 C 
ATOM     31  C   UNL     1       6.037   3.751  15.498  0.00  0.00    +0.000 C 
ATOM     32  C   UNL     1       5.561   5.016  14.783  0.00  0.00    +0.000 C 
ATOM     33  C   UNL     1       5.581   6.329  15.569  0.00  0.00    +0.000 C 
ATOM     34  C   UNL     1       5.636   6.236  17.090  0.00  0.00    +0.000 C 
ATOM     35  C   UNL     1       6.380   5.011  17.608  0.00  0.00    +0.000 C 
ENDBRANCH  28  30
ENDBRANCH  23  26
ENDBRANCH  19  20
ENDBRANCH   5  19
TORSDOF 6
ENDMDL
MODEL 2
REMARK VINA RESULT:      -8.6      1.119      1.246
REMARK  Name = 
REMARK  6 active torsions:
REMARK  status: ('A' for Active; 'I' for Inactive)
REMARK    1  A    between atoms: C_2  and  C_26
REMARK    2  A    between atoms: N_3  and  C_4
REMARK    3  A    between atoms: C_8  and  C_9
REMARK    4  A    between atoms: C_9  and  N_10
REMARK    5  A    between atoms: C_13  and  C_14
REMARK    6  A    between atoms: N_16  and  C_17
REMARK                            x       y       z     vdW  Elec       q    Type
REMARK                         _______ _______ _______ _____ _____    ______ ____
ROOT
ATOM      1  C   UNL     1      -0.009  10.484  19.804  0.00  0.00    +0.000 A 
ATOM      2  C   UNL     1       0.691  10.720  18.609  0.00  0.00    +0.000 A 
ATOM      3  C   UNL     1       1.629   9.813  18.114  0.00  0.00    +0.000 A 
ATOM      4  C   UNL     1       1.905   8.642  18.810  0.00  0.00    +0.000 A 
ATOM      5  C   UNL     1       1.246   8.350  20.015  0.00  0.00    +0.000 A 
ATOM      6  C   UNL     1       0.281   9.280  20.498  0.00  0.00    +0.000 A 
ENDROOT
BRANCH   1   9
ATOM      7  O   UNL     1       0.543  12.688  21.684  0.00  0.00    +0.000 OA
ATOM      8  C   UNL     1      -0.597  12.406  21.326  0.00  0.00    +0.000 C 
ATOM      9  N   UNL     1      -0.921  11.459  20.352  0.00  0.00    +0.000 N 
ATOM     10  H   UNL     1      -1.882  11.465  20.003  0.00  0.00    +0.000 HD
BRANCH   8  11
ATOM     11  C   UNL     1      -1.654  13.144  22.060  0.00  0.00    +0.000 A 
ATOM     12  C   UNL     1      -1.412  13.538  23.400  0.00  0.00    +0.000 A 
ATOM     13  C   UNL     1      -2.370  14.227  24.140  0.00  0.00    +0.000 A 
ATOM     14  C   UNL     1      -3.571  14.541  23.538  0.00  0.00    +0.000 A 
ATOM     15  F   UNL     1      -4.508  15.197  24.234  0.00  0.00    +0.000 F 
ATOM     16  C   UNL     1      -3.809  14.174  22.218  0.00  0.00    +0.000 A 
ATOM     17  N   UNL     1      -2.869  13.467  21.466  0.00  0.00    +0.000 N 
ATOM     18  O   UNL     1      -3.154  13.139  20.267  0.00  0.00    +0.000 OA
ENDBRANCH   8  11
ENDBRANCH   1   9
BRANCH   5  19
ATOM     19  C   UNL     1       1.761   7.161  20.827  0.00  0.00    +0.000 C 
BRANCH  19  20
ATOM     20  N   UNL     1       1.594   5.785  20.288  0.00  0.00    +0.000 NA
ATOM     21  C   UNL     1       1.999   5.711  18.870  0.00  0.00    +0.000 C 
ATOM     22  C   UNL     1       1.925   4.278  18.312  0.00  0.00    +0.000 C 
ATOM     23  C   UNL     1       2.699   3.230  19.134  0.00  0.00    +0.000 C 
ATOM     24  C   UNL     1       2.391   3.416  20.620  0.00  0.00    +0.000 C 
ATOM     25  C   UNL     1       2.453   4.875  21.079  0.00  0.00    +0.000 C 
BRANCH  23  26
ATOM     26  C   UNL     1       4.202   3.138  18.791  0.00  0.00    +0.000 C 
ATOM     27  O   UNL     1       5.052   2.823  19.619  0.00  0.00    +0.000 OA
ATOM     28  N   UNL     1       4.530   3.541  17.500  0.00  0.00    +0.000 N 
ATOM     29  H   UNL     1       3.794   3.949  16.939  0.00  0.00    +0.000 HD
BRANCH  28  30
ATOM     30  C   UNL     1       5.912   3.833  17.089  0.00  0.00    +0.000 C 
ATOM     31  C   UNL     1       6.106   3.770  15.571  0.00  0.00    +0.000 C 
ATOM     32  C   UNL     1       5.494   4.926  14.778  0.00  0.00    +0.000 C 
ATOM     33  C   UNL     1       5.404   6.291  15.464  0.00  0.00    +0.000 C 
ATOM     34  C   UNL     1       5.499   6.320  16.986  0.00  0.00    +0.000 C 
ATOM     35  C   UNL     1       6.368   5.214  17.572  0.00  0.00    +0.000 C 
ENDBRANCH  28  30
ENDBRANCH  23  26
ENDBRANCH  19  20
ENDBRANCH   5  19
TORSDOF 6
ENDMDL
MODEL 3
REMARK VINA RESULT:      -8.5      4.337     10.945
REMARK  Name = 
REMARK  6 active torsions:
REMARK  status: ('A' for Active; 'I' for Inactive)
REMARK    1  A    between atoms: C_2  and  C_26
REMARK    2  A    between atoms: N_3  and  C_4
REMARK    3  A    between atoms: C_8  and  C_9
REMARK    4  A    between atoms: C_9  and  N_10
REMARK    5  A    between atoms: C_13  and  C_14
REMARK    6  A    between atoms: N_16  and  C_17
REMARK                            x       y       z     vdW  Elec       q    Type
REMARK                         _______ _______ _______ _____ _____    ______ ____
ROOT
ATOM      1  C   UNL     1       2.996   4.962  18.241  0.00  0.00    +0.000 A 
ATOM      2  C   UNL     1       2.543   3.954  19.108  0.00  0.00    +0.000 A 
ATOM      3  C   UNL     1       1.919   4.252  20.320  0.00  0.00    +0.000 A 
ATOM      4  C   UNL     1       1.741   5.573  20.709  0.00  0.00    +0.000 A 
ATOM      5  C   UNL     1       2.178   6.629  19.891  0.00  0.00    +0.000 A 
ATOM      6  C   UNL     1       2.800   6.306  18.651  0.00  0.00    +0.000 A 
ENDROOT
BRANCH   1   9
ATOM      7  O   UNL     1       5.869   4.411  17.865  0.00  0.00    +0.000 OA
ATOM      8  C   UNL     1       5.095   4.511  16.917  0.00  0.00    +0.000 C 
ATOM      9  N   UNL     1       3.709   4.650  17.025  0.00  0.00    +0.000 N 
ATOM     10  H   UNL     1       3.164   4.518  16.171  0.00  0.00    +0.000 HD
BRANCH   8  11
ATOM     11  C   UNL     1       5.766   4.513  15.594  0.00  0.00    +0.000 A 
ATOM     12  C   UNL     1       5.234   3.710  14.554  0.00  0.00    +0.000 A 
ATOM     13  C   UNL     1       5.826   3.666  13.294  0.00  0.00    +0.000 A 
ATOM     14  C   UNL     1       6.945   4.440  13.062  0.00  0.00    +0.000 A 
ATOM     15  F   UNL     1       7.533   4.407  11.859  0.00  0.00    +0.000 F 
ATOM     16  C   UNL     1       7.462   5.244  14.071  0.00  0.00    +0.000 A 
ATOM     17  N   UNL     1       6.894   5.287  15.346  0.00  0.00    +0.000 N 
ATOM     18  O   UNL     1       7.426   6.027  16.237  0.00  0.00    +0.000 OA
ENDBRANCH   8  11
ENDBRANCH   1   9
BRANCH   5  19
ATOM     19  C   UNL     1       2.145   8.038  20.485  0.00  0.00    +0.000 C 
BRANCH  19  20
ATOM     20  N   UNL     1       0.835   8.655  20.822  0.00  0.00    +0.000 NA
ATOM     21  C   UNL     1       0.809   9.134  22.218  0.00  0.00    +0.000 C 
ATOM     22  C   UNL     1      -0.503   9.861  22.566  0.00  0.00    +0.000 C 
ATOM     23  C   UNL     1      -0.870  11.011  21.609  0.00  0.00    +0.000 C 
ATOM     24  C   UNL     1      -0.691  10.551  20.162  0.00  0.00    +0.000 C 
ATOM     25  C   UNL     1       0.625   9.807  19.916  0.00  0.00    +0.000 C 
BRANCH  23  26
ATOM     26  C   UNL     1      -0.195  12.358  21.948  0.00  0.00    +0.000 C 
ATOM     27  O   UNL     1      -0.257  12.868  23.063  0.00  0.00    +0.000 OA
ATOM     28  N   UNL     1       0.400  13.001  20.866  0.00  0.00    +0.000 N 
ATOM     29  H   UNL     1       0.257  12.597  19.950  0.00  0.00    +0.000 HD
BRANCH  28  30
ATOM     30  C   UNL     1       0.802  14.415  20.908  0.00  0.00    +0.000 C 
ATOM     31  C   UNL     1       2.187  14.620  21.529  0.00  0.00    +0.000 C 
ATOM     32  C   UNL     1       3.371  14.180  20.666  0.00  0.00    +0.000 C 
ATOM     33  C   UNL     1       3.214  14.264  19.146  0.00  0.00    +0.000 C 
ATOM     34  C   UNL     1       1.795  14.341  18.590  0.00  0.00    +0.000 C 
ATOM     35  C   UNL     1       0.807  15.045  19.512  0.00  0.00    +0.000 C 
ENDBRANCH  28  30
ENDBRANCH  23  26
ENDBRANCH  19  20
ENDBRANCH   5  19
TORSDOF 6
ENDMDL
MODEL 4
REMARK VINA RESULT:      -8.4      4.802     11.083
REMARK  Name = 
REMARK  6 active torsions:
REMARK  status: ('A' for Active; 'I' for Inactive)
REMARK    1  A    between atoms: C_2  and  C_26
REMARK    2  A    between atoms: N_3  and  C_4
REMARK    3  A    between atoms: C_8  and  C_9
REMARK    4  A    between atoms: C_9  and  N_10
REMARK    5  A    between atoms: C_13  and  C_14
REMARK    6  A    between atoms: N_16  and  C_17
REMARK                            x       y       z     vdW  Elec       q    Type
REMARK                         _______ _______ _______ _____ _____    ______ ____
ROOT
ATOM      1  C   UNL     1      -0.280  10.324  18.964  0.00  0.00    +0.000 A 
ATOM      2  C   UNL     1      -0.079  11.645  19.396  0.00  0.00    +0.000 A 
ATOM      3  C   UNL     1      -0.991  12.661  19.106  0.00  0.00    +0.000 A 
ATOM      4  C   UNL     1      -2.131  12.387  18.361  0.00  0.00    +0.000 A 
ATOM      5  C   UNL     1      -2.388  11.087  17.891  0.00  0.00    +0.000 A 
ATOM      6  C   UNL     1      -1.453  10.060  18.209  0.00  0.00    +0.000 A 
ENDROOT
BRANCH   1   9
ATOM      7  O   UNL     1       2.158   9.700  17.426  0.00  0.00    +0.000 OA
ATOM      8  C   UNL     1       1.773   8.994  18.354  0.00  0.00    +0.000 C 
ATOM      9  N   UNL     1       0.702   9.293  19.199  0.00  0.00    +0.000 N 
ATOM     10  H   UNL     1       0.614   8.734  20.050  0.00  0.00    +0.000 HD
BRANCH   8  11
ATOM     11  C   UNL     1       2.535   7.729  18.499  0.00  0.00    +0.000 A 
ATOM     12  C   UNL     1       3.428   7.344  17.468  0.00  0.00    +0.000 A 
ATOM     13  C   UNL     1       4.164   6.164  17.546  0.00  0.00    +0.000 A 
ATOM     14  C   UNL     1       4.023   5.369  18.666  0.00  0.00    +0.000 A 
ATOM     15  F   UNL     1       4.716   4.227  18.758  0.00  0.00    +0.000 F 
ATOM     16  C   UNL     1       3.163   5.749  19.690  0.00  0.00    +0.000 A 
ATOM     17  N   UNL     1       2.403   6.919  19.622  0.00  0.00    +0.000 N 
ATOM     18  O   UNL     1       1.615   7.203  20.583  0.00  0.00    +0.000 OA
ENDBRANCH   8  11
ENDBRANCH   1   9
BRANCH   5  19
ATOM     19  C   UNL     1      -3.538  10.914  16.899  0.00  0.00    +0.000 C 
BRANCH  19  20
ATOM     20  N   UNL     1      -4.939  10.972  17.393  0.00  0.00    +0.000 NA
ATOM     21  C   UNL     1      -4.999  10.816  18.860  0.00  0.00    +0.000 C 
ATOM     22  C   UNL     1      -6.429  10.966  19.410  0.00  0.00    +0.000 C 
ATOM     23  C   UNL     1      -7.143  12.265  18.990  0.00  0.00    +0.000 C 
ATOM     24  C   UNL     1      -6.944  12.497  17.492  0.00  0.00    +0.000 C 
ATOM     25  C   UNL     1      -5.500  12.293  17.029  0.00  0.00    +0.000 C 
BRANCH  23  26
ATOM     26  C   UNL     1      -6.821  13.483  19.883  0.00  0.00    +0.000 C 
ATOM     27  O   UNL     1      -7.070  14.636  19.544  0.00  0.00    +0.000 OA
ATOM     28  N   UNL     1      -6.133  13.181  21.054  0.00  0.00    +0.000 N 
ATOM     29  H   UNL     1      -5.815  12.228  21.174  0.00  0.00    +0.000 HD
BRANCH  28  30
ATOM     30  C   UNL     1      -5.460  14.208  21.864  0.00  0.00    +0.000 C 
ATOM     31  C   UNL     1      -5.700  14.031  23.366  0.00  0.00    +0.000 C 
ATOM     32  C   UNL     1      -4.967  12.858  24.020  0.00  0.00    +0.000 C 
ATOM     33  C   UNL     1      -3.622  12.438  23.424  0.00  0.00    +0.000 C 
ATOM     34  C   UNL     1      -3.314  12.887  21.999  0.00  0.00    +0.000 C 
ATOM     35  C   UNL     1      -3.947  14.221  21.621  0.00  0.00    +0.000 C 
ENDBRANCH  28  30
ENDBRANCH  23  26
ENDBRANCH  19  20
ENDBRANCH   5  19
TORSDOF 6
ENDMDL
MODEL 5
REMARK VINA RESULT:      -8.4      1.373      1.520
REMARK  Name = 
REMARK  6 active torsions:
REMARK  status: ('A' for Active; 'I' for Inactive)
REMARK    1  A    between atoms: C_2  and  C_26
REMARK    2  A    between atoms: N_3  and  C_4
REMARK    3  A    between atoms: C_8  and  C_9
REMARK    4  A    between atoms: C_9  and  N_10
REMARK    5  A    between atoms: C_13  and  C_14
REMARK    6  A    between atoms: N_16  and  C_17
REMARK                            x       y       z     vdW  Elec       q    Type
REMARK                         _______ _______ _______ _____ _____    ______ ____
ROOT
ATOM      1  C   UNL     1       0.729   9.948  19.429  0.00  0.00    +0.000 A 
ATOM      2  C   UNL     1       1.500  10.016  18.257  0.00  0.00    +0.000 A 
ATOM      3  C   UNL     1       2.331   8.968  17.861  0.00  0.00    +0.000 A 
ATOM      4  C   UNL     1       2.427   7.819  18.637  0.00  0.00    +0.000 A 
ATOM      5  C   UNL     1       1.688   7.690  19.825  0.00  0.00    +0.000 A 
ATOM      6  C   UNL     1       0.833   8.764  20.206  0.00  0.00    +0.000 A 
ENDROOT
BRANCH   1   9
ATOM      7  O   UNL     1       1.401  12.043  21.392  0.00  0.00    +0.000 OA
ATOM      8  C   UNL     1       0.282  11.950  20.895  0.00  0.00    +0.000 C 
ATOM      9  N   UNL     1      -0.071  11.063  19.876  0.00  0.00    +0.000 N 
ATOM     10  H   UNL     1      -0.968  11.225  19.413  0.00  0.00    +0.000 HD
BRANCH   8  11
ATOM     11  C   UNL     1      -0.721  12.858  21.505  0.00  0.00    +0.000 A 
ATOM     12  C   UNL     1      -1.077  12.672  22.864  0.00  0.00    +0.000 A 
ATOM     13  C   UNL     1      -2.018  13.488  23.487  0.00  0.00    +0.000 A 
ATOM     14  C   UNL     1      -2.596  14.508  22.758  0.00  0.00    +0.000 A 
ATOM     15  F   UNL     1      -3.508  15.300  23.337  0.00  0.00    +0.000 F 
ATOM     16  C   UNL     1      -2.238  14.707  21.430  0.00  0.00    +0.000 A 
ATOM     17  N   UNL     1      -1.311  13.888  20.782  0.00  0.00    +0.000 N 
ATOM     18  O   UNL     1      -1.039  14.108  19.556  0.00  0.00    +0.000 OA
ENDBRANCH   8  11
ENDBRANCH   1   9
BRANCH   5  19
ATOM     19  C   UNL     1       2.013   6.500  20.729  0.00  0.00    +0.000 C 
BRANCH  19  20
ATOM     20  N   UNL     1       1.631   5.131  20.293  0.00  0.00    +0.000 NA
ATOM     21  C   UNL     1       1.530   5.042  18.823  0.00  0.00    +0.000 C 
ATOM     22  C   UNL     1       1.227   3.612  18.339  0.00  0.00    +0.000 C 
ATOM     23  C   UNL     1       2.199   2.540  18.864  0.00  0.00    +0.000 C 
ATOM     24  C   UNL     1       2.417   2.736  20.364  0.00  0.00    +0.000 C 
ATOM     25  C   UNL     1       2.677   4.192  20.758  0.00  0.00    +0.000 C 
BRANCH  23  26
ATOM     26  C   UNL     1       3.494   2.397  18.035  0.00  0.00    +0.000 C 
ATOM     27  O   UNL     1       4.014   1.310  17.800  0.00  0.00    +0.000 OA
ATOM     28  N   UNL     1       4.083   3.602  17.662  0.00  0.00    +0.000 N 
ATOM     29  H   UNL     1       3.685   4.450  18.042  0.00  0.00    +0.000 HD
BRANCH  28  30
ATOM     30  C   UNL     1       5.463   3.687  17.161  0.00  0.00    +0.000 C 
ATOM     31  C   UNL     1       5.534   4.078  15.681  0.00  0.00    +0.000 C 
ATOM     32  C   UNL     1       5.198   5.536  15.366  0.00  0.00    +0.000 C 
ATOM     33  C   UNL     1       5.515   6.587  16.432  0.00  0.00    +0.000 C 
ATOM     34  C   UNL     1       5.713   6.097  17.864  0.00  0.00    +0.000 C 
ATOM     35  C   UNL     1       6.297   4.693  17.961  0.00  0.00    +0.000 C 
ENDBRANCH  28  30
ENDBRANCH  23  26
ENDBRANCH  19  20
ENDBRANCH   5  19
TORSDOF 6
ENDMDL
MODEL 6
REMARK VINA RESULT:      -8.4      4.575     10.858
REMARK  Name = 
REMARK  6 active torsions:
REMARK  status: ('A' for Active; 'I' for Inactive)
REMARK    1  A    between atoms: C_2  and  C_26
REMARK    2  A    between atoms: N_3  and  C_4
REMARK    3  A    between atoms: C_8  and  C_9
REMARK    4  A    between atoms: C_9  and  N_10
REMARK    5  A    between atoms: C_13  and  C_14
REMARK    6  A    between atoms: N_16  and  C_17
REMARK                            x       y       z     vdW  Elec       q    Type
REMARK                         _______ _______ _______ _____ _____    ______ ____
ROOT
ATOM      1  C   UNL     1       2.877   4.571  18.067  0.00  0.00    +0.000 A 
ATOM      2  C   UNL     1       2.355   3.493  18.801  0.00  0.00    +0.000 A 
ATOM      3  C   UNL     1       1.661   3.685  19.996  0.00  0.00    +0.000 A 
ATOM      4  C   UNL     1       1.479   4.966  20.502  0.00  0.00    +0.000 A 
ATOM      5  C   UNL     1       1.983   6.087  19.821  0.00  0.00    +0.000 A 
ATOM      6  C   UNL     1       2.676   5.873  18.595  0.00  0.00    +0.000 A 
ENDROOT
BRANCH   1   9
ATOM      7  O   UNL     1       5.793   4.219  17.798  0.00  0.00    +0.000 OA
ATOM      8  C   UNL     1       5.055   4.317  16.821  0.00  0.00    +0.000 C 
ATOM      9  N   UNL     1       3.660   4.365  16.872  0.00  0.00    +0.000 N 
ATOM     10  H   UNL     1       3.161   4.240  15.988  0.00  0.00    +0.000 HD
BRANCH   8  11
ATOM     11  C   UNL     1       5.781   4.425  15.531  0.00  0.00    +0.000 A 
ATOM     12  C   UNL     1       5.337   3.654  14.428  0.00  0.00    +0.000 A 
ATOM     13  C   UNL     1       5.984   3.709  13.196  0.00  0.00    +0.000 A 
ATOM     14  C   UNL     1       7.068   4.551  13.055  0.00  0.00    +0.000 A 
ATOM     15  F   UNL     1       7.708   4.614  11.880  0.00  0.00    +0.000 F 
ATOM     16  C   UNL     1       7.498   5.324  14.127  0.00  0.00    +0.000 A 
ATOM     17  N   UNL     1       6.875   5.269  15.376  0.00  0.00    +0.000 N 
ATOM     18  O   UNL     1       7.327   5.987  16.327  0.00  0.00    +0.000 OA
ENDBRANCH   8  11
ENDBRANCH   1   9
BRANCH   5  19
ATOM     19  C   UNL     1       1.935   7.431  20.548  0.00  0.00    +0.000 C 
BRANCH  19  20
ATOM     20  N   UNL     1       1.155   8.550  19.956  0.00  0.00    +0.000 NA
ATOM     21  C   UNL     1       0.490   9.354  21.001  0.00  0.00    +0.000 C 
ATOM     22  C   UNL     1      -0.248  10.575  20.423  0.00  0.00    +0.000 C 
ATOM     23  C   UNL     1       0.619  11.484  19.534  0.00  0.00    +0.000 C 
ATOM     24  C   UNL     1       1.423  10.629  18.555  0.00  0.00    +0.000 C 
ATOM     25  C   UNL     1       2.093   9.418  19.210  0.00  0.00    +0.000 C 
BRANCH  23  26
ATOM     26  C   UNL     1       1.449  12.529  20.313  0.00  0.00    +0.000 C 
ATOM     27  O   UNL     1       1.226  12.809  21.486  0.00  0.00    +0.000 OA
ATOM     28  N   UNL     1       2.399  13.203  19.552  0.00  0.00    +0.000 N 
ATOM     29  H   UNL     1       2.401  13.035  18.555  0.00  0.00    +0.000 HD
BRANCH  28  30
ATOM     30  C   UNL     1       3.054  14.436  20.014  0.00  0.00    +0.000 C 
ATOM     31  C   UNL     1       4.418  14.667  19.356  0.00  0.00    +0.000 C 
ATOM     32  C   UNL     1       4.381  15.090  17.887  0.00  0.00    +0.000 C 
ATOM     33  C   UNL     1       3.174  15.901  17.409  0.00  0.00    +0.000 C 
ATOM     34  C   UNL     1       1.914  15.856  18.267  0.00  0.00    +0.000 C 
ATOM     35  C   UNL     1       2.184  15.672  19.755  0.00  0.00    +0.000 C 
ENDBRANCH  28  30
ENDBRANCH  23  26
ENDBRANCH  19  20
ENDBRANCH   5  19
TORSDOF 6
ENDMDL
MODEL 7
REMARK VINA RESULT:      -8.3      2.363      2.769
REMARK  Name = 
REMARK  6 active torsions:
REMARK  status: ('A' for Active; 'I' for Inactive)
REMARK    1  A    between atoms: C_2  and  C_26
REMARK    2  A    between atoms: N_3  and  C_4
REMARK    3  A    between atoms: C_8  and  C_9
REMARK    4  A    between atoms: C_9  and  N_10
REMARK    5  A    between atoms: C_13  and  C_14
REMARK    6  A    between atoms: N_16  and  C_17
REMARK                            x       y       z     vdW  Elec       q    Type
REMARK                         _______ _______ _______ _____ _____    ______ ____
ROOT
ATOM      1  C   UNL     1       1.025  10.383  19.426  0.00  0.00    +0.000 A 
ATOM      2  C   UNL     1       1.759  10.201  18.242  0.00  0.00    +0.000 A 
ATOM      3  C   UNL     1       2.327   8.970  17.910  0.00  0.00    +0.000 A 
ATOM      4  C   UNL     1       2.187   7.882  18.763  0.00  0.00    +0.000 A 
ATOM      5  C   UNL     1       1.471   8.000  19.967  0.00  0.00    +0.000 A 
ATOM      6  C   UNL     1       0.887   9.260  20.283  0.00  0.00    +0.000 A 
ENDROOT
BRANCH   1   9
ATOM      7  O   UNL     1      -1.227  11.889  18.259  0.00  0.00    +0.000 OA
ATOM      8  C   UNL     1      -0.499  12.370  19.124  0.00  0.00    +0.000 C 
ATOM      9  N   UNL     1       0.505  11.676  19.803  0.00  0.00    +0.000 N 
ATOM     10  H   UNL     1       0.896  12.126  20.634  0.00  0.00    +0.000 HD
BRANCH   8  11
ATOM     11  C   UNL     1      -0.745  13.810  19.380  0.00  0.00    +0.000 A 
ATOM     12  C   UNL     1      -0.065  14.773  18.593  0.00  0.00    +0.000 A 
ATOM     13  C   UNL     1      -0.251  16.139  18.793  0.00  0.00    +0.000 A 
ATOM     14  C   UNL     1      -1.133  16.549  19.772  0.00  0.00    +0.000 A 
ATOM     15  F   UNL     1      -1.322  17.858  19.986  0.00  0.00    +0.000 F 
ATOM     16  C   UNL     1      -1.818  15.611  20.536  0.00  0.00    +0.000 A 
ATOM     17  N   UNL     1      -1.631  14.238  20.363  0.00  0.00    +0.000 N 
ATOM     18  O   UNL     1      -2.271  13.426  21.109  0.00  0.00    +0.000 OA
ENDBRANCH   8  11
ENDBRANCH   1   9
BRANCH   5  19
ATOM     19  C   UNL     1       1.550   6.829  20.948  0.00  0.00    +0.000 C 
BRANCH  19  20
ATOM     20  N   UNL     1       1.491   5.438  20.426  0.00  0.00    +0.000 NA
ATOM     21  C   UNL     1       1.887   5.380  19.005  0.00  0.00    +0.000 C 
ATOM     22  C   UNL     1       1.926   3.939  18.464  0.00  0.00    +0.000 C 
ATOM     23  C   UNL     1       2.789   2.968  19.291  0.00  0.00    +0.000 C 
ATOM     24  C   UNL     1       2.481   3.146  20.777  0.00  0.00    +0.000 C 
ATOM     25  C   UNL     1       2.429   4.611  21.219  0.00  0.00    +0.000 C 
BRANCH  23  26
ATOM     26  C   UNL     1       4.292   2.995  18.933  0.00  0.00    +0.000 C 
ATOM     27  O   UNL     1       5.166   2.638  19.718  0.00  0.00    +0.000 OA
ATOM     28  N   UNL     1       4.586   3.552  17.692  0.00  0.00    +0.000 N 
ATOM     29  H   UNL     1       3.824   3.978  17.182  0.00  0.00    +0.000 HD
BRANCH  28  30
ATOM     30  C   UNL     1       5.946   3.960  17.310  0.00  0.00    +0.000 C 
ATOM     31  C   UNL     1       6.145   4.013  15.792  0.00  0.00    +0.000 C 
ATOM     32  C   UNL     1       5.460   5.179  15.075  0.00  0.00    +0.000 C 
ATOM     33  C   UNL     1       5.279   6.485  15.851  0.00  0.00    +0.000 C 
ATOM     34  C   UNL     1       5.371   6.416  17.373  0.00  0.00    +0.000 C 
ATOM     35  C   UNL     1       6.310   5.332  17.887  0.00  0.00    +0.000 C 
ENDBRANCH  28  30
ENDBRANCH  23  26
ENDBRANCH  19  20
ENDBRANCH   5  19
TORSDOF 6
ENDMDL
MODEL 8
REMARK VINA RESULT:      -8.3      4.544     11.333
REMARK  Name = 
REMARK  6 active torsions:
REMARK  status: ('A' for Active; 'I' for Inactive)
REMARK    1  A    between atoms: C_2  and  C_26
REMARK    2  A    between atoms: N_3  and  C_4
REMARK    3  A    between atoms: C_8  and  C_9
REMARK    4  A    between atoms: C_9  and  N_10
REMARK    5  A    between atoms: C_13  and  C_14
REMARK    6  A    between atoms: N_16  and  C_17
REMARK                            x       y       z     vdW  Elec       q    Type
REMARK                         _______ _______ _______ _____ _____    ______ ____
ROOT
ATOM      1  C   UNL     1       2.915   5.094  18.298  0.00  0.00    +0.000 A 
ATOM      2  C   UNL     1       2.495   4.073  19.166  0.00  0.00    +0.000 A 
ATOM      3  C   UNL     1       1.853   4.352  20.374  0.00  0.00    +0.000 A 
ATOM      4  C   UNL     1       1.621   5.668  20.756  0.00  0.00    +0.000 A 
ATOM      5  C   UNL     1       2.023   6.736  19.936  0.00  0.00    +0.000 A 
ATOM      6  C   UNL     1       2.665   6.432  18.700  0.00  0.00    +0.000 A 
ENDROOT
BRANCH   1   9
ATOM      7  O   UNL     1       5.739   4.304  17.982  0.00  0.00    +0.000 OA
ATOM      8  C   UNL     1       5.017   4.545  17.018  0.00  0.00    +0.000 C 
ATOM      9  N   UNL     1       3.647   4.805  17.088  0.00  0.00    +0.000 N 
ATOM     10  H   UNL     1       3.128   4.786  16.207  0.00  0.00    +0.000 HD
BRANCH   8  11
ATOM     11  C   UNL     1       5.740   4.578  15.723  0.00  0.00    +0.000 A 
ATOM     12  C   UNL     1       5.258   3.790  14.647  0.00  0.00    +0.000 A 
ATOM     13  C   UNL     1       5.900   3.776  13.412  0.00  0.00    +0.000 A 
ATOM     14  C   UNL     1       7.020   4.565  13.239  0.00  0.00    +0.000 A 
ATOM     15  F   UNL     1       7.656   4.561  12.060  0.00  0.00    +0.000 F 
ATOM     16  C   UNL     1       7.488   5.354  14.283  0.00  0.00    +0.000 A 
ATOM     17  N   UNL     1       6.869   5.368  15.535  0.00  0.00    +0.000 N 
ATOM     18  O   UNL     1       7.358   6.096  16.460  0.00  0.00    +0.000 OA
ENDBRANCH   8  11
ENDBRANCH   1   9
BRANCH   5  19
ATOM     19  C   UNL     1       1.933   8.145  20.524  0.00  0.00    +0.000 C 
BRANCH  19  20
ATOM     20  N   UNL     1       0.760   8.997  20.192  0.00  0.00    +0.000 NA
ATOM     21  C   UNL     1       0.579  10.072  21.187  0.00  0.00    +0.000 C 
ATOM     22  C   UNL     1      -0.571  11.027  20.818  0.00  0.00    +0.000 C 
ATOM     23  C   UNL     1      -0.473  11.630  19.404  0.00  0.00    +0.000 C 
ATOM     24  C   UNL     1      -0.132  10.530  18.400  0.00  0.00    +0.000 C 
ATOM     25  C   UNL     1       0.999   9.608  18.865  0.00  0.00    +0.000 C 
BRANCH  23  26
ATOM     26  C   UNL     1       0.416  12.890  19.313  0.00  0.00    +0.000 C 
ATOM     27  O   UNL     1       1.611  12.838  19.038  0.00  0.00    +0.000 OA
ATOM     28  N   UNL     1      -0.217  14.077  19.669  0.00  0.00    +0.000 N 
ATOM     29  H   UNL     1      -1.152  14.009  20.048  0.00  0.00    +0.000 HD
BRANCH  28  30
ATOM     30  C   UNL     1       0.525  15.314  19.957  0.00  0.00    +0.000 C 
ATOM     31  C   UNL     1       0.736  16.183  18.714  0.00  0.00    +0.000 C 
ATOM     32  C   UNL     1      -0.508  16.904  18.191  0.00  0.00    +0.000 C 
ATOM     33  C   UNL     1      -1.580  17.302  19.207  0.00  0.00    +0.000 C 
ATOM     34  C   UNL     1      -1.569  16.588  20.556  0.00  0.00    +0.000 C 
ATOM     35  C   UNL     1      -0.181  16.164  21.019  0.00  0.00    +0.000 C 
ENDBRANCH  28  30
ENDBRANCH  23  26
ENDBRANCH  19  20
ENDBRANCH   5  19
TORSDOF 6
ENDMDL
MODEL 9
REMARK VINA RESULT:      -8.2      4.695     10.718
REMARK  Name = 
REMARK  6 active torsions:
REMARK  status: ('A' for Active; 'I' for Inactive)
REMARK    1  A    between atoms: C_2  and  C_26
REMARK    2  A    between atoms: N_3  and  C_4
REMARK    3  A    between atoms: C_8  and  C_9
REMARK    4  A    between atoms: C_9  and  N_10
REMARK    5  A    between atoms: C_13  and  C_14
REMARK    6  A    between atoms: N_16  and  C_17
REMARK                            x       y       z     vdW  Elec       q    Type
REMARK                         _______ _______ _______ _____ _____    ______ ____
ROOT
ATOM      1  C   UNL     1       0.127  10.106  18.670  0.00  0.00    +0.000 A 
ATOM      2  C   UNL     1      -0.960   9.811  17.831  0.00  0.00    +0.000 A 
ATOM      3  C   UNL     1      -1.941  10.758  17.536  0.00  0.00    +0.000 A 
ATOM      4  C   UNL     1      -1.870  12.033  18.084  0.00  0.00    +0.000 A 
ATOM      5  C   UNL     1      -0.813  12.391  18.937  0.00  0.00    +0.000 A 
ATOM      6  C   UNL     1       0.187  11.415  19.216  0.00  0.00    +0.000 A 
ENDROOT
BRANCH   1   9
ATOM      7  O   UNL     1       2.387   9.053  17.094  0.00  0.00    +0.000 OA
ATOM      8  C   UNL     1       2.074   8.580  18.183  0.00  0.00    +0.000 C 
ATOM      9  N   UNL     1       1.097   9.102  19.034  0.00  0.00    +0.000 N 
ATOM     10  H   UNL     1       1.077   8.740  19.990  0.00  0.00    +0.000 HD
BRANCH   8  11
ATOM     11  C   UNL     1       2.810   7.338  18.529  0.00  0.00    +0.000 A 
ATOM     12  C   UNL     1       3.823   6.875  17.653  0.00  0.00    +0.000 A 
ATOM     13  C   UNL     1       4.541   5.713  17.922  0.00  0.00    +0.000 A 
ATOM     14  C   UNL     1       4.261   5.016  19.080  0.00  0.00    +0.000 A 
ATOM     15  F   UNL     1       4.936   3.892  19.355  0.00  0.00    +0.000 F 
ATOM     16  C   UNL     1       3.282   5.474  19.953  0.00  0.00    +0.000 A 
ATOM     17  N   UNL     1       2.538   6.626  19.692  0.00  0.00    +0.000 N 
ATOM     18  O   UNL     1       1.638   6.985  20.520  0.00  0.00    +0.000 OA
ENDBRANCH   8  11
ENDBRANCH   1   9
BRANCH   5  19
ATOM     19  C   UNL     1      -0.923  13.729  19.670  0.00  0.00    +0.000 C 
BRANCH  19  20
ATOM     20  N   UNL     1      -1.743  13.813  20.908  0.00  0.00    +0.000 NA
ATOM     21  C   UNL     1      -2.979  14.588  20.683  0.00  0.00    +0.000 C 
ATOM     22  C   UNL     1      -3.892  14.613  21.922  0.00  0.00    +0.000 C 
ATOM     23  C   UNL     1      -4.238  13.223  22.489  0.00  0.00    +0.000 C 
ATOM     24  C   UNL     1      -2.971  12.373  22.574  0.00  0.00    +0.000 C 
ATOM     25  C   UNL     1      -2.107  12.436  21.312  0.00  0.00    +0.000 C 
BRANCH  23  26
ATOM     26  C   UNL     1      -5.434  12.535  21.794  0.00  0.00    +0.000 C 
ATOM     27  O   UNL     1      -6.405  12.111  22.414  0.00  0.00    +0.000 OA
ATOM     28  N   UNL     1      -5.278  12.338  20.426  0.00  0.00    +0.000 N 
ATOM     29  H   UNL     1      -4.377  12.561  20.024  0.00  0.00    +0.000 HD
BRANCH  28  30
ATOM     30  C   UNL     1      -6.139  11.430  19.653  0.00  0.00    +0.000 C 
ATOM     31  C   UNL     1      -7.537  12.003  19.405  0.00  0.00    +0.000 C 
ATOM     32  C   UNL     1      -7.614  13.142  18.387  0.00  0.00    +0.000 C 
ATOM     33  C   UNL     1      -6.590  13.151  17.249  0.00  0.00    +0.000 C 
ATOM     34  C   UNL     1      -5.323  12.324  17.439  0.00  0.00    +0.000 C 
ATOM     35  C   UNL     1      -5.519  11.079  18.296  0.00  0.00    +0.000 C 
ENDBRANCH  28  30
ENDBRANCH  23  26
ENDBRANCH  19  20
ENDBRANCH   5  19
TORSDOF 6
ENDMDL
