MODEL 1
REMARK VINA RESULT:      -7.9      0.000      0.000
REMARK  Name = 
REMARK  6 active torsions:
REMARK  status: ('A' for Active; 'I' for Inactive)
REMARK    1  A    between atoms: C_1  and  C_2
REMARK    2  A    between atoms: C_2  and  O_3
REMARK    3  A    between atoms: O_3  and  C_4
REMARK    4  A    between atoms: C_7  and  N_8
REMARK    5  A    between atoms: N_8  and  C_9
REMARK    6  A    between atoms: C_16  and  N_17
REMARK                            x       y       z     vdW  Elec       q    Type
REMARK                         _______ _______ _______ _____ _____    ______ ____
ROOT
ATOM      1  C   UNL     1       3.551   3.636  17.533  0.00  0.00    +0.000 A 
ATOM      2  N   UNL     1       3.790   2.626  18.359  0.00  0.00    +0.000 NA
ATOM      3  C   UNL     1       4.769   2.888  19.218  0.00  0.00    +0.000 A 
ATOM      4  N   UNL     1       5.536   3.986  19.184  0.00  0.00    +0.000 NA
ATOM      5  C   UNL     1       5.536   4.643  18.030  0.00  0.00    +0.000 A 
ATOM      6  C   UNL     1       6.579   5.510  17.755  0.00  0.00    +0.000 A 
ATOM      7  C   UNL     1       7.003   5.734  16.455  0.00  0.00    +0.000 A 
ATOM      8  C   UNL     1       6.376   5.048  15.420  0.00  0.00    +0.000 A 
ATOM      9  C   UNL     1       5.156   4.375  15.674  0.00  0.00    +0.000 A 
ATOM     10  C   UNL     1       4.656   4.313  17.004  0.00  0.00    +0.000 A 
ENDROOT
BRANCH   8  11
ATOM     11  N   UNL     1       7.096   4.917  14.141  0.00  0.00    +0.000 N 
ATOM     12  O   UNL     1       8.113   5.617  13.977  0.00  0.00    +0.000 OA
ATOM     13  O   UNL     1       6.677   4.094  13.317  0.00  0.00    +0.000 OA
ENDBRANCH   8  11
BRANCH   1  14
ATOM     14  N   UNL     1       2.356   4.286  17.977  0.00  0.00    +0.000 N 
ATOM     15  H   UNL     1       1.803   3.477  18.269  0.00  0.00    +0.000 HD
BRANCH  14  19
ATOM     16  C   UNL     1       1.673   7.687  20.495  0.00  0.00    +0.000 A 
ATOM     17  C   UNL     1       1.459   6.385  20.967  0.00  0.00    +0.000 A 
ATOM     18  C   UNL     1       1.669   5.248  20.163  0.00  0.00    +0.000 A 
ATOM     19  C   UNL     1       2.073   5.377  18.839  0.00  0.00    +0.000 A 
ATOM     20  C   UNL     1       2.343   6.698  18.385  0.00  0.00    +0.000 A 
ATOM     21  C   UNL     1       2.138   7.837  19.195  0.00  0.00    +0.000 A 
BRANCH  16  22
ATOM     22  O   UNL     1       1.360   8.688  21.378  0.00  0.00    +0.000 OA
BRANCH  22  24
ATOM     23  C   UNL     1      -0.067   9.686  23.043  0.00  0.00    +0.000 C 
ATOM     24  C   UNL     1      -0.006   8.862  21.761  0.00  0.00    +0.000 C 
ENDBRANCH  22  24
ENDBRANCH  16  22
ENDBRANCH  14  19
ENDBRANCH   1  14
TORSDOF 5
ENDMDL
MODEL 2
REMARK VINA RESULT:      -7.8      2.876      7.432
REMARK  Name = 
REMARK  6 active torsions:
REMARK  status: ('A' for Active; 'I' for Inactive)
REMARK    1  A    between atoms: C_1  and  C_2
REMARK    2  A    between atoms: C_2  and  O_3
REMARK    3  A    between atoms: O_3  and  C_4
REMARK    4  A    between atoms: C_7  and  N_8
REMARK    5  A    between atoms: N_8  and  C_9
REMARK    6  A    between atoms: C_16  and  N_17
REMARK                            x       y       z     vdW  Elec       q    Type
REMARK                         _______ _______ _______ _____ _____    ______ ____
ROOT
ATOM      1  C   UNL     1       6.938   6.207  16.783  0.00  0.00    +0.000 A 
ATOM      2  N   UNL     1       7.856   5.985  17.714  0.00  0.00    +0.000 NA
ATOM      3  C   UNL     1       7.516   5.006  18.545  0.00  0.00    +0.000 A 
ATOM      4  N   UNL     1       6.326   4.391  18.548  0.00  0.00    +0.000 NA
ATOM      5  C   UNL     1       5.348   5.044  17.932  0.00  0.00    +0.000 A 
ATOM      6  C   UNL     1       4.036   4.720  18.232  0.00  0.00    +0.000 A 
ATOM      7  C   UNL     1       3.028   5.669  18.164  0.00  0.00    +0.000 A 
ATOM      8  C   UNL     1       3.360   6.972  17.812  0.00  0.00    +0.000 A 
ATOM      9  C   UNL     1       4.637   7.237  17.258  0.00  0.00    +0.000 A 
ATOM     10  C   UNL     1       5.596   6.189  17.181  0.00  0.00    +0.000 A 
ENDROOT
BRANCH   8  11
ATOM     11  N   UNL     1       2.426   8.049  18.182  0.00  0.00    +0.000 N 
ATOM     12  O   UNL     1       2.149   8.897  17.312  0.00  0.00    +0.000 OA
ATOM     13  O   UNL     1       1.937   8.034  19.319  0.00  0.00    +0.000 OA
ENDBRANCH   8  11
BRANCH   1  14
ATOM     14  N   UNL     1       7.413   5.635  15.560  0.00  0.00    +0.000 N 
ATOM     15  H   UNL     1       8.238   5.135  15.899  0.00  0.00    +0.000 HD
BRANCH  14  19
ATOM     16  C   UNL     1       5.707   3.534  12.237  0.00  0.00    +0.000 A 
ATOM     17  C   UNL     1       5.008   3.665  13.444  0.00  0.00    +0.000 A 
ATOM     18  C   UNL     1       5.543   4.344  14.555  0.00  0.00    +0.000 A 
ATOM     19  C   UNL     1       6.820   4.893  14.507  0.00  0.00    +0.000 A 
ATOM     20  C   UNL     1       7.500   4.806  13.261  0.00  0.00    +0.000 A 
ATOM     21  C   UNL     1       6.959   4.129  12.145  0.00  0.00    +0.000 A 
BRANCH  16  22
ATOM     22  O   UNL     1       5.078   2.788  11.274  0.00  0.00    +0.000 OA
BRANCH  22  24
ATOM     23  C   UNL     1       3.355   3.930  10.035  0.00  0.00    +0.000 C 
ATOM     24  C   UNL     1       3.661   2.911  11.128  0.00  0.00    +0.000 C 
ENDBRANCH  22  24
ENDBRANCH  16  22
ENDBRANCH  14  19
ENDBRANCH   1  14
TORSDOF 5
ENDMDL
MODEL 3
REMARK VINA RESULT:      -7.8      1.957      2.281
REMARK  Name = 
REMARK  6 active torsions:
REMARK  status: ('A' for Active; 'I' for Inactive)
REMARK    1  A    between atoms: C_1  and  C_2
REMARK    2  A    between atoms: C_2  and  O_3
REMARK    3  A    between atoms: O_3  and  C_4
REMARK    4  A    between atoms: C_7  and  N_8
REMARK    5  A    between atoms: N_8  and  C_9
REMARK    6  A    between atoms: C_16  and  N_17
REMARK                            x       y       z     vdW  Elec       q    Type
REMARK                         _______ _______ _______ _____ _____    ______ ____
ROOT
ATOM      1  C   UNL     1       3.524   5.160  18.479  0.00  0.00    +0.000 A 
ATOM      2  N   UNL     1       3.080   4.027  19.006  0.00  0.00    +0.000 NA
ATOM      3  C   UNL     1       4.044   3.316  19.579  0.00  0.00    +0.000 A 
ATOM      4  N   UNL     1       5.348   3.621  19.523  0.00  0.00    +0.000 NA
ATOM      5  C   UNL     1       5.694   4.462  18.556  0.00  0.00    +0.000 A 
ATOM      6  C   UNL     1       7.017   4.510  18.152  0.00  0.00    +0.000 A 
ATOM      7  C   UNL     1       7.359   4.827  16.848  0.00  0.00    +0.000 A 
ATOM      8  C   UNL     1       6.342   5.075  15.932  0.00  0.00    +0.000 A 
ATOM      9  C   UNL     1       5.022   5.283  16.401  0.00  0.00    +0.000 A 
ATOM     10  C   UNL     1       4.738   5.118  17.785  0.00  0.00    +0.000 A 
ENDROOT
BRANCH   8  11
ATOM     11  N   UNL     1       6.657   4.949  14.498  0.00  0.00    +0.000 N 
ATOM     12  O   UNL     1       7.696   5.499  14.085  0.00  0.00    +0.000 OA
ATOM     13  O   UNL     1       5.898   4.276  13.790  0.00  0.00    +0.000 OA
ENDBRANCH   8  11
BRANCH   1  14
ATOM     14  N   UNL     1       3.146   6.225  19.358  0.00  0.00    +0.000 N 
ATOM     15  H   UNL     1       4.060   6.486  19.735  0.00  0.00    +0.000 HD
BRANCH  14  19
ATOM     16  C   UNL     1       0.874   9.821  18.829  0.00  0.00    +0.000 A 
ATOM     17  C   UNL     1       0.973   9.208  20.085  0.00  0.00    +0.000 A 
ATOM     18  C   UNL     1       1.707   8.023  20.290  0.00  0.00    +0.000 A 
ATOM     19  C   UNL     1       2.346   7.389  19.231  0.00  0.00    +0.000 A 
ATOM     20  C   UNL     1       2.288   8.047  17.971  0.00  0.00    +0.000 A 
ATOM     21  C   UNL     1       1.557   9.239  17.769  0.00  0.00    +0.000 A 
BRANCH  16  22
ATOM     22  O   UNL     1       0.069  10.929  18.782  0.00  0.00    +0.000 OA
BRANCH  22  24
ATOM     23  C   UNL     1      -1.966  11.336  17.557  0.00  0.00    +0.000 C 
ATOM     24  C   UNL     1      -1.348  10.750  18.823  0.00  0.00    +0.000 C 
ENDBRANCH  22  24
ENDBRANCH  16  22
ENDBRANCH  14  19
ENDBRANCH   1  14
TORSDOF 5
ENDMDL
MODEL 4
REMARK VINA RESULT:      -7.7      0.223      1.209
REMARK  Name = 
REMARK  6 active torsions:
REMARK  status: ('A' for Active; 'I' for Inactive)
REMARK    1  A    between atoms: C_1  and  C_2
REMARK    2  A    between atoms: C_2  and  O_3
REMARK    3  A    between atoms: O_3  and  C_4
REMARK    4  A    between atoms: C_7  and  N_8
REMARK    5  A    between atoms: N_8  and  C_9
REMARK    6  A    between atoms: C_16  and  N_17
REMARK                            x       y       z     vdW  Elec       q    Type
REMARK                         _______ _______ _______ _____ _____    ______ ____
ROOT
ATOM      1  C   UNL     1       3.539   3.815  17.525  0.00  0.00    +0.000 A 
ATOM      2  N   UNL     1       3.727   2.798  18.355  0.00  0.00    +0.000 NA
ATOM      3  C   UNL     1       4.727   3.007  19.204  0.00  0.00    +0.000 A 
ATOM      4  N   UNL     1       5.555   4.059  19.157  0.00  0.00    +0.000 NA
ATOM      5  C   UNL     1       5.583   4.709  18.000  0.00  0.00    +0.000 A 
ATOM      6  C   UNL     1       6.672   5.513  17.711  0.00  0.00    +0.000 A 
ATOM      7  C   UNL     1       7.097   5.705  16.406  0.00  0.00    +0.000 A 
ATOM      8  C   UNL     1       6.423   5.051  15.381  0.00  0.00    +0.000 A 
ATOM      9  C   UNL     1       5.169   4.450  15.648  0.00  0.00    +0.000 A 
ATOM     10  C   UNL     1       4.677   4.425  16.983  0.00  0.00    +0.000 A 
ENDROOT
BRANCH   8  11
ATOM     11  N   UNL     1       7.123   4.871  14.096  0.00  0.00    +0.000 N 
ATOM     12  O   UNL     1       6.648   4.047  13.292  0.00  0.00    +0.000 OA
ATOM     13  O   UNL     1       8.116   5.572  13.869  0.00  0.00    +0.000 OA
ENDBRANCH   8  11
BRANCH   1  14
ATOM     14  N   UNL     1       2.388   4.535  17.975  0.00  0.00    +0.000 N 
ATOM     15  H   UNL     1       1.811   3.764  18.319  0.00  0.00    +0.000 HD
BRANCH  14  19
ATOM     16  C   UNL     1       1.587   7.871  20.545  0.00  0.00    +0.000 A 
ATOM     17  C   UNL     1       2.013   8.063  19.224  0.00  0.00    +0.000 A 
ATOM     18  C   UNL     1       2.290   6.989  18.357  0.00  0.00    +0.000 A 
ATOM     19  C   UNL     1       2.179   5.674  18.795  0.00  0.00    +0.000 A 
ATOM     20  C   UNL     1       1.692   5.486  20.118  0.00  0.00    +0.000 A 
ATOM     21  C   UNL     1       1.409   6.565  20.985  0.00  0.00    +0.000 A 
BRANCH  16  22
ATOM     22  O   UNL     1       1.425   9.016  21.280  0.00  0.00    +0.000 OA
BRANCH  22  24
ATOM     23  C   UNL     1      -0.037   9.596  23.106  0.00  0.00    +0.000 C 
ATOM     24  C   UNL     1       0.098   9.448  21.594  0.00  0.00    +0.000 C 
ENDBRANCH  22  24
ENDBRANCH  16  22
ENDBRANCH  14  19
ENDBRANCH   1  14
TORSDOF 5
ENDMDL
MODEL 5
REMARK VINA RESULT:      -7.7      1.913      2.446
REMARK  Name = 
REMARK  6 active torsions:
REMARK  status: ('A' for Active; 'I' for Inactive)
REMARK    1  A    between atoms: C_1  and  C_2
REMARK    2  A    between atoms: C_2  and  O_3
REMARK    3  A    between atoms: O_3  and  C_4
REMARK    4  A    between atoms: C_7  and  N_8
REMARK    5  A    between atoms: N_8  and  C_9
REMARK    6  A    between atoms: C_16  and  N_17
REMARK                            x       y       z     vdW  Elec       q    Type
REMARK                         _______ _______ _______ _____ _____    ______ ____
ROOT
ATOM      1  C   UNL     1       3.497   5.131  18.458  0.00  0.00    +0.000 A 
ATOM      2  N   UNL     1       3.060   3.995  18.984  0.00  0.00    +0.000 NA
ATOM      3  C   UNL     1       4.026   3.297  19.570  0.00  0.00    +0.000 A 
ATOM      4  N   UNL     1       5.326   3.616  19.528  0.00  0.00    +0.000 NA
ATOM      5  C   UNL     1       5.673   4.458  18.562  0.00  0.00    +0.000 A 
ATOM      6  C   UNL     1       7.001   4.519  18.173  0.00  0.00    +0.000 A 
ATOM      7  C   UNL     1       7.353   4.836  16.871  0.00  0.00    +0.000 A 
ATOM      8  C   UNL     1       6.345   5.069  15.943  0.00  0.00    +0.000 A 
ATOM      9  C   UNL     1       5.017   5.264  16.396  0.00  0.00    +0.000 A 
ATOM     10  C   UNL     1       4.719   5.100  17.777  0.00  0.00    +0.000 A 
ENDROOT
BRANCH   8  11
ATOM     11  N   UNL     1       6.677   4.942  14.513  0.00  0.00    +0.000 N 
ATOM     12  O   UNL     1       5.890   4.296  13.794  0.00  0.00    +0.000 OA
ATOM     13  O   UNL     1       7.692   5.512  14.095  0.00  0.00    +0.000 OA
ENDBRANCH   8  11
BRANCH   1  14
ATOM     14  N   UNL     1       3.097   6.194  19.328  0.00  0.00    +0.000 N 
ATOM     15  H   UNL     1       3.979   6.378  19.812  0.00  0.00    +0.000 HD
BRANCH  14  19
ATOM     16  C   UNL     1       0.835   9.816  18.958  0.00  0.00    +0.000 A 
ATOM     17  C   UNL     1       1.454   9.235  17.844  0.00  0.00    +0.000 A 
ATOM     18  C   UNL     1       2.208   8.049  17.934  0.00  0.00    +0.000 A 
ATOM     19  C   UNL     1       2.397   7.416  19.157  0.00  0.00    +0.000 A 
ATOM     20  C   UNL     1       1.719   7.981  20.273  0.00  0.00    +0.000 A 
ATOM     21  C   UNL     1       0.958   9.167  20.180  0.00  0.00    +0.000 A 
BRANCH  16  22
ATOM     22  O   UNL     1       0.194  11.004  18.718  0.00  0.00    +0.000 OA
BRANCH  22  24
ATOM     23  C   UNL     1      -2.011  11.874  19.149  0.00  0.00    +0.000 C 
ATOM     24  C   UNL     1      -1.159  10.973  18.260  0.00  0.00    +0.000 C 
ENDBRANCH  22  24
ENDBRANCH  16  22
ENDBRANCH  14  19
ENDBRANCH   1  14
TORSDOF 5
ENDMDL
MODEL 6
REMARK VINA RESULT:      -7.5      2.034      2.594
REMARK  Name = 
REMARK  6 active torsions:
REMARK  status: ('A' for Active; 'I' for Inactive)
REMARK    1  A    between atoms: C_1  and  C_2
REMARK    2  A    between atoms: C_2  and  O_3
REMARK    3  A    between atoms: O_3  and  C_4
REMARK    4  A    between atoms: C_7  and  N_8
REMARK    5  A    between atoms: N_8  and  C_9
REMARK    6  A    between atoms: C_16  and  N_17
REMARK                            x       y       z     vdW  Elec       q    Type
REMARK                         _______ _______ _______ _____ _____    ______ ____
ROOT
ATOM      1  C   UNL     1       3.452   5.047  18.419  0.00  0.00    +0.000 A 
ATOM      2  N   UNL     1       3.044   3.909  18.965  0.00  0.00    +0.000 NA
ATOM      3  C   UNL     1       4.033   3.227  19.530  0.00  0.00    +0.000 A 
ATOM      4  N   UNL     1       5.328   3.561  19.450  0.00  0.00    +0.000 NA
ATOM      5  C   UNL     1       5.639   4.400  18.469  0.00  0.00    +0.000 A 
ATOM      6  C   UNL     1       6.955   4.473  18.044  0.00  0.00    +0.000 A 
ATOM      7  C   UNL     1       7.268   4.784  16.731  0.00  0.00    +0.000 A 
ATOM      8  C   UNL     1       6.232   4.998  15.828  0.00  0.00    +0.000 A 
ATOM      9  C   UNL     1       4.915   5.181  16.316  0.00  0.00    +0.000 A 
ATOM     10  C   UNL     1       4.657   5.025  17.706  0.00  0.00    +0.000 A 
ENDROOT
BRANCH   8  11
ATOM     11  N   UNL     1       6.527   4.864  14.391  0.00  0.00    +0.000 N 
ATOM     12  O   UNL     1       5.843   4.054  13.736  0.00  0.00    +0.000 OA
ATOM     13  O   UNL     1       7.406   5.585  13.904  0.00  0.00    +0.000 OA
ENDBRANCH   8  11
BRANCH   1  14
ATOM     14  N   UNL     1       3.063   6.112  19.292  0.00  0.00    +0.000 N 
ATOM     15  H   UNL     1       3.912   6.209  19.854  0.00  0.00    +0.000 HD
BRANCH  14  19
ATOM     16  C   UNL     1       1.132   9.914  18.871  0.00  0.00    +0.000 A 
ATOM     17  C   UNL     1       1.794   9.318  17.790  0.00  0.00    +0.000 A 
ATOM     18  C   UNL     1       2.443   8.072  17.898  0.00  0.00    +0.000 A 
ATOM     19  C   UNL     1       2.478   7.390  19.109  0.00  0.00    +0.000 A 
ATOM     20  C   UNL     1       1.755   7.975  20.186  0.00  0.00    +0.000 A 
ATOM     21  C   UNL     1       1.100   9.221  20.074  0.00  0.00    +0.000 A 
BRANCH  16  22
ATOM     22  O   UNL     1       0.608  11.157  18.622  0.00  0.00    +0.000 OA
BRANCH  22  24
ATOM     23  C   UNL     1       1.882  13.158  18.199  0.00  0.00    +0.000 C 
ATOM     24  C   UNL     1       1.204  12.291  19.255  0.00  0.00    +0.000 C 
ENDBRANCH  22  24
ENDBRANCH  16  22
ENDBRANCH  14  19
ENDBRANCH   1  14
TORSDOF 5
ENDMDL
MODEL 7
REMARK VINA RESULT:      -7.5      2.800      7.418
REMARK  Name = 
REMARK  6 active torsions:
REMARK  status: ('A' for Active; 'I' for Inactive)
REMARK    1  A    between atoms: C_1  and  C_2
REMARK    2  A    between atoms: C_2  and  O_3
REMARK    3  A    between atoms: O_3  and  C_4
REMARK    4  A    between atoms: C_7  and  N_8
REMARK    5  A    between atoms: N_8  and  C_9
REMARK    6  A    between atoms: C_16  and  N_17
REMARK                            x       y       z     vdW  Elec       q    Type
REMARK                         _______ _______ _______ _____ _____    ______ ____
ROOT
ATOM      1  C   UNL     1       6.933   6.393  17.169  0.00  0.00    +0.000 A 
ATOM      2  N   UNL     1       7.917   6.597  18.034  0.00  0.00    +0.000 NA
ATOM      3  C   UNL     1       7.802   5.852  19.127  0.00  0.00    +0.000 A 
ATOM      4  N   UNL     1       6.746   5.076  19.409  0.00  0.00    +0.000 NA
ATOM      5  C   UNL     1       5.637   5.358  18.735  0.00  0.00    +0.000 A 
ATOM      6  C   UNL     1       4.422   4.921  19.234  0.00  0.00    +0.000 A 
ATOM      7  C   UNL     1       3.256   5.634  19.008  0.00  0.00    +0.000 A 
ATOM      8  C   UNL     1       3.326   6.821  18.288  0.00  0.00    +0.000 A 
ATOM      9  C   UNL     1       4.505   7.124  17.564  0.00  0.00    +0.000 A 
ATOM     10  C   UNL     1       5.637   6.269  17.683  0.00  0.00    +0.000 A 
ENDROOT
BRANCH   8  11
ATOM     11  N   UNL     1       2.227   7.790  18.441  0.00  0.00    +0.000 N 
ATOM     12  O   UNL     1       1.789   7.988  19.590  0.00  0.00    +0.000 OA
ATOM     13  O   UNL     1       1.825   8.382  17.432  0.00  0.00    +0.000 OA
ENDBRANCH   8  11
BRANCH   1  14
ATOM     14  N   UNL     1       7.449   5.586  16.107  0.00  0.00    +0.000 N 
ATOM     15  H   UNL     1       7.923   4.855  16.644  0.00  0.00    +0.000 HD
BRANCH  14  19
ATOM     16  C   UNL     1       5.723   3.696  12.669  0.00  0.00    +0.000 A 
ATOM     17  C   UNL     1       6.944   4.378  12.581  0.00  0.00    +0.000 A 
ATOM     18  C   UNL     1       7.534   5.013  13.690  0.00  0.00    +0.000 A 
ATOM     19  C   UNL     1       6.902   5.016  14.929  0.00  0.00    +0.000 A 
ATOM     20  C   UNL     1       5.692   4.274  15.023  0.00  0.00    +0.000 A 
ATOM     21  C   UNL     1       5.104   3.632  13.911  0.00  0.00    +0.000 A 
BRANCH  16  22
ATOM     22  O   UNL     1       5.250   3.189  11.486  0.00  0.00    +0.000 OA
BRANCH  22  24
ATOM     23  C   UNL     1       3.404   3.912  10.116  0.00  0.00    +0.000 C 
ATOM     24  C   UNL     1       3.837   3.065  11.309  0.00  0.00    +0.000 C 
ENDBRANCH  22  24
ENDBRANCH  16  22
ENDBRANCH  14  19
ENDBRANCH   1  14
TORSDOF 5
ENDMDL
MODEL 8
REMARK VINA RESULT:      -7.5      1.943      2.278
REMARK  Name = 
REMARK  6 active torsions:
REMARK  status: ('A' for Active; 'I' for Inactive)
REMARK    1  A    between atoms: C_1  and  C_2
REMARK    2  A    between atoms: C_2  and  O_3
REMARK    3  A    between atoms: O_3  and  C_4
REMARK    4  A    between atoms: C_7  and  N_8
REMARK    5  A    between atoms: N_8  and  C_9
REMARK    6  A    between atoms: C_16  and  N_17
REMARK                            x       y       z     vdW  Elec       q    Type
REMARK                         _______ _______ _______ _____ _____    ______ ____
ROOT
ATOM      1  C   UNL     1       3.485   5.107  18.480  0.00  0.00    +0.000 A 
ATOM      2  N   UNL     1       3.031   3.964  18.977  0.00  0.00    +0.000 NA
ATOM      3  C   UNL     1       3.985   3.238  19.547  0.00  0.00    +0.000 A 
ATOM      4  N   UNL     1       5.290   3.540  19.516  0.00  0.00    +0.000 NA
ATOM      5  C   UNL     1       5.652   4.400  18.571  0.00  0.00    +0.000 A 
ATOM      6  C   UNL     1       6.981   4.452  18.187  0.00  0.00    +0.000 A 
ATOM      7  C   UNL     1       7.341   4.795  16.894  0.00  0.00    +0.000 A 
ATOM      8  C   UNL     1       6.338   5.065  15.970  0.00  0.00    +0.000 A 
ATOM      9  C   UNL     1       5.012   5.268  16.425  0.00  0.00    +0.000 A 
ATOM     10  C   UNL     1       4.709   5.075  17.801  0.00  0.00    +0.000 A 
ENDROOT
BRANCH   8  11
ATOM     11  N   UNL     1       6.671   4.968  14.538  0.00  0.00    +0.000 N 
ATOM     12  O   UNL     1       5.897   4.320  13.808  0.00  0.00    +0.000 OA
ATOM     13  O   UNL     1       7.676   5.564  14.130  0.00  0.00    +0.000 OA
ENDBRANCH   8  11
BRANCH   1  14
ATOM     14  N   UNL     1       3.098   6.154  19.376  0.00  0.00    +0.000 N 
ATOM     15  H   UNL     1       3.995   6.351  19.827  0.00  0.00    +0.000 HD
BRANCH  14  19
ATOM     16  C   UNL     1       1.055   9.884  18.849  0.00  0.00    +0.000 A 
ATOM     17  C   UNL     1       1.015   9.206  20.074  0.00  0.00    +0.000 A 
ATOM     18  C   UNL     1       1.671   7.977  20.277  0.00  0.00    +0.000 A 
ATOM     19  C   UNL     1       2.369   7.363  19.243  0.00  0.00    +0.000 A 
ATOM     20  C   UNL     1       2.453   8.084  18.020  0.00  0.00    +0.000 A 
ATOM     21  C   UNL     1       1.799   9.321  17.820  0.00  0.00    +0.000 A 
BRANCH  16  22
ATOM     22  O   UNL     1       0.311  11.035  18.792  0.00  0.00    +0.000 OA
BRANCH  22  24
ATOM     23  C   UNL     1       1.166  12.823  20.163  0.00  0.00    +0.000 C 
ATOM     24  C   UNL     1       0.993  12.290  18.744  0.00  0.00    +0.000 C 
ENDBRANCH  22  24
ENDBRANCH  16  22
ENDBRANCH  14  19
ENDBRANCH   1  14
TORSDOF 5
ENDMDL
MODEL 9
REMARK VINA RESULT:      -7.3      2.152      2.691
REMARK  Name = 
REMARK  6 active torsions:
REMARK  status: ('A' for Active; 'I' for Inactive)
REMARK    1  A    between atoms: C_1  and  C_2
REMARK    2  A    between atoms: C_2  and  O_3
REMARK    3  A    between atoms: O_3  and  C_4
REMARK    4  A    between atoms: C_7  and  N_8
REMARK    5  A    between atoms: N_8  and  C_9
REMARK    6  A    between atoms: C_16  and  N_17
REMARK                            x       y       z     vdW  Elec       q    Type
REMARK                         _______ _______ _______ _____ _____    ______ ____
ROOT
ATOM      1  C   UNL     1       3.413   6.078  17.843  0.00  0.00    +0.000 A 
ATOM      2  N   UNL     1       2.589   5.131  18.272  0.00  0.00    +0.000 NA
ATOM      3  C   UNL     1       3.209   4.199  18.986  0.00  0.00    +0.000 A 
ATOM      4  N   UNL     1       4.536   4.126  19.152  0.00  0.00    +0.000 NA
ATOM      5  C   UNL     1       5.257   4.806  18.268  0.00  0.00    +0.000 A 
ATOM      6  C   UNL     1       6.588   4.469  18.091  0.00  0.00    +0.000 A 
ATOM      7  C   UNL     1       7.213   4.636  16.865  0.00  0.00    +0.000 A 
ATOM      8  C   UNL     1       6.471   5.127  15.797  0.00  0.00    +0.000 A 
ATOM      9  C   UNL     1       5.204   5.710  16.043  0.00  0.00    +0.000 A 
ATOM     10  C   UNL     1       4.663   5.676  17.359  0.00  0.00    +0.000 A 
ENDROOT
BRANCH   8  11
ATOM     11  N   UNL     1       6.967   4.872  14.433  0.00  0.00    +0.000 N 
ATOM     12  O   UNL     1       6.382   4.002  13.761  0.00  0.00    +0.000 OA
ATOM     13  O   UNL     1       7.908   5.557  14.016  0.00  0.00    +0.000 OA
ENDBRANCH   8  11
BRANCH   1  14
ATOM     14  N   UNL     1       3.210   7.234  18.662  0.00  0.00    +0.000 N 
ATOM     15  H   UNL     1       4.056   7.765  18.444  0.00  0.00    +0.000 HD
BRANCH  14  19
ATOM     16  C   UNL     1       0.061  10.101  19.150  0.00  0.00    +0.000 A 
ATOM     17  C   UNL     1       0.488   9.307  20.223  0.00  0.00    +0.000 A 
ATOM     18  C   UNL     1       1.515   8.353  20.094  0.00  0.00    +0.000 A 
ATOM     19  C   UNL     1       2.135   8.136  18.868  0.00  0.00    +0.000 A 
ATOM     20  C   UNL     1       1.736   8.984  17.798  0.00  0.00    +0.000 A 
ATOM     21  C   UNL     1       0.710   9.945  17.931  0.00  0.00    +0.000 A 
BRANCH  16  22
ATOM     22  O   UNL     1      -0.993  10.934  19.421  0.00  0.00    +0.000 OA
BRANCH  22  24
ATOM     23  C   UNL     1      -2.711  10.198  17.900  0.00  0.00    +0.000 C 
ATOM     24  C   UNL     1      -1.826  11.360  18.341  0.00  0.00    +0.000 C 
ENDBRANCH  22  24
ENDBRANCH  16  22
ENDBRANCH  14  19
ENDBRANCH   1  14
TORSDOF 5
ENDMDL
