MODEL 1
REMARK VINA RESULT:      -7.3      0.000      0.000
REMARK  Name = 
REMARK  7 active torsions:
REMARK  status: ('A' for Active; 'I' for Inactive)
REMARK    1  A    between atoms: C_1  and  O_2
REMARK    2  A    between atoms: O_2  and  C_3
REMARK    3  A    between atoms: C_3  and  C_4
REMARK    4  A    between atoms: C_4  and  N_5
REMARK    5  A    between atoms: C_10  and  N_11
REMARK    6  A    between atoms: C_16  and  O_17
REMARK    7  A    between atoms: O_17  and  C_18
REMARK                            x       y       z     vdW  Elec       q    Type
REMARK                         _______ _______ _______ _____ _____    ______ ____
ROOT
ATOM      1  N   UNL     1       2.216   7.402  18.580  0.00  0.00    +0.000 N 
ATOM      2  C   UNL     1       2.251   7.017  19.891  0.00  0.00    +0.000 A 
ATOM      3  C   UNL     1       2.231   5.643  19.887  0.00  0.00    +0.000 A 
ATOM      4  C   UNL     1       2.222   5.290  18.524  0.00  0.00    +0.000 A 
ATOM      5  N   UNL     1       2.205   6.363  17.719  0.00  0.00    +0.000 NA
ATOM      6  C   UNL     1       2.241   3.873  18.031  0.00  0.00    +0.000 C 
ATOM      7  C   UNL     1       1.754   2.885  19.128  0.00  0.00    +0.000 C 
ATOM      8  C   UNL     1       2.087   3.210  20.601  0.00  0.00    +0.000 C 
ATOM      9  C   UNL     1       2.236   4.684  21.012  0.00  0.00    +0.000 C 
ENDROOT
BRANCH   6  10
ATOM     10  N   UNL     1       3.449   3.401  17.349  0.00  0.00    +0.000 N 
ATOM     11  C   UNL     1       4.654   4.015  17.638  0.00  0.00    +0.000 A 
ATOM     12  N   UNL     1       4.896   4.523  18.850  0.00  0.00    +0.000 NA
ATOM     13  C   UNL     1       6.100   5.072  19.078  0.00  0.00    +0.000 A 
ATOM     14  C   UNL     1       7.089   5.116  18.139  0.00  0.00    +0.000 A 
ATOM     15  C   UNL     1       6.754   4.561  16.930  0.00  0.00    +0.000 A 
ATOM     16  N   UNL     1       5.551   4.016  16.652  0.00  0.00    +0.000 NA
ATOM     17  H   UNL     1       3.358   3.468  16.339  0.00  0.00    +0.000 HD
BRANCH  15  18
ATOM     18  O   UNL     1       7.741   4.569  15.962  0.00  0.00    +0.000 OA
ATOM     19  C   UNL     1       7.218   4.789  14.655  0.00  0.00    +0.000 C 
ENDBRANCH  15  18
ENDBRANCH   6  10
BRANCH   1  20
ATOM     20  C   UNL     1       2.186   8.768  18.094  0.00  0.00    +0.000 C 
BRANCH  20  21
ATOM     21  C   UNL     1       1.159   9.605  18.842  0.00  0.00    +0.000 C 
BRANCH  21  23
ATOM     22  C   UNL     1      -0.774  10.906  18.512  0.00  0.00    +0.000 C 
ATOM     23  O   UNL     1       0.015   9.830  18.014  0.00  0.00    +0.000 OA
ENDBRANCH  21  23
ENDBRANCH  20  21
ENDBRANCH   1  20
TORSDOF 5
ENDMDL
MODEL 2
REMARK VINA RESULT:      -7.2      1.799      6.799
REMARK  Name = 
REMARK  7 active torsions:
REMARK  status: ('A' for Active; 'I' for Inactive)
REMARK    1  A    between atoms: C_1  and  O_2
REMARK    2  A    between atoms: O_2  and  C_3
REMARK    3  A    between atoms: C_3  and  C_4
REMARK    4  A    between atoms: C_4  and  N_5
REMARK    5  A    between atoms: C_10  and  N_11
REMARK    6  A    between atoms: C_16  and  O_17
REMARK    7  A    between atoms: O_17  and  C_18
REMARK                            x       y       z     vdW  Elec       q    Type
REMARK                         _______ _______ _______ _____ _____    ______ ____
ROOT
ATOM      1  N   UNL     1       5.418   4.676  18.199  0.00  0.00    +0.000 N 
ATOM      2  C   UNL     1       4.497   3.694  17.967  0.00  0.00    +0.000 A 
ATOM      3  C   UNL     1       3.364   4.062  18.652  0.00  0.00    +0.000 A 
ATOM      4  C   UNL     1       3.687   5.301  19.237  0.00  0.00    +0.000 A 
ATOM      5  N   UNL     1       4.947   5.679  18.970  0.00  0.00    +0.000 NA
ATOM      6  C   UNL     1       2.726   6.111  20.056  0.00  0.00    +0.000 C 
ATOM      7  C   UNL     1       1.572   5.230  20.610  0.00  0.00    +0.000 C 
ATOM      8  C   UNL     1       1.069   4.057  19.740  0.00  0.00    +0.000 C 
ATOM      9  C   UNL     1       2.060   3.378  18.780  0.00  0.00    +0.000 C 
ENDROOT
BRANCH   6  10
ATOM     10  N   UNL     1       2.245   7.377  19.496  0.00  0.00    +0.000 N 
ATOM     11  C   UNL     1       1.522   8.226  20.312  0.00  0.00    +0.000 A 
ATOM     12  N   UNL     1       1.754   8.285  21.626  0.00  0.00    +0.000 NA
ATOM     13  C   UNL     1       1.043   9.159  22.357  0.00  0.00    +0.000 A 
ATOM     14  C   UNL     1       0.114  10.001  21.817  0.00  0.00    +0.000 A 
ATOM     15  C   UNL     1      -0.047   9.878  20.460  0.00  0.00    +0.000 A 
ATOM     16  N   UNL     1       0.631   9.001  19.691  0.00  0.00    +0.000 NA
ATOM     17  H   UNL     1       1.651   7.224  18.685  0.00  0.00    +0.000 HD
BRANCH  15  18
ATOM     18  O   UNL     1      -0.965  10.732  19.876  0.00  0.00    +0.000 OA
ATOM     19  C   UNL     1      -0.981  12.016  20.493  0.00  0.00    +0.000 C 
ENDBRANCH  15  18
ENDBRANCH   6  10
BRANCH   1  20
ATOM     20  C   UNL     1       6.781   4.699  17.705  0.00  0.00    +0.000 C 
BRANCH  20  21
ATOM     21  C   UNL     1       7.069   5.968  16.915  0.00  0.00    +0.000 C 
BRANCH  21  23
ATOM     22  C   UNL     1       6.829   4.651  14.980  0.00  0.00    +0.000 C 
ATOM     23  O   UNL     1       7.622   5.634  15.639  0.00  0.00    +0.000 OA
ENDBRANCH  21  23
ENDBRANCH  20  21
ENDBRANCH   1  20
TORSDOF 5
ENDMDL
MODEL 3
REMARK VINA RESULT:      -7.0      1.766      6.457
REMARK  Name = 
REMARK  7 active torsions:
REMARK  status: ('A' for Active; 'I' for Inactive)
REMARK    1  A    between atoms: C_1  and  O_2
REMARK    2  A    between atoms: O_2  and  C_3
REMARK    3  A    between atoms: C_3  and  C_4
REMARK    4  A    between atoms: C_4  and  N_5
REMARK    5  A    between atoms: C_10  and  N_11
REMARK    6  A    between atoms: C_16  and  O_17
REMARK    7  A    between atoms: O_17  and  C_18
REMARK                            x       y       z     vdW  Elec       q    Type
REMARK                         _______ _______ _______ _____ _____    ______ ____
ROOT
ATOM      1  N   UNL     1       5.885   4.829  17.747  0.00  0.00    +0.000 N 
ATOM      2  C   UNL     1       5.063   3.942  17.111  0.00  0.00    +0.000 A 
ATOM      3  C   UNL     1       3.793   4.204  17.563  0.00  0.00    +0.000 A 
ATOM      4  C   UNL     1       3.945   5.292  18.443  0.00  0.00    +0.000 A 
ATOM      5  N   UNL     1       5.225   5.675  18.566  0.00  0.00    +0.000 NA
ATOM      6  C   UNL     1       2.802   5.956  19.152  0.00  0.00    +0.000 C 
ATOM      7  C   UNL     1       1.562   5.021  19.227  0.00  0.00    +0.000 C 
ATOM      8  C   UNL     1       1.304   4.059  18.047  0.00  0.00    +0.000 C 
ATOM      9  C   UNL     1       2.507   3.551  17.236  0.00  0.00    +0.000 C 
ENDROOT
BRANCH   6  10
ATOM     10  N   UNL     1       2.449   7.322  18.756  0.00  0.00    +0.000 N 
ATOM     11  C   UNL     1       1.731   8.102  19.644  0.00  0.00    +0.000 A 
ATOM     12  N   UNL     1       1.876   7.955  20.964  0.00  0.00    +0.000 NA
ATOM     13  C   UNL     1       1.179   8.770  21.772  0.00  0.00    +0.000 A 
ATOM     14  C   UNL     1       0.349   9.751  21.308  0.00  0.00    +0.000 A 
ATOM     15  C   UNL     1       0.274   9.834  19.941  0.00  0.00    +0.000 A 
ATOM     16  N   UNL     1       0.941   9.024  19.092  0.00  0.00    +0.000 NA
ATOM     17  H   UNL     1       1.903   7.332  17.899  0.00  0.00    +0.000 HD
BRANCH  15  18
ATOM     18  O   UNL     1      -0.540  10.831  19.436  0.00  0.00    +0.000 OA
ATOM     19  C   UNL     1       0.193  11.996  19.068  0.00  0.00    +0.000 C 
ENDBRANCH  15  18
ENDBRANCH   6  10
BRANCH   1  20
ATOM     20  C   UNL     1       7.326   4.905  17.608  0.00  0.00    +0.000 C 
BRANCH  20  21
ATOM     21  C   UNL     1       7.869   6.229  18.125  0.00  0.00    +0.000 C 
BRANCH  21  23
ATOM     22  C   UNL     1       7.788   8.527  17.623  0.00  0.00    +0.000 C 
ATOM     23  O   UNL     1       7.839   7.210  17.083  0.00  0.00    +0.000 OA
ENDBRANCH  21  23
ENDBRANCH  20  21
ENDBRANCH   1  20
TORSDOF 5
ENDMDL
MODEL 4
REMARK VINA RESULT:      -7.0      1.867      6.842
REMARK  Name = 
REMARK  7 active torsions:
REMARK  status: ('A' for Active; 'I' for Inactive)
REMARK    1  A    between atoms: C_1  and  O_2
REMARK    2  A    between atoms: O_2  and  C_3
REMARK    3  A    between atoms: C_3  and  C_4
REMARK    4  A    between atoms: C_4  and  N_5
REMARK    5  A    between atoms: C_10  and  N_11
REMARK    6  A    between atoms: C_16  and  O_17
REMARK    7  A    between atoms: O_17  and  C_18
REMARK                            x       y       z     vdW  Elec       q    Type
REMARK                         _______ _______ _______ _____ _____    ______ ____
ROOT
ATOM      1  N   UNL     1       4.260   4.538  16.903  0.00  0.00    +0.000 N 
ATOM      2  C   UNL     1       3.244   3.659  17.154  0.00  0.00    +0.000 A 
ATOM      3  C   UNL     1       2.540   4.179  18.213  0.00  0.00    +0.000 A 
ATOM      4  C   UNL     1       3.187   5.394  18.509  0.00  0.00    +0.000 A 
ATOM      5  N   UNL     1       4.246   5.616  17.715  0.00  0.00    +0.000 NA
ATOM      6  C   UNL     1       2.735   6.339  19.583  0.00  0.00    +0.000 C 
ATOM      7  C   UNL     1       1.846   5.617  20.634  0.00  0.00    +0.000 C 
ATOM      8  C   UNL     1       0.923   4.478  20.149  0.00  0.00    +0.000 C 
ATOM      9  C   UNL     1       1.355   3.655  18.924  0.00  0.00    +0.000 C 
ENDROOT
BRANCH   6  10
ATOM     10  N   UNL     1       2.177   7.630  19.170  0.00  0.00    +0.000 N 
ATOM     11  C   UNL     1       1.485   8.378  20.104  0.00  0.00    +0.000 A 
ATOM     12  N   UNL     1       1.803   8.331  21.400  0.00  0.00    +0.000 NA
ATOM     13  C   UNL     1       1.117   9.111  22.251  0.00  0.00    +0.000 A 
ATOM     14  C   UNL     1       0.128   9.962  21.850  0.00  0.00    +0.000 A 
ATOM     15  C   UNL     1      -0.122   9.951  20.501  0.00  0.00    +0.000 A 
ATOM     16  N   UNL     1       0.530   9.170  19.614  0.00  0.00    +0.000 NA
ATOM     17  H   UNL     1       1.534   7.526  18.389  0.00  0.00    +0.000 HD
BRANCH  15  18
ATOM     18  O   UNL     1      -1.103  10.817  20.056  0.00  0.00    +0.000 OA
ATOM     19  C   UNL     1      -1.271  11.938  20.921  0.00  0.00    +0.000 C 
ENDBRANCH  15  18
ENDBRANCH   6  10
BRANCH   1  20
ATOM     20  C   UNL     1       5.286   4.386  15.890  0.00  0.00    +0.000 C 
BRANCH  20  21
ATOM     21  C   UNL     1       6.457   5.327  16.133  0.00  0.00    +0.000 C 
BRANCH  21  23
ATOM     22  C   UNL     1       7.749   4.763  18.017  0.00  0.00    +0.000 C 
ATOM     23  O   UNL     1       7.585   4.590  16.613  0.00  0.00    +0.000 OA
ENDBRANCH  21  23
ENDBRANCH  20  21
ENDBRANCH   1  20
TORSDOF 5
ENDMDL
MODEL 5
REMARK VINA RESULT:      -6.9      1.649      2.094
REMARK  Name = 
REMARK  7 active torsions:
REMARK  status: ('A' for Active; 'I' for Inactive)
REMARK    1  A    between atoms: C_1  and  O_2
REMARK    2  A    between atoms: O_2  and  C_3
REMARK    3  A    between atoms: C_3  and  C_4
REMARK    4  A    between atoms: C_4  and  N_5
REMARK    5  A    between atoms: C_10  and  N_11
REMARK    6  A    between atoms: C_16  and  O_17
REMARK    7  A    between atoms: O_17  and  C_18
REMARK                            x       y       z     vdW  Elec       q    Type
REMARK                         _______ _______ _______ _____ _____    ______ ____
ROOT
ATOM      1  N   UNL     1       2.084   6.037  20.132  0.00  0.00    +0.000 N 
ATOM      2  C   UNL     1       2.417   4.938  20.873  0.00  0.00    +0.000 A 
ATOM      3  C   UNL     1       2.799   3.972  19.974  0.00  0.00    +0.000 A 
ATOM      4  C   UNL     1       2.697   4.596  18.716  0.00  0.00    +0.000 A 
ATOM      5  N   UNL     1       2.252   5.858  18.805  0.00  0.00    +0.000 NA
ATOM      6  C   UNL     1       3.058   3.926  17.423  0.00  0.00    +0.000 C 
ATOM      7  C   UNL     1       3.044   2.378  17.564  0.00  0.00    +0.000 C 
ATOM      8  C   UNL     1       3.475   1.765  18.914  0.00  0.00    +0.000 C 
ATOM      9  C   UNL     1       3.245   2.581  20.197  0.00  0.00    +0.000 C 
ENDROOT
BRANCH   6  10
ATOM     10  N   UNL     1       4.241   4.411  16.705  0.00  0.00    +0.000 N 
ATOM     11  C   UNL     1       5.274   4.967  17.436  0.00  0.00    +0.000 A 
ATOM     12  N   UNL     1       5.543   4.552  18.677  0.00  0.00    +0.000 NA
ATOM     13  C   UNL     1       6.584   5.105  19.319  0.00  0.00    +0.000 A 
ATOM     14  C   UNL     1       7.389   6.054  18.756  0.00  0.00    +0.000 A 
ATOM     15  C   UNL     1       7.043   6.409  17.477  0.00  0.00    +0.000 A 
ATOM     16  N   UNL     1       5.995   5.892  16.802  0.00  0.00    +0.000 NA
ATOM     17  H   UNL     1       3.995   5.120  16.019  0.00  0.00    +0.000 HD
BRANCH  15  18
ATOM     18  O   UNL     1       7.851   7.351  16.868  0.00  0.00    +0.000 OA
ATOM     19  C   UNL     1       7.946   8.555  17.624  0.00  0.00    +0.000 C 
ENDBRANCH  15  18
ENDBRANCH   6  10
BRANCH   1  20
ATOM     20  C   UNL     1       1.587   7.296  20.653  0.00  0.00    +0.000 C 
BRANCH  20  21
ATOM     21  C   UNL     1       1.723   8.417  19.633  0.00  0.00    +0.000 C 
BRANCH  21  23
ATOM     22  C   UNL     1       0.454  10.216  18.801  0.00  0.00    +0.000 C 
ATOM     23  O   UNL     1       0.838   9.491  19.965  0.00  0.00    +0.000 OA
ENDBRANCH  21  23
ENDBRANCH  20  21
ENDBRANCH   1  20
TORSDOF 5
ENDMDL
MODEL 6
REMARK VINA RESULT:      -6.8      3.443      7.101
REMARK  Name = 
REMARK  7 active torsions:
REMARK  status: ('A' for Active; 'I' for Inactive)
REMARK    1  A    between atoms: C_1  and  O_2
REMARK    2  A    between atoms: O_2  and  C_3
REMARK    3  A    between atoms: C_3  and  C_4
REMARK    4  A    between atoms: C_4  and  N_5
REMARK    5  A    between atoms: C_10  and  N_11
REMARK    6  A    between atoms: C_16  and  O_17
REMARK    7  A    between atoms: O_17  and  C_18
REMARK                            x       y       z     vdW  Elec       q    Type
REMARK                         _______ _______ _______ _____ _____    ______ ____
ROOT
ATOM      1  N   UNL     1       6.318   4.101  13.902  0.00  0.00    +0.000 N 
ATOM      2  C   UNL     1       7.269   4.983  14.331  0.00  0.00    +0.000 A 
ATOM      3  C   UNL     1       6.810   5.493  15.521  0.00  0.00    +0.000 A 
ATOM      4  C   UNL     1       5.589   4.829  15.746  0.00  0.00    +0.000 A 
ATOM      5  N   UNL     1       5.278   3.981  14.754  0.00  0.00    +0.000 NA
ATOM      6  C   UNL     1       4.739   5.040  16.965  0.00  0.00    +0.000 C 
ATOM      7  C   UNL     1       5.066   6.393  17.656  0.00  0.00    +0.000 C 
ATOM      8  C   UNL     1       6.525   6.897  17.619  0.00  0.00    +0.000 C 
ATOM      9  C   UNL     1       7.410   6.496  16.427  0.00  0.00    +0.000 C 
ENDROOT
BRANCH   6  10
ATOM     10  N   UNL     1       4.627   3.935  17.922  0.00  0.00    +0.000 N 
ATOM     11  C   UNL     1       3.484   3.844  18.693  0.00  0.00    +0.000 A 
ATOM     12  N   UNL     1       2.303   4.262  18.229  0.00  0.00    +0.000 NA
ATOM     13  C   UNL     1       1.224   4.110  19.013  0.00  0.00    +0.000 A 
ATOM     14  C   UNL     1       1.275   3.531  20.248  0.00  0.00    +0.000 A 
ATOM     15  C   UNL     1       2.526   3.122  20.635  0.00  0.00    +0.000 A 
ATOM     16  N   UNL     1       3.639   3.272  19.888  0.00  0.00    +0.000 NA
ATOM     17  H   UNL     1       5.394   3.941  18.590  0.00  0.00    +0.000 HD
BRANCH  15  18
ATOM     18  O   UNL     1       2.611   2.511  21.873  0.00  0.00    +0.000 OA
ATOM     19  C   UNL     1       1.329   2.226  22.427  0.00  0.00    +0.000 C 
ENDBRANCH  15  18
ENDBRANCH   6  10
BRANCH   1  20
ATOM     20  C   UNL     1       6.354   3.343  12.666  0.00  0.00    +0.000 C 
BRANCH  20  21
ATOM     21  C   UNL     1       5.005   3.356  11.962  0.00  0.00    +0.000 C 
BRANCH  21  23
ATOM     22  C   UNL     1       6.012   1.348  11.260  0.00  0.00    +0.000 C 
ATOM     23  O   UNL     1       4.844   2.160  11.193  0.00  0.00    +0.000 OA
ENDBRANCH  21  23
ENDBRANCH  20  21
ENDBRANCH   1  20
TORSDOF 5
ENDMDL
MODEL 7
REMARK VINA RESULT:      -6.8      1.892      7.404
REMARK  Name = 
REMARK  7 active torsions:
REMARK  status: ('A' for Active; 'I' for Inactive)
REMARK    1  A    between atoms: C_1  and  O_2
REMARK    2  A    between atoms: O_2  and  C_3
REMARK    3  A    between atoms: C_3  and  C_4
REMARK    4  A    between atoms: C_4  and  N_5
REMARK    5  A    between atoms: C_10  and  N_11
REMARK    6  A    between atoms: C_16  and  O_17
REMARK    7  A    between atoms: O_17  and  C_18
REMARK                            x       y       z     vdW  Elec       q    Type
REMARK                         _______ _______ _______ _____ _____    ______ ____
ROOT
ATOM      1  N   UNL     1       4.514   5.989  16.933  0.00  0.00    +0.000 N 
ATOM      2  C   UNL     1       4.041   5.022  17.774  0.00  0.00    +0.000 A 
ATOM      3  C   UNL     1       3.161   5.648  18.622  0.00  0.00    +0.000 A 
ATOM      4  C   UNL     1       3.141   6.988  18.190  0.00  0.00    +0.000 A 
ATOM      5  N   UNL     1       3.974   7.205  17.160  0.00  0.00    +0.000 NA
ATOM      6  C   UNL     1       2.277   8.049  18.805  0.00  0.00    +0.000 C 
ATOM      7  C   UNL     1       1.831   7.654  20.240  0.00  0.00    +0.000 C 
ATOM      8  C   UNL     1       1.575   6.160  20.539  0.00  0.00    +0.000 C 
ATOM      9  C   UNL     1       2.364   5.107  19.744  0.00  0.00    +0.000 C 
ENDROOT
BRANCH   6  10
ATOM     10  N   UNL     1       1.173   8.584  18.003  0.00  0.00    +0.000 N 
ATOM     11  C   UNL     1       0.677   9.836  18.315  0.00  0.00    +0.000 A 
ATOM     12  N   UNL     1       1.469  10.785  18.823  0.00  0.00    +0.000 NA
ATOM     13  C   UNL     1       0.934  11.992  19.067  0.00  0.00    +0.000 A 
ATOM     14  C   UNL     1      -0.369  12.298  18.803  0.00  0.00    +0.000 A 
ATOM     15  C   UNL     1      -1.101  11.266  18.272  0.00  0.00    +0.000 A 
ATOM     16  N   UNL     1      -0.611  10.033  18.028  0.00  0.00    +0.000 NA
ATOM     17  H   UNL     1       0.363   7.969  18.026  0.00  0.00    +0.000 HD
BRANCH  15  18
ATOM     18  O   UNL     1      -2.421  11.548  17.971  0.00  0.00    +0.000 OA
ATOM     19  C   UNL     1      -3.135  12.068  19.090  0.00  0.00    +0.000 C 
ENDBRANCH  15  18
ENDBRANCH   6  10
BRANCH   1  20
ATOM     20  C   UNL     1       5.500   5.800  15.886  0.00  0.00    +0.000 C 
BRANCH  20  21
ATOM     21  C   UNL     1       6.131   4.418  15.954  0.00  0.00    +0.000 C 
BRANCH  21  23
ATOM     22  C   UNL     1       7.720   4.576  17.682  0.00  0.00    +0.000 C 
ATOM     23  O   UNL     1       7.521   4.530  16.273  0.00  0.00    +0.000 OA
ENDBRANCH  21  23
ENDBRANCH  20  21
ENDBRANCH   1  20
TORSDOF 5
ENDMDL
MODEL 8
REMARK VINA RESULT:      -6.8      1.948      7.355
REMARK  Name = 
REMARK  7 active torsions:
REMARK  status: ('A' for Active; 'I' for Inactive)
REMARK    1  A    between atoms: C_1  and  O_2
REMARK    2  A    between atoms: O_2  and  C_3
REMARK    3  A    between atoms: C_3  and  C_4
REMARK    4  A    between atoms: C_4  and  N_5
REMARK    5  A    between atoms: C_10  and  N_11
REMARK    6  A    between atoms: C_16  and  O_17
REMARK    7  A    between atoms: O_17  and  C_18
REMARK                            x       y       z     vdW  Elec       q    Type
REMARK                         _______ _______ _______ _____ _____    ______ ____
ROOT
ATOM      1  N   UNL     1       4.530   6.155  17.073  0.00  0.00    +0.000 N 
ATOM      2  C   UNL     1       4.074   5.196  17.934  0.00  0.00    +0.000 A 
ATOM      3  C   UNL     1       3.167   5.820  18.757  0.00  0.00    +0.000 A 
ATOM      4  C   UNL     1       3.116   7.147  18.289  0.00  0.00    +0.000 A 
ATOM      5  N   UNL     1       3.954   7.361  17.263  0.00  0.00    +0.000 NA
ATOM      6  C   UNL     1       2.217   8.200  18.867  0.00  0.00    +0.000 C 
ATOM      7  C   UNL     1       1.765   7.830  20.308  0.00  0.00    +0.000 C 
ATOM      8  C   UNL     1       1.546   6.338  20.642  0.00  0.00    +0.000 C 
ATOM      9  C   UNL     1       2.373   5.287  19.883  0.00  0.00    +0.000 C 
ENDROOT
BRANCH   6  10
ATOM     10  N   UNL     1       1.108   8.684  18.040  0.00  0.00    +0.000 N 
ATOM     11  C   UNL     1       0.590   9.939  18.299  0.00  0.00    +0.000 A 
ATOM     12  N   UNL     1       1.364  10.920  18.772  0.00  0.00    +0.000 NA
ATOM     13  C   UNL     1       0.809  12.127  18.966  0.00  0.00    +0.000 A 
ATOM     14  C   UNL     1      -0.499  12.401  18.684  0.00  0.00    +0.000 A 
ATOM     15  C   UNL     1      -1.211  11.337  18.192  0.00  0.00    +0.000 A 
ATOM     16  N   UNL     1      -0.699  10.104  17.999  0.00  0.00    +0.000 NA
ATOM     17  H   UNL     1       0.308   8.057  18.085  0.00  0.00    +0.000 HD
BRANCH  15  18
ATOM     18  O   UNL     1      -2.534  11.585  17.874  0.00  0.00    +0.000 OA
ATOM     19  C   UNL     1      -2.892  11.066  16.596  0.00  0.00    +0.000 C 
ENDBRANCH  15  18
ENDBRANCH   6  10
BRANCH   1  20
ATOM     20  C   UNL     1       5.532   5.966  16.042  0.00  0.00    +0.000 C 
BRANCH  20  21
ATOM     21  C   UNL     1       6.741   5.206  16.569  0.00  0.00    +0.000 C 
BRANCH  21  23
ATOM     22  C   UNL     1       6.827   4.708  14.271  0.00  0.00    +0.000 C 
ATOM     23  O   UNL     1       7.574   4.799  15.480  0.00  0.00    +0.000 OA
ENDBRANCH  21  23
ENDBRANCH  20  21
ENDBRANCH   1  20
TORSDOF 5
ENDMDL
MODEL 9
REMARK VINA RESULT:      -6.8      2.717      4.611
REMARK  Name = 
REMARK  7 active torsions:
REMARK  status: ('A' for Active; 'I' for Inactive)
REMARK    1  A    between atoms: C_1  and  O_2
REMARK    2  A    between atoms: O_2  and  C_3
REMARK    3  A    between atoms: C_3  and  C_4
REMARK    4  A    between atoms: C_4  and  N_5
REMARK    5  A    between atoms: C_10  and  N_11
REMARK    6  A    between atoms: C_16  and  O_17
REMARK    7  A    between atoms: O_17  and  C_18
REMARK                            x       y       z     vdW  Elec       q    Type
REMARK                         _______ _______ _______ _____ _____    ______ ____
ROOT
ATOM      1  N   UNL     1       2.660   4.649  20.497  0.00  0.00    +0.000 N 
ATOM      2  C   UNL     1       2.116   5.850  20.139  0.00  0.00    +0.000 A 
ATOM      3  C   UNL     1       2.834   6.288  19.053  0.00  0.00    +0.000 A 
ATOM      4  C   UNL     1       3.768   5.264  18.806  0.00  0.00    +0.000 A 
ATOM      5  N   UNL     1       3.671   4.260  19.692  0.00  0.00    +0.000 NA
ATOM      6  C   UNL     1       4.750   5.288  17.673  0.00  0.00    +0.000 C 
ATOM      7  C   UNL     1       4.978   6.734  17.151  0.00  0.00    +0.000 C 
ATOM      8  C   UNL     1       3.784   7.714  17.178  0.00  0.00    +0.000 C 
ATOM      9  C   UNL     1       2.706   7.528  18.259  0.00  0.00    +0.000 C 
ENDROOT
BRANCH   6  10
ATOM     10  N   UNL     1       4.566   4.323  16.585  0.00  0.00    +0.000 N 
ATOM     11  C   UNL     1       5.410   4.392  15.492  0.00  0.00    +0.000 A 
ATOM     12  N   UNL     1       6.673   4.809  15.620  0.00  0.00    +0.000 NA
ATOM     13  C   UNL     1       7.452   4.816  14.526  0.00  0.00    +0.000 A 
ATOM     14  C   UNL     1       7.020   4.399  13.300  0.00  0.00    +0.000 A 
ATOM     15  C   UNL     1       5.715   3.978  13.268  0.00  0.00    +0.000 A 
ATOM     16  N   UNL     1       4.892   3.972  14.337  0.00  0.00    +0.000 NA
ATOM     17  H   UNL     1       3.629   4.375  16.195  0.00  0.00    +0.000 HD
BRANCH  15  18
ATOM     18  O   UNL     1       5.251   3.527  12.046  0.00  0.00    +0.000 OA
ATOM     19  C   UNL     1       5.747   2.231  11.721  0.00  0.00    +0.000 C 
ENDBRANCH  15  18
ENDBRANCH   6  10
BRANCH   1  20
ATOM     20  C   UNL     1       2.247   3.827  21.617  0.00  0.00    +0.000 C 
BRANCH  20  21
ATOM     21  C   UNL     1       1.520   2.573  21.154  0.00  0.00    +0.000 C 
BRANCH  21  23
ATOM     22  C   UNL     1       0.896   2.197  18.917  0.00  0.00    +0.000 C 
ATOM     23  O   UNL     1       0.592   2.901  20.117  0.00  0.00    +0.000 OA
ENDBRANCH  21  23
ENDBRANCH  20  21
ENDBRANCH   1  20
TORSDOF 5
ENDMDL
