MODEL 1
REMARK VINA RESULT:      -7.5      0.000      0.000
REMARK  Name = 
REMARK  7 active torsions:
REMARK  status: ('A' for Active; 'I' for Inactive)
REMARK    1  A    between atoms: C_2  and  C_3
REMARK    2  A    between atoms: C_6  and  C_7
REMARK    3  A    between atoms: N_9  and  C_10
REMARK    4  A    between atoms: C_13  and  N_14
REMARK    5  A    between atoms: C_18  and  O_19
REMARK    6  A    between atoms: O_19  and  C_20
REMARK    7  A    between atoms: C_20  and  C_21
REMARK                            x       y       z     vdW  Elec       q    Type
REMARK                         _______ _______ _______ _____ _____    ______ ____
ROOT
ATOM      1  C   UNL     1       4.935   4.961  19.303  0.00  0.00    +0.000 A 
ATOM      2  C   UNL     1       5.062   3.562  19.305  0.00  0.00    +0.000 A 
ATOM      3  C   UNL     1       3.977   2.752  18.973  0.00  0.00    +0.000 A 
ATOM      4  C   UNL     1       2.751   3.349  18.671  0.00  0.00    +0.000 A 
ATOM      5  C   UNL     1       2.603   4.740  18.720  0.00  0.00    +0.000 A 
ATOM      6  C   UNL     1       3.683   5.558  19.083  0.00  0.00    +0.000 A 
ENDROOT
BRANCH   1   9
ATOM      7  C   UNL     1       6.995   6.045  18.415  0.00  0.00    +0.000 C 
ATOM      8  O   UNL     1       7.924   6.820  18.647  0.00  0.00    +0.000 OA
ATOM      9  N   UNL     1       6.133   5.690  19.450  0.00  0.00    +0.000 N 
ATOM     10  H   UNL     1       6.114   6.439  20.134  0.00  0.00    +0.000 HD
BRANCH   7  14
ATOM     11  C   UNL     1       5.852   4.592  14.552  0.00  0.00    +0.000 A 
ATOM     12  C   UNL     1       6.855   3.927  15.256  0.00  0.00    +0.000 A 
ATOM     13  C   UNL     1       7.348   4.475  16.439  0.00  0.00    +0.000 A 
ATOM     14  C   UNL     1       6.760   5.608  17.004  0.00  0.00    +0.000 A 
ATOM     15  C   UNL     1       5.823   6.324  16.246  0.00  0.00    +0.000 A 
ATOM     16  C   UNL     1       5.378   5.821  15.018  0.00  0.00    +0.000 A 
BRANCH  11  18
ATOM     17  N   UNL     1       4.862   3.502  12.421  0.00  0.00    +0.000 NA
ATOM     18  C   UNL     1       5.315   4.003  13.369  0.00  0.00    +0.000 C 
ENDBRANCH  11  18
ENDBRANCH   7  14
ENDBRANCH   1   9
BRANCH   4  19
ATOM     19  N   UNL     1       1.600   2.522  18.295  0.00  0.00    +0.000 N 
ATOM     20  O   UNL     1       1.730   1.764  17.327  0.00  0.00    +0.000 OA
ATOM     21  O   UNL     1       0.565   2.637  18.968  0.00  0.00    +0.000 OA
ENDBRANCH   4  19
BRANCH   6  22
ATOM     22  O   UNL     1       3.575   6.922  19.196  0.00  0.00    +0.000 OA
BRANCH  22  23
ATOM     23  C   UNL     1       2.765   7.541  18.180  0.00  0.00    +0.000 C 
BRANCH  23  24
ATOM     24  C   UNL     1       1.743   8.489  18.747  0.00  0.00    +0.000 A 
ATOM     25  C   UNL     1       1.094   9.441  17.957  0.00  0.00    +0.000 A 
ATOM     26  C   UNL     1       0.189  10.330  18.536  0.00  0.00    +0.000 A 
ATOM     27  C   UNL     1      -0.088  10.262  19.901  0.00  0.00    +0.000 A 
ATOM     28  C   UNL     1       0.520   9.289  20.691  0.00  0.00    +0.000 A 
ATOM     29  C   UNL     1       1.425   8.401  20.114  0.00  0.00    +0.000 A 
ENDBRANCH  23  24
ENDBRANCH  22  23
ENDBRANCH   6  22
TORSDOF 7
ENDMDL
MODEL 2
REMARK VINA RESULT:      -7.5      0.108      1.088
REMARK  Name = 
REMARK  7 active torsions:
REMARK  status: ('A' for Active; 'I' for Inactive)
REMARK    1  A    between atoms: C_2  and  C_3
REMARK    2  A    between atoms: C_6  and  C_7
REMARK    3  A    between atoms: N_9  and  C_10
REMARK    4  A    between atoms: C_13  and  N_14
REMARK    5  A    between atoms: C_18  and  O_19
REMARK    6  A    between atoms: O_19  and  C_20
REMARK    7  A    between atoms: C_20  and  C_21
REMARK                            x       y       z     vdW  Elec       q    Type
REMARK                         _______ _______ _______ _____ _____    ______ ____
ROOT
ATOM      1  C   UNL     1       4.931   4.945  19.320  0.00  0.00    +0.000 A 
ATOM      2  C   UNL     1       5.074   3.549  19.243  0.00  0.00    +0.000 A 
ATOM      3  C   UNL     1       3.987   2.743  18.910  0.00  0.00    +0.000 A 
ATOM      4  C   UNL     1       2.744   3.338  18.684  0.00  0.00    +0.000 A 
ATOM      5  C   UNL     1       2.582   4.723  18.812  0.00  0.00    +0.000 A 
ATOM      6  C   UNL     1       3.665   5.535  19.177  0.00  0.00    +0.000 A 
ENDROOT
BRANCH   1   9
ATOM      7  C   UNL     1       6.979   6.043  18.421  0.00  0.00    +0.000 C 
ATOM      8  O   UNL     1       7.905   6.823  18.649  0.00  0.00    +0.000 OA
ATOM      9  N   UNL     1       6.126   5.681  19.460  0.00  0.00    +0.000 N 
ATOM     10  H   UNL     1       6.106   6.429  20.146  0.00  0.00    +0.000 HD
BRANCH   7  14
ATOM     11  C   UNL     1       5.829   4.577  14.566  0.00  0.00    +0.000 A 
ATOM     12  C   UNL     1       6.862   3.940  15.251  0.00  0.00    +0.000 A 
ATOM     13  C   UNL     1       7.354   4.497  16.430  0.00  0.00    +0.000 A 
ATOM     14  C   UNL     1       6.738   5.607  17.011  0.00  0.00    +0.000 A 
ATOM     15  C   UNL     1       5.768   6.296  16.271  0.00  0.00    +0.000 A 
ATOM     16  C   UNL     1       5.322   5.786  15.046  0.00  0.00    +0.000 A 
BRANCH  11  18
ATOM     17  N   UNL     1       4.874   3.463  12.430  0.00  0.00    +0.000 NA
ATOM     18  C   UNL     1       5.294   3.978  13.387  0.00  0.00    +0.000 C 
ENDBRANCH  11  18
ENDBRANCH   7  14
ENDBRANCH   1   9
BRANCH   4  19
ATOM     19  N   UNL     1       1.589   2.517  18.308  0.00  0.00    +0.000 N 
ATOM     20  O   UNL     1       0.575   2.599  19.010  0.00  0.00    +0.000 OA
ATOM     21  O   UNL     1       1.702   1.787  17.313  0.00  0.00    +0.000 OA
ENDBRANCH   4  19
BRANCH   6  22
ATOM     22  O   UNL     1       3.546   6.890  19.366  0.00  0.00    +0.000 OA
BRANCH  22  23
ATOM     23  C   UNL     1       2.823   7.574  18.326  0.00  0.00    +0.000 C 
BRANCH  23  24
ATOM     24  C   UNL     1       1.753   8.486  18.863  0.00  0.00    +0.000 A 
ATOM     25  C   UNL     1       1.432   8.534  20.222  0.00  0.00    +0.000 A 
ATOM     26  C   UNL     1       0.400   9.359  20.668  0.00  0.00    +0.000 A 
ATOM     27  C   UNL     1      -0.303  10.156  19.764  0.00  0.00    +0.000 A 
ATOM     28  C   UNL     1       0.038  10.149  18.414  0.00  0.00    +0.000 A 
ATOM     29  C   UNL     1       1.067   9.324  17.967  0.00  0.00    +0.000 A 
ENDBRANCH  23  24
ENDBRANCH  22  23
ENDBRANCH   6  22
TORSDOF 7
ENDMDL
MODEL 3
REMARK VINA RESULT:      -7.4      2.280      7.669
REMARK  Name = 
REMARK  7 active torsions:
REMARK  status: ('A' for Active; 'I' for Inactive)
REMARK    1  A    between atoms: C_2  and  C_3
REMARK    2  A    between atoms: C_6  and  C_7
REMARK    3  A    between atoms: N_9  and  C_10
REMARK    4  A    between atoms: C_13  and  N_14
REMARK    5  A    between atoms: C_18  and  O_19
REMARK    6  A    between atoms: O_19  and  C_20
REMARK    7  A    between atoms: C_20  and  C_21
REMARK                            x       y       z     vdW  Elec       q    Type
REMARK                         _______ _______ _______ _____ _____    ______ ____
ROOT
ATOM      1  C   UNL     1       5.476   4.001  17.473  0.00  0.00    +0.000 A 
ATOM      2  C   UNL     1       6.006   4.361  18.723  0.00  0.00    +0.000 A 
ATOM      3  C   UNL     1       6.715   5.552  18.876  0.00  0.00    +0.000 A 
ATOM      4  C   UNL     1       6.920   6.368  17.761  0.00  0.00    +0.000 A 
ATOM      5  C   UNL     1       6.441   5.989  16.501  0.00  0.00    +0.000 A 
ATOM      6  C   UNL     1       5.754   4.778  16.336  0.00  0.00    +0.000 A 
ENDROOT
BRANCH   1   9
ATOM      7  C   UNL     1       3.296   2.887  17.940  0.00  0.00    +0.000 C 
ATOM      8  O   UNL     1       2.587   1.902  17.732  0.00  0.00    +0.000 OA
ATOM      9  N   UNL     1       4.607   2.891  17.467  0.00  0.00    +0.000 N 
ATOM     10  H   UNL     1       4.665   2.288  16.653  0.00  0.00    +0.000 HD
BRANCH   7  14
ATOM     11  C   UNL     1       2.050   6.528  19.817  0.00  0.00    +0.000 A 
ATOM     12  C   UNL     1       2.074   5.354  20.568  0.00  0.00    +0.000 A 
ATOM     13  C   UNL     1       2.324   4.137  19.937  0.00  0.00    +0.000 A 
ATOM     14  C   UNL     1       2.686   4.088  18.589  0.00  0.00    +0.000 A 
ATOM     15  C   UNL     1       2.565   5.254  17.822  0.00  0.00    +0.000 A 
ATOM     16  C   UNL     1       2.238   6.470  18.434  0.00  0.00    +0.000 A 
BRANCH  11  18
ATOM     17  N   UNL     1       1.653   8.786  21.025  0.00  0.00    +0.000 NA
ATOM     18  C   UNL     1       1.845   7.778  20.474  0.00  0.00    +0.000 C 
ENDBRANCH  11  18
ENDBRANCH   7  14
ENDBRANCH   1   9
BRANCH   4  19
ATOM     19  N   UNL     1       7.641   7.638  17.898  0.00  0.00    +0.000 N 
ATOM     20  O   UNL     1       8.505   7.713  18.779  0.00  0.00    +0.000 OA
ATOM     21  O   UNL     1       7.337   8.558  17.126  0.00  0.00    +0.000 OA
ENDBRANCH   4  19
BRANCH   6  22
ATOM     22  O   UNL     1       5.311   4.337  15.114  0.00  0.00    +0.000 OA
BRANCH  22  23
ATOM     23  C   UNL     1       6.147   4.718  14.006  0.00  0.00    +0.000 C 
BRANCH  23  24
ATOM     24  C   UNL     1       6.106   3.723  12.877  0.00  0.00    +0.000 A 
ATOM     25  C   UNL     1       4.903   3.270  12.330  0.00  0.00    +0.000 A 
ATOM     26  C   UNL     1       4.912   2.311  11.318  0.00  0.00    +0.000 A 
ATOM     27  C   UNL     1       6.121   1.814  10.831  0.00  0.00    +0.000 A 
ATOM     28  C   UNL     1       7.328   2.290  11.339  0.00  0.00    +0.000 A 
ATOM     29  C   UNL     1       7.320   3.246  12.352  0.00  0.00    +0.000 A 
ENDBRANCH  23  24
ENDBRANCH  22  23
ENDBRANCH   6  22
TORSDOF 7
ENDMDL
MODEL 4
REMARK VINA RESULT:      -7.4      2.916      5.437
REMARK  Name = 
REMARK  7 active torsions:
REMARK  status: ('A' for Active; 'I' for Inactive)
REMARK    1  A    between atoms: C_2  and  C_3
REMARK    2  A    between atoms: C_6  and  C_7
REMARK    3  A    between atoms: N_9  and  C_10
REMARK    4  A    between atoms: C_13  and  N_14
REMARK    5  A    between atoms: C_18  and  O_19
REMARK    6  A    between atoms: O_19  and  C_20
REMARK    7  A    between atoms: C_20  and  C_21
REMARK                            x       y       z     vdW  Elec       q    Type
REMARK                         _______ _______ _______ _____ _____    ______ ____
ROOT
ATOM      1  C   UNL     1       4.680   5.266  17.745  0.00  0.00    +0.000 A 
ATOM      2  C   UNL     1       3.878   6.244  17.133  0.00  0.00    +0.000 A 
ATOM      3  C   UNL     1       2.949   6.968  17.879  0.00  0.00    +0.000 A 
ATOM      4  C   UNL     1       2.803   6.686  19.238  0.00  0.00    +0.000 A 
ATOM      5  C   UNL     1       3.560   5.676  19.844  0.00  0.00    +0.000 A 
ATOM      6  C   UNL     1       4.474   4.924  19.092  0.00  0.00    +0.000 A 
ENDROOT
BRANCH   1   9
ATOM      7  C   UNL     1       7.017   5.249  16.880  0.00  0.00    +0.000 C 
ATOM      8  O   UNL     1       7.881   4.606  16.282  0.00  0.00    +0.000 OA
ATOM      9  N   UNL     1       5.723   4.739  16.956  0.00  0.00    +0.000 N 
ATOM     10  H   UNL     1       5.764   3.726  16.896  0.00  0.00    +0.000 HD
BRANCH   7  14
ATOM     11  C   UNL     1       8.592   8.835  18.611  0.00  0.00    +0.000 A 
ATOM     12  C   UNL     1       8.696   7.639  19.320  0.00  0.00    +0.000 A 
ATOM     13  C   UNL     1       8.051   6.498  18.846  0.00  0.00    +0.000 A 
ATOM     14  C   UNL     1       7.419   6.496  17.601  0.00  0.00    +0.000 A 
ATOM     15  C   UNL     1       7.235   7.719  16.943  0.00  0.00    +0.000 A 
ATOM     16  C   UNL     1       7.813   8.888  17.453  0.00  0.00    +0.000 A 
BRANCH  11  18
ATOM     17  N   UNL     1       9.862  10.921  19.477  0.00  0.00    +0.000 NA
ATOM     18  C   UNL     1       9.294   9.988  19.072  0.00  0.00    +0.000 C 
ENDBRANCH  11  18
ENDBRANCH   7  14
ENDBRANCH   1   9
BRANCH   4  19
ATOM     19  N   UNL     1       1.851   7.449  20.052  0.00  0.00    +0.000 N 
ATOM     20  O   UNL     1       1.357   6.885  21.035  0.00  0.00    +0.000 OA
ATOM     21  O   UNL     1       1.596   8.610  19.701  0.00  0.00    +0.000 OA
ENDBRANCH   4  19
BRANCH   6  22
ATOM     22  O   UNL     1       5.201   3.890  19.627  0.00  0.00    +0.000 OA
BRANCH  22  23
ATOM     23  C   UNL     1       4.603   2.592  19.458  0.00  0.00    +0.000 C 
BRANCH  23  24
ATOM     24  C   UNL     1       3.110   2.610  19.645  0.00  0.00    +0.000 A 
ATOM     25  C   UNL     1       2.226   2.476  18.572  0.00  0.00    +0.000 A 
ATOM     26  C   UNL     1       0.850   2.547  18.787  0.00  0.00    +0.000 A 
ATOM     27  C   UNL     1       0.348   2.732  20.075  0.00  0.00    +0.000 A 
ATOM     28  C   UNL     1       1.219   2.823  21.158  0.00  0.00    +0.000 A 
ATOM     29  C   UNL     1       2.594   2.754  20.944  0.00  0.00    +0.000 A 
ENDBRANCH  23  24
ENDBRANCH  22  23
ENDBRANCH   6  22
TORSDOF 7
ENDMDL
MODEL 5
REMARK VINA RESULT:      -7.2      2.659      5.525
REMARK  Name = 
REMARK  7 active torsions:
REMARK  status: ('A' for Active; 'I' for Inactive)
REMARK    1  A    between atoms: C_2  and  C_3
REMARK    2  A    between atoms: C_6  and  C_7
REMARK    3  A    between atoms: N_9  and  C_10
REMARK    4  A    between atoms: C_13  and  N_14
REMARK    5  A    between atoms: C_18  and  O_19
REMARK    6  A    between atoms: O_19  and  C_20
REMARK    7  A    between atoms: C_20  and  C_21
REMARK                            x       y       z     vdW  Elec       q    Type
REMARK                         _______ _______ _______ _____ _____    ______ ____
ROOT
ATOM      1  C   UNL     1       6.764   4.211  16.788  0.00  0.00    +0.000 A 
ATOM      2  C   UNL     1       7.567   4.740  15.764  0.00  0.00    +0.000 A 
ATOM      3  C   UNL     1       7.175   4.636  14.431  0.00  0.00    +0.000 A 
ATOM      4  C   UNL     1       5.987   3.970  14.123  0.00  0.00    +0.000 A 
ATOM      5  C   UNL     1       5.209   3.393  15.134  0.00  0.00    +0.000 A 
ATOM      6  C   UNL     1       5.614   3.468  16.474  0.00  0.00    +0.000 A 
ENDROOT
BRANCH   1   9
ATOM      7  C   UNL     1       6.398   5.328  18.986  0.00  0.00    +0.000 C 
ATOM      8  O   UNL     1       6.757   5.415  20.161  0.00  0.00    +0.000 OA
ATOM      9  N   UNL     1       7.141   4.546  18.105  0.00  0.00    +0.000 N 
ATOM     10  H   UNL     1       7.611   3.815  18.630  0.00  0.00    +0.000 HD
BRANCH   7  14
ATOM     11  C   UNL     1       2.918   7.630  18.022  0.00  0.00    +0.000 A 
ATOM     12  C   UNL     1       2.857   6.721  19.077  0.00  0.00    +0.000 A 
ATOM     13  C   UNL     1       3.924   5.854  19.303  0.00  0.00    +0.000 A 
ATOM     14  C   UNL     1       5.111   5.973  18.578  0.00  0.00    +0.000 A 
ATOM     15  C   UNL     1       5.130   6.818  17.460  0.00  0.00    +0.000 A 
ATOM     16  C   UNL     1       4.031   7.637  17.178  0.00  0.00    +0.000 A 
BRANCH  11  18
ATOM     17  N   UNL     1       0.969   9.292  17.634  0.00  0.00    +0.000 NA
ATOM     18  C   UNL     1       1.845   8.550  17.824  0.00  0.00    +0.000 C 
ENDBRANCH  11  18
ENDBRANCH   7  14
ENDBRANCH   1   9
BRANCH   4  19
ATOM     19  N   UNL     1       5.539   3.866  12.730  0.00  0.00    +0.000 N 
ATOM     20  O   UNL     1       4.342   3.628  12.530  0.00  0.00    +0.000 OA
ATOM     21  O   UNL     1       6.387   4.020  11.840  0.00  0.00    +0.000 OA
ENDBRANCH   4  19
BRANCH   6  22
ATOM     22  O   UNL     1       4.914   2.875  17.495  0.00  0.00    +0.000 OA
BRANCH  22  23
ATOM     23  C   UNL     1       3.493   2.796  17.274  0.00  0.00    +0.000 C 
BRANCH  23  24
ATOM     24  C   UNL     1       2.700   2.883  18.550  0.00  0.00    +0.000 A 
ATOM     25  C   UNL     1       1.370   3.308  18.570  0.00  0.00    +0.000 A 
ATOM     26  C   UNL     1       0.689   3.419  19.782  0.00  0.00    +0.000 A 
ATOM     27  C   UNL     1       1.325   3.087  20.979  0.00  0.00    +0.000 A 
ATOM     28  C   UNL     1       2.638   2.621  20.967  0.00  0.00    +0.000 A 
ATOM     29  C   UNL     1       3.319   2.512  19.757  0.00  0.00    +0.000 A 
ENDBRANCH  23  24
ENDBRANCH  22  23
ENDBRANCH   6  22
TORSDOF 7
ENDMDL
MODEL 6
REMARK VINA RESULT:      -7.1      2.654      5.564
REMARK  Name = 
REMARK  7 active torsions:
REMARK  status: ('A' for Active; 'I' for Inactive)
REMARK    1  A    between atoms: C_2  and  C_3
REMARK    2  A    between atoms: C_6  and  C_7
REMARK    3  A    between atoms: N_9  and  C_10
REMARK    4  A    between atoms: C_13  and  N_14
REMARK    5  A    between atoms: C_18  and  O_19
REMARK    6  A    between atoms: O_19  and  C_20
REMARK    7  A    between atoms: C_20  and  C_21
REMARK                            x       y       z     vdW  Elec       q    Type
REMARK                         _______ _______ _______ _____ _____    ______ ____
ROOT
ATOM      1  C   UNL     1       6.811   4.219  16.792  0.00  0.00    +0.000 A 
ATOM      2  C   UNL     1       7.582   4.775  15.757  0.00  0.00    +0.000 A 
ATOM      3  C   UNL     1       7.177   4.653  14.429  0.00  0.00    +0.000 A 
ATOM      4  C   UNL     1       6.010   3.943  14.137  0.00  0.00    +0.000 A 
ATOM      5  C   UNL     1       5.267   3.340  15.159  0.00  0.00    +0.000 A 
ATOM      6  C   UNL     1       5.686   3.434  16.494  0.00  0.00    +0.000 A 
ENDROOT
BRANCH   1   9
ATOM      7  C   UNL     1       6.445   5.353  18.981  0.00  0.00    +0.000 C 
ATOM      8  O   UNL     1       6.810   5.455  20.153  0.00  0.00    +0.000 OA
ATOM      9  N   UNL     1       7.192   4.571  18.104  0.00  0.00    +0.000 N 
ATOM     10  H   UNL     1       7.674   3.851  18.633  0.00  0.00    +0.000 HD
BRANCH   7  14
ATOM     11  C   UNL     1       2.926   7.600  18.030  0.00  0.00    +0.000 A 
ATOM     12  C   UNL     1       2.877   6.675  19.072  0.00  0.00    +0.000 A 
ATOM     13  C   UNL     1       3.960   5.826  19.292  0.00  0.00    +0.000 A 
ATOM     14  C   UNL     1       5.149   5.978  18.575  0.00  0.00    +0.000 A 
ATOM     15  C   UNL     1       5.156   6.839  17.469  0.00  0.00    +0.000 A 
ATOM     16  C   UNL     1       4.043   7.641  17.192  0.00  0.00    +0.000 A 
BRANCH  11  18
ATOM     17  N   UNL     1       0.959   9.245  17.656  0.00  0.00    +0.000 NA
ATOM     18  C   UNL     1       1.837   8.502  17.839  0.00  0.00    +0.000 C 
ENDBRANCH  11  18
ENDBRANCH   7  14
ENDBRANCH   1   9
BRANCH   4  19
ATOM     19  N   UNL     1       5.548   3.819  12.750  0.00  0.00    +0.000 N 
ATOM     20  O   UNL     1       6.408   3.734  11.866  0.00  0.00    +0.000 OA
ATOM     21  O   UNL     1       4.325   3.813  12.550  0.00  0.00    +0.000 OA
ENDBRANCH   4  19
BRANCH   6  22
ATOM     22  O   UNL     1       5.021   2.818  17.524  0.00  0.00    +0.000 OA
BRANCH  22  23
ATOM     23  C   UNL     1       3.604   2.670  17.315  0.00  0.00    +0.000 C 
BRANCH  23  24
ATOM     24  C   UNL     1       2.810   2.814  18.584  0.00  0.00    +0.000 A 
ATOM     25  C   UNL     1       3.359   2.539  19.839  0.00  0.00    +0.000 A 
ATOM     26  C   UNL     1       2.569   2.640  20.985  0.00  0.00    +0.000 A 
ATOM     27  C   UNL     1       1.236   3.036  20.887  0.00  0.00    +0.000 A 
ATOM     28  C   UNL     1       0.690   3.355  19.646  0.00  0.00    +0.000 A 
ATOM     29  C   UNL     1       1.476   3.252  18.501  0.00  0.00    +0.000 A 
ENDBRANCH  23  24
ENDBRANCH  22  23
ENDBRANCH   6  22
TORSDOF 7
ENDMDL
MODEL 7
REMARK VINA RESULT:      -7.1      0.674      1.549
REMARK  Name = 
REMARK  7 active torsions:
REMARK  status: ('A' for Active; 'I' for Inactive)
REMARK    1  A    between atoms: C_2  and  C_3
REMARK    2  A    between atoms: C_6  and  C_7
REMARK    3  A    between atoms: N_9  and  C_10
REMARK    4  A    between atoms: C_13  and  N_14
REMARK    5  A    between atoms: C_18  and  O_19
REMARK    6  A    between atoms: O_19  and  C_20
REMARK    7  A    between atoms: C_20  and  C_21
REMARK                            x       y       z     vdW  Elec       q    Type
REMARK                         _______ _______ _______ _____ _____    ______ ____
ROOT
ATOM      1  C   UNL     1       4.789   5.163  19.432  0.00  0.00    +0.000 A 
ATOM      2  C   UNL     1       4.849   3.815  19.826  0.00  0.00    +0.000 A 
ATOM      3  C   UNL     1       3.698   3.029  19.837  0.00  0.00    +0.000 A 
ATOM      4  C   UNL     1       2.477   3.607  19.482  0.00  0.00    +0.000 A 
ATOM      5  C   UNL     1       2.402   4.963  19.141  0.00  0.00    +0.000 A 
ATOM      6  C   UNL     1       3.551   5.766  19.157  0.00  0.00    +0.000 A 
ENDROOT
BRANCH   1   9
ATOM      7  C   UNL     1       6.702   5.958  18.047  0.00  0.00    +0.000 C 
ATOM      8  O   UNL     1       7.697   6.683  17.998  0.00  0.00    +0.000 OA
ATOM      9  N   UNL     1       6.029   5.811  19.258  0.00  0.00    +0.000 N 
ATOM     10  H   UNL     1       6.176   6.643  19.819  0.00  0.00    +0.000 HD
BRANCH   7  14
ATOM     11  C   UNL     1       5.738   4.261  14.236  0.00  0.00    +0.000 A 
ATOM     12  C   UNL     1       5.354   5.573  14.509  0.00  0.00    +0.000 A 
ATOM     13  C   UNL     1       5.519   6.087  15.794  0.00  0.00    +0.000 A 
ATOM     14  C   UNL     1       6.188   5.357  16.778  0.00  0.00    +0.000 A 
ATOM     15  C   UNL     1       6.481   4.009  16.528  0.00  0.00    +0.000 A 
ATOM     16  C   UNL     1       6.247   3.461  15.261  0.00  0.00    +0.000 A 
BRANCH  11  18
ATOM     17  N   UNL     1       5.504   3.368  11.815  0.00  0.00    +0.000 NA
ATOM     18  C   UNL     1       5.615   3.754  12.908  0.00  0.00    +0.000 C 
ENDBRANCH  11  18
ENDBRANCH   7  14
ENDBRANCH   1   9
BRANCH   4  19
ATOM     19  N   UNL     1       1.255   2.797  19.462  0.00  0.00    +0.000 N 
ATOM     20  O   UNL     1       0.773   2.459  20.549  0.00  0.00    +0.000 OA
ATOM     21  O   UNL     1       0.782   2.496  18.356  0.00  0.00    +0.000 OA
ENDBRANCH   4  19
BRANCH   6  22
ATOM     22  O   UNL     1       3.520   7.110  18.881  0.00  0.00    +0.000 OA
BRANCH  22  23
ATOM     23  C   UNL     1       2.372   7.536  18.124  0.00  0.00    +0.000 C 
BRANCH  23  24
ATOM     24  C   UNL     1       1.579   8.607  18.824  0.00  0.00    +0.000 A 
ATOM     25  C   UNL     1       1.389   8.605  20.208  0.00  0.00    +0.000 A 
ATOM     26  C   UNL     1       0.605   9.591  20.806  0.00  0.00    +0.000 A 
ATOM     27  C   UNL     1       0.024  10.595  20.032  0.00  0.00    +0.000 A 
ATOM     28  C   UNL     1       0.242  10.631  18.656  0.00  0.00    +0.000 A 
ATOM     29  C   UNL     1       1.023   9.646  18.057  0.00  0.00    +0.000 A 
ENDBRANCH  23  24
ENDBRANCH  22  23
ENDBRANCH   6  22
TORSDOF 7
ENDMDL
MODEL 8
REMARK VINA RESULT:      -6.9      2.235      7.675
REMARK  Name = 
REMARK  7 active torsions:
REMARK  status: ('A' for Active; 'I' for Inactive)
REMARK    1  A    between atoms: C_2  and  C_3
REMARK    2  A    between atoms: C_6  and  C_7
REMARK    3  A    between atoms: N_9  and  C_10
REMARK    4  A    between atoms: C_13  and  N_14
REMARK    5  A    between atoms: C_18  and  O_19
REMARK    6  A    between atoms: O_19  and  C_20
REMARK    7  A    between atoms: C_20  and  C_21
REMARK                            x       y       z     vdW  Elec       q    Type
REMARK                         _______ _______ _______ _____ _____    ______ ____
ROOT
ATOM      1  C   UNL     1       4.520   4.250  17.614  0.00  0.00    +0.000 A 
ATOM      2  C   UNL     1       4.858   4.067  18.966  0.00  0.00    +0.000 A 
ATOM      3  C   UNL     1       6.050   4.581  19.474  0.00  0.00    +0.000 A 
ATOM      4  C   UNL     1       6.920   5.253  18.614  0.00  0.00    +0.000 A 
ATOM      5  C   UNL     1       6.615   5.392  17.254  0.00  0.00    +0.000 A 
ATOM      6  C   UNL     1       5.432   4.851  16.732  0.00  0.00    +0.000 A 
ENDROOT
BRANCH   1   9
ATOM      7  C   UNL     1       2.040   4.481  17.701  0.00  0.00    +0.000 C 
ATOM      8  O   UNL     1       0.966   4.170  17.185  0.00  0.00    +0.000 OA
ATOM      9  N   UNL     1       3.210   3.876  17.249  0.00  0.00    +0.000 N 
ATOM     10  H   UNL     1       3.084   3.596  16.281  0.00  0.00    +0.000 HD
BRANCH   7  14
ATOM     11  C   UNL     1       1.557   7.643  20.548  0.00  0.00    +0.000 A 
ATOM     12  C   UNL     1       2.068   7.941  19.285  0.00  0.00    +0.000 A 
ATOM     13  C   UNL     1       2.379   6.907  18.405  0.00  0.00    +0.000 A 
ATOM     14  C   UNL     1       2.059   5.583  18.712  0.00  0.00    +0.000 A 
ATOM     15  C   UNL     1       1.639   5.281  20.014  0.00  0.00    +0.000 A 
ATOM     16  C   UNL     1       1.398   6.310  20.933  0.00  0.00    +0.000 A 
BRANCH  11  18
ATOM     17  N   UNL     1       0.911   9.559  22.168  0.00  0.00    +0.000 NA
ATOM     18  C   UNL     1       1.193   8.706  21.427  0.00  0.00    +0.000 C 
ENDBRANCH  11  18
ENDBRANCH   7  14
ENDBRANCH   1   9
BRANCH   4  19
ATOM     19  N   UNL     1       8.170   5.825  19.127  0.00  0.00    +0.000 N 
ATOM     20  O   UNL     1       8.870   5.111  19.853  0.00  0.00    +0.000 OA
ATOM     21  O   UNL     1       8.444   6.990  18.805  0.00  0.00    +0.000 OA
ENDBRANCH   4  19
BRANCH   6  22
ATOM     22  O   UNL     1       5.113   4.915  15.398  0.00  0.00    +0.000 OA
BRANCH  22  23
ATOM     23  C   UNL     1       6.247   4.873  14.512  0.00  0.00    +0.000 C 
BRANCH  23  24
ATOM     24  C   UNL     1       6.006   4.016  13.299  0.00  0.00    +0.000 A 
ATOM     25  C   UNL     1       4.722   3.767  12.809  0.00  0.00    +0.000 A 
ATOM     26  C   UNL     1       4.544   2.926  11.711  0.00  0.00    +0.000 A 
ATOM     27  C   UNL     1       5.647   2.347  11.082  0.00  0.00    +0.000 A 
ATOM     28  C   UNL     1       6.934   2.624  11.535  0.00  0.00    +0.000 A 
ATOM     29  C   UNL     1       7.113   3.461  12.634  0.00  0.00    +0.000 A 
ENDBRANCH  23  24
ENDBRANCH  22  23
ENDBRANCH   6  22
TORSDOF 7
ENDMDL
MODEL 9
REMARK VINA RESULT:      -6.9      2.152      7.494
REMARK  Name = 
REMARK  7 active torsions:
REMARK  status: ('A' for Active; 'I' for Inactive)
REMARK    1  A    between atoms: C_2  and  C_3
REMARK    2  A    between atoms: C_6  and  C_7
REMARK    3  A    between atoms: N_9  and  C_10
REMARK    4  A    between atoms: C_13  and  N_14
REMARK    5  A    between atoms: C_18  and  O_19
REMARK    6  A    between atoms: O_19  and  C_20
REMARK    7  A    between atoms: C_20  and  C_21
REMARK                            x       y       z     vdW  Elec       q    Type
REMARK                         _______ _______ _______ _____ _____    ______ ____
ROOT
ATOM      1  C   UNL     1       5.413   3.951  17.983  0.00  0.00    +0.000 A 
ATOM      2  C   UNL     1       6.008   4.426  19.164  0.00  0.00    +0.000 A 
ATOM      3  C   UNL     1       6.743   5.611  19.160  0.00  0.00    +0.000 A 
ATOM      4  C   UNL     1       6.907   6.303  17.959  0.00  0.00    +0.000 A 
ATOM      5  C   UNL     1       6.363   5.807  16.768  0.00  0.00    +0.000 A 
ATOM      6  C   UNL     1       5.650   4.600  16.761  0.00  0.00    +0.000 A 
ENDROOT
BRANCH   1   9
ATOM      7  C   UNL     1       3.195   2.955  18.530  0.00  0.00    +0.000 C 
ATOM      8  O   UNL     1       2.481   1.954  18.467  0.00  0.00    +0.000 OA
ATOM      9  N   UNL     1       4.527   2.864  18.132  0.00  0.00    +0.000 N 
ATOM     10  H   UNL     1       4.615   2.124  17.443  0.00  0.00    +0.000 HD
BRANCH   7  14
ATOM     11  C   UNL     1       1.918   6.890  19.634  0.00  0.00    +0.000 A 
ATOM     12  C   UNL     1       1.940   5.889  20.604  0.00  0.00    +0.000 A 
ATOM     13  C   UNL     1       2.200   4.572  20.230  0.00  0.00    +0.000 A 
ATOM     14  C   UNL     1       2.575   4.258  18.923  0.00  0.00    +0.000 A 
ATOM     15  C   UNL     1       2.455   5.247  17.937  0.00  0.00    +0.000 A 
ATOM     16  C   UNL     1       2.117   6.558  18.292  0.00  0.00    +0.000 A 
BRANCH  11  18
ATOM     17  N   UNL     1       1.534   9.359  20.320  0.00  0.00    +0.000 NA
ATOM     18  C   UNL     1       1.701   8.245  20.027  0.00  0.00    +0.000 C 
ENDBRANCH  11  18
ENDBRANCH   7  14
ENDBRANCH   1   9
BRANCH   4  19
ATOM     19  N   UNL     1       7.655   7.565  17.930  0.00  0.00    +0.000 N 
ATOM     20  O   UNL     1       7.358   8.387  17.056  0.00  0.00    +0.000 OA
ATOM     21  O   UNL     1       8.542   7.727  18.781  0.00  0.00    +0.000 OA
ENDBRANCH   4  19
BRANCH   6  22
ATOM     22  O   UNL     1       5.142   4.046  15.612  0.00  0.00    +0.000 OA
BRANCH  22  23
ATOM     23  C   UNL     1       5.425   4.794  14.415  0.00  0.00    +0.000 C 
BRANCH  23  24
ATOM     24  C   UNL     1       5.685   3.910  13.225  0.00  0.00    +0.000 A 
ATOM     25  C   UNL     1       6.975   3.518  12.859  0.00  0.00    +0.000 A 
ATOM     26  C   UNL     1       7.171   2.739  11.719  0.00  0.00    +0.000 A 
ATOM     27  C   UNL     1       6.082   2.329  10.950  0.00  0.00    +0.000 A 
ATOM     28  C   UNL     1       4.788   2.678  11.330  0.00  0.00    +0.000 A 
ATOM     29  C   UNL     1       4.590   3.458  12.467  0.00  0.00    +0.000 A 
ENDBRANCH  23  24
ENDBRANCH  22  23
ENDBRANCH   6  22
TORSDOF 7
ENDMDL
