MODEL 1
REMARK VINA RESULT:      -8.1      0.000      0.000
REMARK  Name = 
REMARK  11 active torsions:
REMARK  status: ('A' for Active; 'I' for Inactive)
REMARK    1  A    between atoms: C_1  and  O_2
REMARK    2  A    between atoms: O_2  and  C_3
REMARK    3  A    between atoms: C_6  and  N_7
REMARK    4  A    between atoms: N_7  and  C_8
REMARK    5  A    between atoms: C_11  and  C_12
REMARK    6  A    between atoms: C_12  and  C_13
REMARK    7  A    between atoms: C_12  and  C_14
REMARK    8  A    between atoms: C_12  and  O_15
REMARK    9  A    between atoms: C_17  and  C_18
REMARK   10  A    between atoms: C_20  and  C_21
REMARK   11  A    between atoms: C_27  and  C_28
REMARK                            x       y       z     vdW  Elec       q    Type
REMARK                         _______ _______ _______ _____ _____    ______ ____
ROOT
ATOM      1  C   UNL     1       2.341   6.831  18.791  0.00  0.00    +0.000 A 
ATOM      2  N   UNL     1       2.049   8.124  18.505  0.00  0.00    +0.000 NA
ATOM      3  C   UNL     1       1.550   8.917  19.467  0.00  0.00    +0.000 A 
ATOM      4  C   UNL     1       1.305   8.509  20.763  0.00  0.00    +0.000 A 
ATOM      5  C   UNL     1       1.624   7.177  21.055  0.00  0.00    +0.000 A 
ATOM      6  C   UNL     1       2.178   6.306  20.085  0.00  0.00    +0.000 A 
ENDROOT
BRANCH   6   7
ATOM      7  C   UNL     1       2.580   4.940  20.469  0.00  0.00    +0.000 A 
ATOM      8  N   UNL     1       1.751   4.246  21.260  0.00  0.00    +0.000 NA
ATOM      9  C   UNL     1       2.095   2.972  21.448  0.00  0.00    +0.000 A 
ATOM     10  C   UNL     1       1.188   2.113  22.274  0.00  0.00    +0.000 C 
ATOM     11  N   UNL     1       3.171   2.389  20.923  0.00  0.00    +0.000 NA
ATOM     12  C   UNL     1       3.935   3.169  20.177  0.00  0.00    +0.000 A 
ATOM     13  N   UNL     1       5.049   2.602  19.595  0.00  0.00    +0.000 N 
ATOM     14  N   UNL     1       3.676   4.435  19.896  0.00  0.00    +0.000 NA
ATOM     15  H   UNL     1       4.936   1.603  19.500  0.00  0.00    +0.000 HD
ATOM     16  H   UNL     1       5.332   3.119  18.774  0.00  0.00    +0.000 HD
ENDBRANCH   6   7
BRANCH   4  17
ATOM     17  C   UNL     1       0.727   9.477  21.778  0.00  0.00    +0.000 C 
ATOM     18  C   UNL     1       0.489  10.857  21.147  0.00  0.00    +0.000 C 
ATOM     19  C   UNL     1      -0.578   8.932  22.371  0.00  0.00    +0.000 C 
BRANCH  17  20
ATOM     20  O   UNL     1       1.631   9.658  22.872  0.00  0.00    +0.000 OA
ATOM     21  H   UNL     1       2.533   9.587  22.520  0.00  0.00    +0.000 HD
ENDBRANCH  17  20
ENDBRANCH   4  17
BRANCH   1  22
ATOM     22  N   UNL     1       2.731   6.006  17.713  0.00  0.00    +0.000 N 
ATOM     23  H   UNL     1       2.084   5.227  17.605  0.00  0.00    +0.000 HD
BRANCH  22  27
ATOM     24  C   UNL     1       6.503   5.434  16.024  0.00  0.00    +0.000 A 
ATOM     25  N   UNL     1       5.490   4.603  15.675  0.00  0.00    +0.000 NA
ATOM     26  C   UNL     1       4.287   4.810  16.264  0.00  0.00    +0.000 A 
ATOM     27  C   UNL     1       4.025   5.797  17.207  0.00  0.00    +0.000 A 
ATOM     28  C   UNL     1       5.112   6.610  17.541  0.00  0.00    +0.000 A 
ATOM     29  C   UNL     1       6.382   6.430  16.970  0.00  0.00    +0.000 A 
BRANCH  29  30
ATOM     30  C   UNL     1       7.494   7.346  17.367  0.00  0.00    +0.000 C 
ATOM     31  F   UNL     1       8.420   7.629  16.411  0.00  0.00    +0.000 F 
ATOM     32  F   UNL     1       7.024   8.562  17.779  0.00  0.00    +0.000 F 
ATOM     33  F   UNL     1       8.208   6.864  18.428  0.00  0.00    +0.000 F 
ENDBRANCH  29  30
BRANCH  24  35
ATOM     34  C   UNL     1       7.549   5.070  13.982  0.00  0.00    +0.000 C 
ATOM     35  O   UNL     1       7.708   5.279  15.382  0.00  0.00    +0.000 OA
ENDBRANCH  24  35
ENDBRANCH  22  27
ENDBRANCH   1  22
TORSDOF 7
ENDMDL
MODEL 2
REMARK VINA RESULT:      -8.0      3.530      7.328
REMARK  Name = 
REMARK  11 active torsions:
REMARK  status: ('A' for Active; 'I' for Inactive)
REMARK    1  A    between atoms: C_1  and  O_2
REMARK    2  A    between atoms: O_2  and  C_3
REMARK    3  A    between atoms: C_6  and  N_7
REMARK    4  A    between atoms: N_7  and  C_8
REMARK    5  A    between atoms: C_11  and  C_12
REMARK    6  A    between atoms: C_12  and  C_13
REMARK    7  A    between atoms: C_12  and  C_14
REMARK    8  A    between atoms: C_12  and  O_15
REMARK    9  A    between atoms: C_17  and  C_18
REMARK   10  A    between atoms: C_20  and  C_21
REMARK   11  A    between atoms: C_27  and  C_28
REMARK                            x       y       z     vdW  Elec       q    Type
REMARK                         _______ _______ _______ _____ _____    ______ ____
ROOT
ATOM      1  C   UNL     1       2.968   6.199  18.495  0.00  0.00    +0.000 A 
ATOM      2  N   UNL     1       1.913   5.706  19.189  0.00  0.00    +0.000 NA
ATOM      3  C   UNL     1       1.799   4.381  19.367  0.00  0.00    +0.000 A 
ATOM      4  C   UNL     1       2.699   3.451  18.885  0.00  0.00    +0.000 A 
ATOM      5  C   UNL     1       3.794   3.968  18.182  0.00  0.00    +0.000 A 
ATOM      6  C   UNL     1       3.977   5.359  17.991  0.00  0.00    +0.000 A 
ENDROOT
BRANCH   6   7
ATOM      7  C   UNL     1       5.194   5.855  17.321  0.00  0.00    +0.000 A 
ATOM      8  N   UNL     1       5.856   6.865  17.900  0.00  0.00    +0.000 NA
ATOM      9  C   UNL     1       7.023   7.167  17.331  0.00  0.00    +0.000 A 
ATOM     10  C   UNL     1       7.851   8.248  17.954  0.00  0.00    +0.000 C 
ATOM     11  N   UNL     1       7.532   6.551  16.265  0.00  0.00    +0.000 NA
ATOM     12  C   UNL     1       6.787   5.584  15.757  0.00  0.00    +0.000 A 
ATOM     13  N   UNL     1       7.284   4.904  14.666  0.00  0.00    +0.000 N 
ATOM     14  N   UNL     1       5.632   5.179  16.256  0.00  0.00    +0.000 NA
ATOM     15  H   UNL     1       8.291   4.970  14.629  0.00  0.00    +0.000 HD
ATOM     16  H   UNL     1       6.874   3.983  14.595  0.00  0.00    +0.000 HD
ENDBRANCH   6   7
BRANCH   4  17
ATOM     17  C   UNL     1       2.478   1.970  19.127  0.00  0.00    +0.000 C 
ATOM     18  C   UNL     1       3.685   1.148  18.652  0.00  0.00    +0.000 C 
ATOM     19  C   UNL     1       2.198   1.695  20.609  0.00  0.00    +0.000 C 
BRANCH  17  20
ATOM     20  O   UNL     1       1.335   1.507  18.401  0.00  0.00    +0.000 OA
ATOM     21  H   UNL     1       1.565   1.520  17.457  0.00  0.00    +0.000 HD
ENDBRANCH  17  20
ENDBRANCH   4  17
BRANCH   1  22
ATOM     22  N   UNL     1       2.967   7.584  18.218  0.00  0.00    +0.000 N 
ATOM     23  H   UNL     1       3.907   7.908  18.001  0.00  0.00    +0.000 HD
BRANCH  22  27
ATOM     24  C   UNL     1       0.196  10.408  19.542  0.00  0.00    +0.000 A 
ATOM     25  N   UNL     1       0.573  10.413  18.239  0.00  0.00    +0.000 NA
ATOM     26  C   UNL     1       1.492   9.494  17.857  0.00  0.00    +0.000 A 
ATOM     27  C   UNL     1       2.083   8.562  18.703  0.00  0.00    +0.000 A 
ATOM     28  C   UNL     1       1.668   8.618  20.037  0.00  0.00    +0.000 A 
ATOM     29  C   UNL     1       0.729   9.559  20.488  0.00  0.00    +0.000 A 
BRANCH  29  30
ATOM     30  C   UNL     1       0.324   9.550  21.927  0.00  0.00    +0.000 C 
ATOM     31  F   UNL     1       0.002  10.753  22.476  0.00  0.00    +0.000 F 
ATOM     32  F   UNL     1      -0.769   8.757  22.139  0.00  0.00    +0.000 F 
ATOM     33  F   UNL     1       1.298   9.035  22.735  0.00  0.00    +0.000 F 
ENDBRANCH  29  30
BRANCH  24  35
ATOM     34  C   UNL     1      -0.804  12.463  19.121  0.00  0.00    +0.000 C 
ATOM     35  O   UNL     1      -0.787  11.288  19.927  0.00  0.00    +0.000 OA
ENDBRANCH  24  35
ENDBRANCH  22  27
ENDBRANCH   1  22
TORSDOF 7
ENDMDL
MODEL 3
REMARK VINA RESULT:      -7.9      0.553      1.626
REMARK  Name = 
REMARK  11 active torsions:
REMARK  status: ('A' for Active; 'I' for Inactive)
REMARK    1  A    between atoms: C_1  and  O_2
REMARK    2  A    between atoms: O_2  and  C_3
REMARK    3  A    between atoms: C_6  and  N_7
REMARK    4  A    between atoms: N_7  and  C_8
REMARK    5  A    between atoms: C_11  and  C_12
REMARK    6  A    between atoms: C_12  and  C_13
REMARK    7  A    between atoms: C_12  and  C_14
REMARK    8  A    between atoms: C_12  and  O_15
REMARK    9  A    between atoms: C_17  and  C_18
REMARK   10  A    between atoms: C_20  and  C_21
REMARK   11  A    between atoms: C_27  and  C_28
REMARK                            x       y       z     vdW  Elec       q    Type
REMARK                         _______ _______ _______ _____ _____    ______ ____
ROOT
ATOM      1  C   UNL     1       2.274   6.915  18.812  0.00  0.00    +0.000 A 
ATOM      2  N   UNL     1       2.115   8.246  18.607  0.00  0.00    +0.000 NA
ATOM      3  C   UNL     1       1.627   9.013  19.595  0.00  0.00    +0.000 A 
ATOM      4  C   UNL     1       1.265   8.540  20.841  0.00  0.00    +0.000 A 
ATOM      5  C   UNL     1       1.446   7.168  21.050  0.00  0.00    +0.000 A 
ATOM      6  C   UNL     1       1.984   6.319  20.052  0.00  0.00    +0.000 A 
ENDROOT
BRANCH   6   7
ATOM      7  C   UNL     1       2.239   4.898  20.356  0.00  0.00    +0.000 A 
ATOM      8  N   UNL     1       3.344   4.340  19.845  0.00  0.00    +0.000 NA
ATOM      9  C   UNL     1       3.596   3.104  20.275  0.00  0.00    +0.000 A 
ATOM     10  C   UNL     1       4.845   2.432  19.794  0.00  0.00    +0.000 C 
ATOM     11  N   UNL     1       2.837   2.429  21.136  0.00  0.00    +0.000 NA
ATOM     12  C   UNL     1       1.757   3.062  21.562  0.00  0.00    +0.000 A 
ATOM     13  N   UNL     1       0.953   2.410  22.471  0.00  0.00    +0.000 N 
ATOM     14  N   UNL     1       1.425   4.298  21.228  0.00  0.00    +0.000 NA
ATOM     15  H   UNL     1       1.475   1.708  22.975  0.00  0.00    +0.000 HD
ATOM     16  H   UNL     1       0.412   3.069  23.015  0.00  0.00    +0.000 HD
ENDBRANCH   6   7
BRANCH   4  17
ATOM     17  C   UNL     1       0.709   9.486  21.889  0.00  0.00    +0.000 C 
ATOM     18  C   UNL     1       0.564  10.907  21.326  0.00  0.00    +0.000 C 
ATOM     19  C   UNL     1      -0.639   8.983  22.418  0.00  0.00    +0.000 C 
BRANCH  17  20
ATOM     20  O   UNL     1       1.589   9.561  23.015  0.00  0.00    +0.000 OA
ATOM     21  H   UNL     1       1.296  10.307  23.564  0.00  0.00    +0.000 HD
ENDBRANCH  17  20
ENDBRANCH   4  17
BRANCH   1  22
ATOM     22  N   UNL     1       2.658   6.133  17.700  0.00  0.00    +0.000 N 
ATOM     23  H   UNL     1       1.943   5.443  17.481  0.00  0.00    +0.000 HD
BRANCH  22  27
ATOM     24  C   UNL     1       6.459   5.225  16.237  0.00  0.00    +0.000 A 
ATOM     25  N   UNL     1       5.425   4.398  15.948  0.00  0.00    +0.000 NA
ATOM     26  C   UNL     1       4.212   4.718  16.462  0.00  0.00    +0.000 A 
ATOM     27  C   UNL     1       3.959   5.818  17.272  0.00  0.00    +0.000 A 
ATOM     28  C   UNL     1       5.068   6.624  17.551  0.00  0.00    +0.000 A 
ATOM     29  C   UNL     1       6.348   6.329  17.054  0.00  0.00    +0.000 A 
BRANCH  29  30
ATOM     30  C   UNL     1       7.483   7.244  17.385  0.00  0.00    +0.000 C 
ATOM     31  F   UNL     1       7.153   8.494  17.810  0.00  0.00    +0.000 F 
ATOM     32  F   UNL     1       8.275   6.729  18.373  0.00  0.00    +0.000 F 
ATOM     33  F   UNL     1       8.321   7.434  16.322  0.00  0.00    +0.000 F 
ENDBRANCH  29  30
BRANCH  24  35
ATOM     34  C   UNL     1       7.602   4.879  14.244  0.00  0.00    +0.000 C 
ATOM     35  O   UNL     1       7.678   4.951  15.665  0.00  0.00    +0.000 OA
ENDBRANCH  24  35
ENDBRANCH  22  27
ENDBRANCH   1  22
TORSDOF 7
ENDMDL
MODEL 4
REMARK VINA RESULT:      -7.9      4.008      7.346
REMARK  Name = 
REMARK  11 active torsions:
REMARK  status: ('A' for Active; 'I' for Inactive)
REMARK    1  A    between atoms: C_1  and  O_2
REMARK    2  A    between atoms: O_2  and  C_3
REMARK    3  A    between atoms: C_6  and  N_7
REMARK    4  A    between atoms: N_7  and  C_8
REMARK    5  A    between atoms: C_11  and  C_12
REMARK    6  A    between atoms: C_12  and  C_13
REMARK    7  A    between atoms: C_12  and  C_14
REMARK    8  A    between atoms: C_12  and  O_15
REMARK    9  A    between atoms: C_17  and  C_18
REMARK   10  A    between atoms: C_20  and  C_21
REMARK   11  A    between atoms: C_27  and  C_28
REMARK                            x       y       z     vdW  Elec       q    Type
REMARK                         _______ _______ _______ _____ _____    ______ ____
ROOT
ATOM      1  C   UNL     1       2.625   6.778  18.989  0.00  0.00    +0.000 A 
ATOM      2  N   UNL     1       1.697   6.488  19.935  0.00  0.00    +0.000 NA
ATOM      3  C   UNL     1       1.615   5.238  20.418  0.00  0.00    +0.000 A 
ATOM      4  C   UNL     1       2.424   4.193  20.017  0.00  0.00    +0.000 A 
ATOM      5  C   UNL     1       3.388   4.504  19.051  0.00  0.00    +0.000 A 
ATOM      6  C   UNL     1       3.537   5.812  18.529  0.00  0.00    +0.000 A 
ENDROOT
BRANCH   6   7
ATOM      7  C   UNL     1       4.629   6.105  17.581  0.00  0.00    +0.000 A 
ATOM      8  N   UNL     1       5.570   6.977  17.964  0.00  0.00    +0.000 NA
ATOM      9  C   UNL     1       6.604   7.086  17.130  0.00  0.00    +0.000 A 
ATOM     10  C   UNL     1       7.726   8.000  17.515  0.00  0.00    +0.000 C 
ATOM     11  N   UNL     1       6.735   6.411  15.989  0.00  0.00    +0.000 NA
ATOM     12  C   UNL     1       5.739   5.593  15.693  0.00  0.00    +0.000 A 
ATOM     13  N   UNL     1       5.842   4.857  14.532  0.00  0.00    +0.000 N 
ATOM     14  N   UNL     1       4.682   5.382  16.459  0.00  0.00    +0.000 NA
ATOM     15  H   UNL     1       6.809   4.752  14.258  0.00  0.00    +0.000 HD
ATOM     16  H   UNL     1       5.277   4.021  14.582  0.00  0.00    +0.000 HD
ENDBRANCH   6   7
BRANCH   4  17
ATOM     17  C   UNL     1       2.244   2.810  20.614  0.00  0.00    +0.000 C 
ATOM     18  C   UNL     1       1.274   2.846  21.804  0.00  0.00    +0.000 C 
ATOM     19  C   UNL     1       1.749   1.819  19.554  0.00  0.00    +0.000 C 
BRANCH  17  20
ATOM     20  O   UNL     1       3.493   2.304  21.096  0.00  0.00    +0.000 OA
ATOM     21  H   UNL     1       4.153   2.443  20.397  0.00  0.00    +0.000 HD
ENDBRANCH  17  20
ENDBRANCH   4  17
BRANCH   1  22
ATOM     22  N   UNL     1       2.579   8.068  18.415  0.00  0.00    +0.000 N 
ATOM     23  H   UNL     1       3.515   8.394  18.189  0.00  0.00    +0.000 HD
BRANCH  22  27
ATOM     24  C   UNL     1      -0.143  11.184  18.953  0.00  0.00    +0.000 A 
ATOM     25  N   UNL     1       1.001  11.174  19.679  0.00  0.00    +0.000 NA
ATOM     26  C   UNL     1       1.846  10.132  19.490  0.00  0.00    +0.000 A 
ATOM     27  C   UNL     1       1.617   9.071  18.621  0.00  0.00    +0.000 A 
ATOM     28  C   UNL     1       0.412   9.127  17.914  0.00  0.00    +0.000 A 
ATOM     29  C   UNL     1      -0.504  10.177  18.082  0.00  0.00    +0.000 A 
BRANCH  29  30
ATOM     30  C   UNL     1      -1.767  10.175  17.282  0.00  0.00    +0.000 C 
ATOM     31  F   UNL     1      -2.055  11.315  16.598  0.00  0.00    +0.000 F 
ATOM     32  F   UNL     1      -1.765   9.185  16.340  0.00  0.00    +0.000 F 
ATOM     33  F   UNL     1      -2.868   9.930  18.053  0.00  0.00    +0.000 F 
ENDBRANCH  29  30
BRANCH  24  35
ATOM     34  C   UNL     1      -0.386  13.463  18.575  0.00  0.00    +0.000 C 
ATOM     35  O   UNL     1      -0.976  12.270  19.083  0.00  0.00    +0.000 OA
ENDBRANCH  24  35
ENDBRANCH  22  27
ENDBRANCH   1  22
TORSDOF 7
ENDMDL
MODEL 5
REMARK VINA RESULT:      -7.8      4.194      7.388
REMARK  Name = 
REMARK  11 active torsions:
REMARK  status: ('A' for Active; 'I' for Inactive)
REMARK    1  A    between atoms: C_1  and  O_2
REMARK    2  A    between atoms: O_2  and  C_3
REMARK    3  A    between atoms: C_6  and  N_7
REMARK    4  A    between atoms: N_7  and  C_8
REMARK    5  A    between atoms: C_11  and  C_12
REMARK    6  A    between atoms: C_12  and  C_13
REMARK    7  A    between atoms: C_12  and  C_14
REMARK    8  A    between atoms: C_12  and  O_15
REMARK    9  A    between atoms: C_17  and  C_18
REMARK   10  A    between atoms: C_20  and  C_21
REMARK   11  A    between atoms: C_27  and  C_28
REMARK                            x       y       z     vdW  Elec       q    Type
REMARK                         _______ _______ _______ _____ _____    ______ ____
ROOT
ATOM      1  C   UNL     1       2.602   6.935  19.034  0.00  0.00    +0.000 A 
ATOM      2  N   UNL     1       1.692   6.697  20.011  0.00  0.00    +0.000 NA
ATOM      3  C   UNL     1       1.655   5.491  20.599  0.00  0.00    +0.000 A 
ATOM      4  C   UNL     1       2.495   4.442  20.280  0.00  0.00    +0.000 A 
ATOM      5  C   UNL     1       3.441   4.701  19.281  0.00  0.00    +0.000 A 
ATOM      6  C   UNL     1       3.542   5.964  18.648  0.00  0.00    +0.000 A 
ENDROOT
BRANCH   6   7
ATOM      7  C   UNL     1       4.615   6.210  17.667  0.00  0.00    +0.000 A 
ATOM      8  N   UNL     1       5.589   7.064  18.009  0.00  0.00    +0.000 NA
ATOM      9  C   UNL     1       6.603   7.129  17.147  0.00  0.00    +0.000 A 
ATOM     10  C   UNL     1       7.759   8.019  17.486  0.00  0.00    +0.000 C 
ATOM     11  N   UNL     1       6.686   6.431  16.016  0.00  0.00    +0.000 NA
ATOM     12  C   UNL     1       5.661   5.636  15.760  0.00  0.00    +0.000 A 
ATOM     13  N   UNL     1       5.714   4.877  14.611  0.00  0.00    +0.000 N 
ATOM     14  N   UNL     1       4.620   5.467  16.557  0.00  0.00    +0.000 NA
ATOM     15  H   UNL     1       6.670   4.741  14.314  0.00  0.00    +0.000 HD
ATOM     16  H   UNL     1       5.128   4.057  14.690  0.00  0.00    +0.000 HD
ENDBRANCH   6   7
BRANCH   4  17
ATOM     17  C   UNL     1       2.366   3.110  20.993  0.00  0.00    +0.000 C 
ATOM     18  C   UNL     1       1.161   2.318  20.466  0.00  0.00    +0.000 C 
ATOM     19  C   UNL     1       3.650   2.285  20.844  0.00  0.00    +0.000 C 
BRANCH  17  20
ATOM     20  O   UNL     1       2.167   3.307  22.396  0.00  0.00    +0.000 OA
ATOM     21  H   UNL     1       3.044   3.406  22.804  0.00  0.00    +0.000 HD
ENDBRANCH  17  20
ENDBRANCH   4  17
BRANCH   1  22
ATOM     22  N   UNL     1       2.508   8.170  18.354  0.00  0.00    +0.000 N 
ATOM     23  H   UNL     1       3.423   8.472  18.029  0.00  0.00    +0.000 HD
BRANCH  22  27
ATOM     24  C   UNL     1      -0.172  11.332  18.827  0.00  0.00    +0.000 A 
ATOM     25  N   UNL     1       0.999  11.351  19.510  0.00  0.00    +0.000 NA
ATOM     26  C   UNL     1       1.830  10.293  19.344  0.00  0.00    +0.000 A 
ATOM     27  C   UNL     1       1.561   9.191  18.542  0.00  0.00    +0.000 A 
ATOM     28  C   UNL     1       0.331   9.219  17.878  0.00  0.00    +0.000 A 
ATOM     29  C   UNL     1      -0.572  10.285  18.025  0.00  0.00    +0.000 A 
BRANCH  29  30
ATOM     30  C   UNL     1      -1.864  10.251  17.273  0.00  0.00    +0.000 C 
ATOM     31  F   UNL     1      -2.014   9.247  16.367  0.00  0.00    +0.000 F 
ATOM     32  F   UNL     1      -2.935  10.136  18.115  0.00  0.00    +0.000 F 
ATOM     33  F   UNL     1      -2.085  11.404  16.574  0.00  0.00    +0.000 F 
ENDBRANCH  29  30
BRANCH  24  35
ATOM     34  C   UNL     1      -1.385  12.684  20.276  0.00  0.00    +0.000 C 
ATOM     35  O   UNL     1      -0.992  12.431  18.931  0.00  0.00    +0.000 OA
ENDBRANCH  24  35
ENDBRANCH  22  27
ENDBRANCH   1  22
TORSDOF 7
ENDMDL
MODEL 6
REMARK VINA RESULT:      -7.7      3.983      6.797
REMARK  Name = 
REMARK  11 active torsions:
REMARK  status: ('A' for Active; 'I' for Inactive)
REMARK    1  A    between atoms: C_1  and  O_2
REMARK    2  A    between atoms: O_2  and  C_3
REMARK    3  A    between atoms: C_6  and  N_7
REMARK    4  A    between atoms: N_7  and  C_8
REMARK    5  A    between atoms: C_11  and  C_12
REMARK    6  A    between atoms: C_12  and  C_13
REMARK    7  A    between atoms: C_12  and  C_14
REMARK    8  A    between atoms: C_12  and  O_15
REMARK    9  A    between atoms: C_17  and  C_18
REMARK   10  A    between atoms: C_20  and  C_21
REMARK   11  A    between atoms: C_27  and  C_28
REMARK                            x       y       z     vdW  Elec       q    Type
REMARK                         _______ _______ _______ _____ _____    ______ ____
ROOT
ATOM      1  C   UNL     1       1.426  11.077  19.079  0.00  0.00    +0.000 A 
ATOM      2  N   UNL     1       2.314  11.351  18.091  0.00  0.00    +0.000 NA
ATOM      3  C   UNL     1       2.771  12.605  17.943  0.00  0.00    +0.000 A 
ATOM      4  C   UNL     1       2.399  13.669  18.741  0.00  0.00    +0.000 A 
ATOM      5  C   UNL     1       1.495  13.375  19.768  0.00  0.00    +0.000 A 
ATOM      6  C   UNL     1       1.003  12.065  19.986  0.00  0.00    +0.000 A 
ENDROOT
BRANCH   6   7
ATOM      7  C   UNL     1       0.123  11.793  21.138  0.00  0.00    +0.000 A 
ATOM      8  N   UNL     1      -0.996  12.519  21.252  0.00  0.00    +0.000 NA
ATOM      9  C   UNL     1      -1.819  12.127  22.224  0.00  0.00    +0.000 A 
ATOM     10  C   UNL     1      -3.120  12.853  22.380  0.00  0.00    +0.000 C 
ATOM     11  N   UNL     1      -1.591  11.107  23.050  0.00  0.00    +0.000 NA
ATOM     12  C   UNL     1      -0.447  10.471  22.867  0.00  0.00    +0.000 A 
ATOM     13  N   UNL     1      -0.178   9.395  23.684  0.00  0.00    +0.000 N 
ATOM     14  N   UNL     1       0.429  10.752  21.917  0.00  0.00    +0.000 NA
ATOM     15  H   UNL     1      -1.032   9.001  24.053  0.00  0.00    +0.000 HD
ATOM     16  H   UNL     1       0.476   8.761  23.246  0.00  0.00    +0.000 HD
ENDBRANCH   6   7
BRANCH   4  17
ATOM     17  C   UNL     1       2.962  15.054  18.485  0.00  0.00    +0.000 C 
ATOM     18  C   UNL     1       1.862  16.121  18.581  0.00  0.00    +0.000 C 
ATOM     19  C   UNL     1       4.097  15.372  19.467  0.00  0.00    +0.000 C 
BRANCH  17  20
ATOM     20  O   UNL     1       3.523  15.135  17.172  0.00  0.00    +0.000 OA
ATOM     21  H   UNL     1       2.922  15.677  16.632  0.00  0.00    +0.000 HD
ENDBRANCH  17  20
ENDBRANCH   4  17
BRANCH   1  22
ATOM     22  N   UNL     1       0.873   9.778  19.105  0.00  0.00    +0.000 N 
ATOM     23  H   UNL     1      -0.108   9.811  19.375  0.00  0.00    +0.000 HD
BRANCH  22  27
ATOM     24  C   UNL     1       2.649   6.073  19.827  0.00  0.00    +0.000 A 
ATOM     25  N   UNL     1       1.805   6.592  20.753  0.00  0.00    +0.000 NA
ATOM     26  C   UNL     1       1.268   7.808  20.488  0.00  0.00    +0.000 A 
ATOM     27  C   UNL     1       1.532   8.562  19.351  0.00  0.00    +0.000 A 
ATOM     28  C   UNL     1       2.424   7.983  18.443  0.00  0.00    +0.000 A 
ATOM     29  C   UNL     1       3.018   6.732  18.675  0.00  0.00    +0.000 A 
BRANCH  29  30
ATOM     30  C   UNL     1       3.953   6.171  17.652  0.00  0.00    +0.000 C 
ATOM     31  F   UNL     1       5.197   5.832  18.086  0.00  0.00    +0.000 F 
ATOM     32  F   UNL     1       3.453   5.034  17.080  0.00  0.00    +0.000 F 
ATOM     33  F   UNL     1       4.157   7.032  16.610  0.00  0.00    +0.000 F 
ENDBRANCH  29  30
BRANCH  24  35
ATOM     34  C   UNL     1       2.321   4.056  20.935  0.00  0.00    +0.000 C 
ATOM     35  O   UNL     1       3.145   4.810  20.050  0.00  0.00    +0.000 OA
ENDBRANCH  24  35
ENDBRANCH  22  27
ENDBRANCH   1  22
TORSDOF 7
ENDMDL
MODEL 7
REMARK VINA RESULT:      -7.7      3.289      6.910
REMARK  Name = 
REMARK  11 active torsions:
REMARK  status: ('A' for Active; 'I' for Inactive)
REMARK    1  A    between atoms: C_1  and  O_2
REMARK    2  A    between atoms: O_2  and  C_3
REMARK    3  A    between atoms: C_6  and  N_7
REMARK    4  A    between atoms: N_7  and  C_8
REMARK    5  A    between atoms: C_11  and  C_12
REMARK    6  A    between atoms: C_12  and  C_13
REMARK    7  A    between atoms: C_12  and  C_14
REMARK    8  A    between atoms: C_12  and  O_15
REMARK    9  A    between atoms: C_17  and  C_18
REMARK   10  A    between atoms: C_20  and  C_21
REMARK   11  A    between atoms: C_27  and  C_28
REMARK                            x       y       z     vdW  Elec       q    Type
REMARK                         _______ _______ _______ _____ _____    ______ ____
ROOT
ATOM      1  C   UNL     1       3.140   6.937  18.025  0.00  0.00    +0.000 A 
ATOM      2  N   UNL     1       3.967   7.769  17.344  0.00  0.00    +0.000 NA
ATOM      3  C   UNL     1       5.261   7.443  17.202  0.00  0.00    +0.000 A 
ATOM      4  C   UNL     1       5.835   6.294  17.709  0.00  0.00    +0.000 A 
ATOM      5  C   UNL     1       4.973   5.434  18.398  0.00  0.00    +0.000 A 
ATOM      6  C   UNL     1       3.593   5.715  18.552  0.00  0.00    +0.000 A 
ENDROOT
BRANCH   6   7
ATOM      7  C   UNL     1       2.711   4.730  19.207  0.00  0.00    +0.000 A 
ATOM      8  N   UNL     1       1.932   3.973  18.425  0.00  0.00    +0.000 NA
ATOM      9  C   UNL     1       1.273   3.005  19.062  0.00  0.00    +0.000 A 
ATOM     10  C   UNL     1       0.424   2.078  18.248  0.00  0.00    +0.000 C 
ATOM     11  N   UNL     1       1.341   2.773  20.371  0.00  0.00    +0.000 NA
ATOM     12  C   UNL     1       2.121   3.593  21.056  0.00  0.00    +0.000 A 
ATOM     13  N   UNL     1       2.239   3.377  22.412  0.00  0.00    +0.000 N 
ATOM     14  N   UNL     1       2.844   4.565  20.526  0.00  0.00    +0.000 NA
ATOM     15  H   UNL     1       2.026   2.417  22.643  0.00  0.00    +0.000 HD
ATOM     16  H   UNL     1       3.104   3.762  22.766  0.00  0.00    +0.000 HD
ENDBRANCH   6   7
BRANCH   4  17
ATOM     17  C   UNL     1       7.314   6.021  17.508  0.00  0.00    +0.000 C 
ATOM     18  C   UNL     1       8.152   6.688  18.609  0.00  0.00    +0.000 C 
ATOM     19  C   UNL     1       7.590   4.513  17.470  0.00  0.00    +0.000 C 
BRANCH  17  20
ATOM     20  O   UNL     1       7.757   6.550  16.255  0.00  0.00    +0.000 OA
ATOM     21  H   UNL     1       8.600   6.116  16.037  0.00  0.00    +0.000 HD
ENDBRANCH  17  20
ENDBRANCH   4  17
BRANCH   1  22
ATOM     22  N   UNL     1       1.824   7.390  18.264  0.00  0.00    +0.000 N 
ATOM     23  H   UNL     1       1.284   7.397  17.402  0.00  0.00    +0.000 HD
BRANCH  22  27
ATOM     24  C   UNL     1       0.700  10.010  21.311  0.00  0.00    +0.000 A 
ATOM     25  N   UNL     1       1.147   8.772  21.636  0.00  0.00    +0.000 NA
ATOM     26  C   UNL     1       1.480   7.946  20.614  0.00  0.00    +0.000 A 
ATOM     27  C   UNL     1       1.381   8.270  19.266  0.00  0.00    +0.000 A 
ATOM     28  C   UNL     1       0.895   9.552  18.993  0.00  0.00    +0.000 A 
ATOM     29  C   UNL     1       0.524  10.442  20.014  0.00  0.00    +0.000 A 
BRANCH  29  30
ATOM     30  C   UNL     1       0.025  11.802  19.645  0.00  0.00    +0.000 C 
ATOM     31  F   UNL     1      -1.185  12.164  20.151  0.00  0.00    +0.000 F 
ATOM     32  F   UNL     1       0.888  12.783  20.048  0.00  0.00    +0.000 F 
ATOM     33  F   UNL     1      -0.088  11.963  18.293  0.00  0.00    +0.000 F 
ENDBRANCH  29  30
BRANCH  24  35
ATOM     34  C   UNL     1      -0.734  10.502  23.072  0.00  0.00    +0.000 C 
ATOM     35  O   UNL     1       0.426  10.882  22.337  0.00  0.00    +0.000 OA
ENDBRANCH  24  35
ENDBRANCH  22  27
ENDBRANCH   1  22
TORSDOF 7
ENDMDL
MODEL 8
REMARK VINA RESULT:      -7.7      3.422      7.303
REMARK  Name = 
REMARK  11 active torsions:
REMARK  status: ('A' for Active; 'I' for Inactive)
REMARK    1  A    between atoms: C_1  and  O_2
REMARK    2  A    between atoms: O_2  and  C_3
REMARK    3  A    between atoms: C_6  and  N_7
REMARK    4  A    between atoms: N_7  and  C_8
REMARK    5  A    between atoms: C_11  and  C_12
REMARK    6  A    between atoms: C_12  and  C_13
REMARK    7  A    between atoms: C_12  and  C_14
REMARK    8  A    between atoms: C_12  and  O_15
REMARK    9  A    between atoms: C_17  and  C_18
REMARK   10  A    between atoms: C_20  and  C_21
REMARK   11  A    between atoms: C_27  and  C_28
REMARK                            x       y       z     vdW  Elec       q    Type
REMARK                         _______ _______ _______ _____ _____    ______ ____
ROOT
ATOM      1  C   UNL     1       3.282   6.199  18.838  0.00  0.00    +0.000 A 
ATOM      2  N   UNL     1       2.350   5.683  19.678  0.00  0.00    +0.000 NA
ATOM      3  C   UNL     1       2.497   4.430  20.137  0.00  0.00    +0.000 A 
ATOM      4  C   UNL     1       3.553   3.601  19.814  0.00  0.00    +0.000 A 
ATOM      5  C   UNL     1       4.517   4.145  18.958  0.00  0.00    +0.000 A 
ATOM      6  C   UNL     1       4.426   5.471  18.468  0.00  0.00    +0.000 A 
ENDROOT
BRANCH   6   7
ATOM      7  C   UNL     1       5.516   6.026  17.643  0.00  0.00    +0.000 A 
ATOM      8  N   UNL     1       6.165   7.101  18.109  0.00  0.00    +0.000 NA
ATOM      9  C   UNL     1       7.231   7.462  17.395  0.00  0.00    +0.000 A 
ATOM     10  C   UNL     1       8.044   8.621  17.883  0.00  0.00    +0.000 C 
ATOM     11  N   UNL     1       7.654   6.845  16.294  0.00  0.00    +0.000 NA
ATOM     12  C   UNL     1       6.929   5.809  15.907  0.00  0.00    +0.000 A 
ATOM     13  N   UNL     1       7.343   5.125  14.784  0.00  0.00    +0.000 N 
ATOM     14  N   UNL     1       5.874   5.342  16.553  0.00  0.00    +0.000 NA
ATOM     15  H   UNL     1       8.330   5.260  14.624  0.00  0.00    +0.000 HD
ATOM     16  H   UNL     1       6.996   4.176  14.789  0.00  0.00    +0.000 HD
ENDBRANCH   6   7
BRANCH   4  17
ATOM     17  C   UNL     1       3.623   2.193  20.375  0.00  0.00    +0.000 C 
ATOM     18  C   UNL     1       2.593   1.995  21.497  0.00  0.00    +0.000 C 
ATOM     19  C   UNL     1       3.410   1.153  19.268  0.00  0.00    +0.000 C 
BRANCH  17  20
ATOM     20  O   UNL     1       4.916   1.938  20.932  0.00  0.00    +0.000 OA
ATOM     21  H   UNL     1       5.526   1.780  20.193  0.00  0.00    +0.000 HD
ENDBRANCH  17  20
ENDBRANCH   4  17
BRANCH   1  22
ATOM     22  N   UNL     1       3.010   7.466  18.276  0.00  0.00    +0.000 N 
ATOM     23  H   UNL     1       3.836   7.838  17.813  0.00  0.00    +0.000 HD
BRANCH  22  27
ATOM     24  C   UNL     1       0.079  10.198  19.438  0.00  0.00    +0.000 A 
ATOM     25  N   UNL     1       0.441  10.134  18.133  0.00  0.00    +0.000 NA
ATOM     26  C   UNL     1       1.413   9.248  17.803  0.00  0.00    +0.000 A 
ATOM     27  C   UNL     1       2.071   8.419  18.704  0.00  0.00    +0.000 A 
ATOM     28  C   UNL     1       1.667   8.543  20.037  0.00  0.00    +0.000 A 
ATOM     29  C   UNL     1       0.674   9.454  20.434  0.00  0.00    +0.000 A 
BRANCH  29  30
ATOM     30  C   UNL     1       0.286   9.522  21.876  0.00  0.00    +0.000 C 
ATOM     31  F   UNL     1      -0.057  10.748  22.356  0.00  0.00    +0.000 F 
ATOM     32  F   UNL     1      -0.786   8.719  22.149  0.00  0.00    +0.000 F 
ATOM     33  F   UNL     1       1.281   9.078  22.701  0.00  0.00    +0.000 F 
ENDBRANCH  29  30
BRANCH  24  35
ATOM     34  C   UNL     1      -0.756  12.360  19.278  0.00  0.00    +0.000 C 
ATOM     35  O   UNL     1      -0.954  11.040  19.775  0.00  0.00    +0.000 OA
ENDBRANCH  24  35
ENDBRANCH  22  27
ENDBRANCH   1  22
TORSDOF 7
ENDMDL
MODEL 9
REMARK VINA RESULT:      -7.7      4.002      6.876
REMARK  Name = 
REMARK  11 active torsions:
REMARK  status: ('A' for Active; 'I' for Inactive)
REMARK    1  A    between atoms: C_1  and  O_2
REMARK    2  A    between atoms: O_2  and  C_3
REMARK    3  A    between atoms: C_6  and  N_7
REMARK    4  A    between atoms: N_7  and  C_8
REMARK    5  A    between atoms: C_11  and  C_12
REMARK    6  A    between atoms: C_12  and  C_13
REMARK    7  A    between atoms: C_12  and  C_14
REMARK    8  A    between atoms: C_12  and  O_15
REMARK    9  A    between atoms: C_17  and  C_18
REMARK   10  A    between atoms: C_20  and  C_21
REMARK   11  A    between atoms: C_27  and  C_28
REMARK                            x       y       z     vdW  Elec       q    Type
REMARK                         _______ _______ _______ _____ _____    ______ ____
ROOT
ATOM      1  C   UNL     1       1.338  11.388  19.132  0.00  0.00    +0.000 A 
ATOM      2  N   UNL     1       2.224  11.742  18.168  0.00  0.00    +0.000 NA
ATOM      3  C   UNL     1       2.669  13.007  18.111  0.00  0.00    +0.000 A 
ATOM      4  C   UNL     1       2.285  14.007  18.983  0.00  0.00    +0.000 A 
ATOM      5  C   UNL     1       1.381  13.632  19.983  0.00  0.00    +0.000 A 
ATOM      6  C   UNL     1       0.903  12.304  20.106  0.00  0.00    +0.000 A 
ENDROOT
BRANCH   6   7
ATOM      7  C   UNL     1       0.023  11.941  21.233  0.00  0.00    +0.000 A 
ATOM      8  N   UNL     1      -1.131  12.608  21.363  0.00  0.00    +0.000 NA
ATOM      9  C   UNL     1      -1.946  12.135  22.305  0.00  0.00    +0.000 A 
ATOM     10  C   UNL     1      -3.282  12.792  22.474  0.00  0.00    +0.000 C 
ATOM     11  N   UNL     1      -1.679  11.093  23.090  0.00  0.00    +0.000 NA
ATOM     12  C   UNL     1      -0.503  10.521  22.896  0.00  0.00    +0.000 A 
ATOM     13  N   UNL     1      -0.192   9.424  23.671  0.00  0.00    +0.000 N 
ATOM     14  N   UNL     1       0.370  10.883  21.971  0.00  0.00    +0.000 NA
ATOM     15  H   UNL     1      -1.030   8.975  24.011  0.00  0.00    +0.000 HD
ATOM     16  H   UNL     1       0.497   8.842  23.215  0.00  0.00    +0.000 HD
ENDBRANCH   6   7
BRANCH   4  17
ATOM     17  C   UNL     1       2.834  15.413  18.829  0.00  0.00    +0.000 C 
ATOM     18  C   UNL     1       3.556  15.578  17.484  0.00  0.00    +0.000 C 
ATOM     19  C   UNL     1       1.716  16.454  18.962  0.00  0.00    +0.000 C 
BRANCH  17  20
ATOM     20  O   UNL     1       3.784  15.698  19.861  0.00  0.00    +0.000 OA
ATOM     21  H   UNL     1       3.684  16.635  20.098  0.00  0.00    +0.000 HD
ENDBRANCH  17  20
ENDBRANCH   4  17
BRANCH   1  22
ATOM     22  N   UNL     1       0.797  10.085  19.062  0.00  0.00    +0.000 N 
ATOM     23  H   UNL     1      -0.205  10.102  19.238  0.00  0.00    +0.000 HD
BRANCH  22  27
ATOM     24  C   UNL     1       2.530   6.374  19.856  0.00  0.00    +0.000 A 
ATOM     25  N   UNL     1       1.700   6.926  20.776  0.00  0.00    +0.000 NA
ATOM     26  C   UNL     1       1.177   8.142  20.487  0.00  0.00    +0.000 A 
ATOM     27  C   UNL     1       1.442   8.866  19.331  0.00  0.00    +0.000 A 
ATOM     28  C   UNL     1       2.319   8.255  18.429  0.00  0.00    +0.000 A 
ATOM     29  C   UNL     1       2.898   7.002  18.685  0.00  0.00    +0.000 A 
BRANCH  29  30
ATOM     30  C   UNL     1       3.817   6.405  17.668  0.00  0.00    +0.000 C 
ATOM     31  F   UNL     1       3.437   5.215  17.130  0.00  0.00    +0.000 F 
ATOM     32  F   UNL     1       3.997   7.239  16.600  0.00  0.00    +0.000 F 
ATOM     33  F   UNL     1       5.071   6.191  18.166  0.00  0.00    +0.000 F 
ENDBRANCH  29  30
BRANCH  24  35
ATOM     34  C   UNL     1       2.190   4.392  21.020  0.00  0.00    +0.000 C 
ATOM     35  O   UNL     1       3.011   5.110  20.104  0.00  0.00    +0.000 OA
ENDBRANCH  24  35
ENDBRANCH  22  27
ENDBRANCH   1  22
TORSDOF 7
ENDMDL
