MODEL 1
REMARK VINA RESULT:      -6.7      0.000      0.000
REMARK  Name = 
REMARK  4 active torsions:
REMARK  status: ('A' for Active; 'I' for Inactive)
REMARK    1  A    between atoms: O_1  and  C_2
REMARK    2  A    between atoms: C_5  and  C_6
REMARK    3  A    between atoms: C_6  and  C_7
REMARK    4  A    between atoms: C_14  and  O_15
REMARK                            x       y       z     vdW  Elec       q    Type
REMARK                         _______ _______ _______ _____ _____    ______ ____
ROOT
ATOM      1  C   UNL     1       6.806   4.453  17.515  0.00  0.00    +0.000 A 
ATOM      2  C   UNL     1       5.960   4.182  16.440  0.00  0.00    +0.000 A 
ATOM      3  C   UNL     1       4.590   4.444  16.549  0.00  0.00    +0.000 A 
ATOM      4  C   UNL     1       4.055   4.988  17.726  0.00  0.00    +0.000 A 
ATOM      5  C   UNL     1       4.915   5.212  18.805  0.00  0.00    +0.000 A 
ATOM      6  F   UNL     1       4.429   5.690  19.962  0.00  0.00    +0.000 F 
ATOM      7  C   UNL     1       6.283   4.956  18.703  0.00  0.00    +0.000 A 
ENDROOT
BRANCH   1   8
ATOM      8  O   UNL     1       8.148   4.226  17.411  0.00  0.00    +0.000 OA
ATOM      9  H   UNL     1       8.299   3.305  17.146  0.00  0.00    +0.000 HD
ENDBRANCH   1   8
BRANCH   7  10
ATOM     10  O   UNL     1       7.111   5.206  19.765  0.00  0.00    +0.000 OA
ATOM     11  H   UNL     1       7.814   5.802  19.452  0.00  0.00    +0.000 HD
ENDBRANCH   7  10
BRANCH   4  12
ATOM     12  C   UNL     1       2.590   5.327  17.817  0.00  0.00    +0.000 C 
BRANCH  12  13
ATOM     13  C   UNL     1       1.782   4.255  18.500  0.00  0.00    +0.000 C 
ATOM     14  N   UNL     1       1.412   3.166  17.870  0.00  0.00    +0.000 NA
ATOM     15  C   UNL     1       0.651   2.400  18.901  0.00  0.00    +0.000 C 
ATOM     16  C   UNL     1       1.002   3.039  20.250  0.00  0.00    +0.000 C 
ATOM     17  N   UNL     1       1.423   4.351  19.822  0.00  0.00    +0.000 N 
ATOM     18  H   UNL     1       2.033   4.883  20.435  0.00  0.00    +0.000 HD
ENDBRANCH  12  13
ENDBRANCH   4  12
TORSDOF 4
ENDMDL
MODEL 2
REMARK VINA RESULT:      -6.4      3.655      5.421
REMARK  Name = 
REMARK  4 active torsions:
REMARK  status: ('A' for Active; 'I' for Inactive)
REMARK    1  A    between atoms: O_1  and  C_2
REMARK    2  A    between atoms: C_5  and  C_6
REMARK    3  A    between atoms: C_6  and  C_7
REMARK    4  A    between atoms: C_14  and  O_15
REMARK                            x       y       z     vdW  Elec       q    Type
REMARK                         _______ _______ _______ _____ _____    ______ ____
ROOT
ATOM      1  C   UNL     1       1.541   3.729  19.357  0.00  0.00    +0.000 A 
ATOM      2  C   UNL     1       2.064   4.987  19.060  0.00  0.00    +0.000 A 
ATOM      3  C   UNL     1       3.166   5.100  18.207  0.00  0.00    +0.000 A 
ATOM      4  C   UNL     1       3.748   3.959  17.633  0.00  0.00    +0.000 A 
ATOM      5  C   UNL     1       3.233   2.706  17.977  0.00  0.00    +0.000 A 
ATOM      6  F   UNL     1       3.794   1.591  17.480  0.00  0.00    +0.000 F 
ATOM      7  C   UNL     1       2.132   2.586  18.826  0.00  0.00    +0.000 A 
ENDROOT
BRANCH   1   8
ATOM      8  O   UNL     1       0.449   3.609  20.168  0.00  0.00    +0.000 OA
ATOM      9  H   UNL     1      -0.115   2.889  19.844  0.00  0.00    +0.000 HD
ENDBRANCH   1   8
BRANCH   7  10
ATOM     10  O   UNL     1       1.629   1.350  19.130  0.00  0.00    +0.000 OA
ATOM     11  H   UNL     1       0.786   1.486  19.598  0.00  0.00    +0.000 HD
ENDBRANCH   7  10
BRANCH   4  12
ATOM     12  C   UNL     1       4.894   4.090  16.665  0.00  0.00    +0.000 C 
BRANCH  12  13
ATOM     13  C   UNL     1       6.042   4.894  17.219  0.00  0.00    +0.000 C 
ATOM     14  N   UNL     1       6.268   6.125  16.832  0.00  0.00    +0.000 NA
ATOM     15  C   UNL     1       7.471   6.529  17.619  0.00  0.00    +0.000 C 
ATOM     16  C   UNL     1       7.607   5.499  18.746  0.00  0.00    +0.000 C 
ATOM     17  N   UNL     1       6.882   4.387  18.180  0.00  0.00    +0.000 N 
ATOM     18  H   UNL     1       6.503   3.689  18.813  0.00  0.00    +0.000 HD
ENDBRANCH  12  13
ENDBRANCH   4  12
TORSDOF 4
ENDMDL
MODEL 3
REMARK VINA RESULT:      -6.3      3.499      5.292
REMARK  Name = 
REMARK  4 active torsions:
REMARK  status: ('A' for Active; 'I' for Inactive)
REMARK    1  A    between atoms: O_1  and  C_2
REMARK    2  A    between atoms: C_5  and  C_6
REMARK    3  A    between atoms: C_6  and  C_7
REMARK    4  A    between atoms: C_14  and  O_15
REMARK                            x       y       z     vdW  Elec       q    Type
REMARK                         _______ _______ _______ _____ _____    ______ ____
ROOT
ATOM      1  C   UNL     1       2.434   2.844  20.844  0.00  0.00    +0.000 A 
ATOM      2  C   UNL     1       3.739   2.515  20.481  0.00  0.00    +0.000 A 
ATOM      3  C   UNL     1       4.206   2.826  19.199  0.00  0.00    +0.000 A 
ATOM      4  C   UNL     1       3.378   3.480  18.274  0.00  0.00    +0.000 A 
ATOM      5  C   UNL     1       2.060   3.763  18.646  0.00  0.00    +0.000 A 
ATOM      6  F   UNL     1       1.227   4.348  17.770  0.00  0.00    +0.000 F 
ATOM      7  C   UNL     1       1.589   3.458  19.924  0.00  0.00    +0.000 A 
ENDROOT
BRANCH   1   8
ATOM      8  O   UNL     1       1.977   2.569  22.101  0.00  0.00    +0.000 OA
ATOM      9  H   UNL     1       2.574   1.934  22.528  0.00  0.00    +0.000 HD
ENDBRANCH   1   8
BRANCH   7  10
ATOM     10  O   UNL     1       0.302   3.766  20.274  0.00  0.00    +0.000 OA
ATOM     11  H   UNL     1      -0.280   3.112  19.850  0.00  0.00    +0.000 HD
ENDBRANCH   7  10
BRANCH   4  12
ATOM     12  C   UNL     1       3.903   3.870  16.918  0.00  0.00    +0.000 C 
BRANCH  12  13
ATOM     13  C   UNL     1       5.254   4.534  16.982  0.00  0.00    +0.000 C 
ATOM     14  N   UNL     1       5.396   5.762  17.420  0.00  0.00    +0.000 NA
ATOM     15  C   UNL     1       6.865   6.008  17.314  0.00  0.00    +0.000 C 
ATOM     16  C   UNL     1       7.516   4.632  17.139  0.00  0.00    +0.000 C 
ATOM     17  N   UNL     1       6.402   3.875  16.618  0.00  0.00    +0.000 N 
ATOM     18  H   UNL     1       6.417   2.865  16.724  0.00  0.00    +0.000 HD
ENDBRANCH  12  13
ENDBRANCH   4  12
TORSDOF 4
ENDMDL
MODEL 4
REMARK VINA RESULT:      -6.3      3.578      5.179
REMARK  Name = 
REMARK  4 active torsions:
REMARK  status: ('A' for Active; 'I' for Inactive)
REMARK    1  A    between atoms: O_1  and  C_2
REMARK    2  A    between atoms: C_5  and  C_6
REMARK    3  A    between atoms: C_6  and  C_7
REMARK    4  A    between atoms: C_14  and  O_15
REMARK                            x       y       z     vdW  Elec       q    Type
REMARK                         _______ _______ _______ _____ _____    ______ ____
ROOT
ATOM      1  C   UNL     1       1.318   2.787  18.571  0.00  0.00    +0.000 A 
ATOM      2  C   UNL     1       2.165   3.206  17.546  0.00  0.00    +0.000 A 
ATOM      3  C   UNL     1       3.149   4.166  17.803  0.00  0.00    +0.000 A 
ATOM      4  C   UNL     1       3.305   4.707  19.088  0.00  0.00    +0.000 A 
ATOM      5  C   UNL     1       2.419   4.302  20.091  0.00  0.00    +0.000 A 
ATOM      6  F   UNL     1       2.511   4.832  21.322  0.00  0.00    +0.000 F 
ATOM      7  C   UNL     1       1.435   3.343  19.842  0.00  0.00    +0.000 A 
ENDROOT
BRANCH   1   8
ATOM      8  O   UNL     1       0.371   1.831  18.337  0.00  0.00    +0.000 OA
ATOM      9  H   UNL     1      -0.510   2.209  18.489  0.00  0.00    +0.000 HD
ENDBRANCH   1   8
BRANCH   7  10
ATOM     10  O   UNL     1       0.594   2.944  20.845  0.00  0.00    +0.000 OA
ATOM     11  H   UNL     1       0.965   2.130  21.230  0.00  0.00    +0.000 HD
ENDBRANCH   7  10
BRANCH   4  12
ATOM     12  C   UNL     1       4.406   5.692  19.376  0.00  0.00    +0.000 C 
BRANCH  12  13
ATOM     13  C   UNL     1       5.633   5.464  18.532  0.00  0.00    +0.000 C 
ATOM     14  N   UNL     1       6.485   4.505  18.802  0.00  0.00    +0.000 NA
ATOM     15  C   UNL     1       7.520   4.639  17.735  0.00  0.00    +0.000 C 
ATOM     16  C   UNL     1       6.902   5.530  16.652  0.00  0.00    +0.000 C 
ATOM     17  N   UNL     1       5.897   6.225  17.420  0.00  0.00    +0.000 N 
ATOM     18  H   UNL     1       5.105   6.623  16.925  0.00  0.00    +0.000 HD
ENDBRANCH  12  13
ENDBRANCH   4  12
TORSDOF 4
ENDMDL
MODEL 5
REMARK VINA RESULT:      -6.3      3.502      5.321
REMARK  Name = 
REMARK  4 active torsions:
REMARK  status: ('A' for Active; 'I' for Inactive)
REMARK    1  A    between atoms: O_1  and  C_2
REMARK    2  A    between atoms: C_5  and  C_6
REMARK    3  A    between atoms: C_6  and  C_7
REMARK    4  A    between atoms: C_14  and  O_15
REMARK                            x       y       z     vdW  Elec       q    Type
REMARK                         _______ _______ _______ _____ _____    ______ ____
ROOT
ATOM      1  C   UNL     1       1.500   3.546  20.286  0.00  0.00    +0.000 A 
ATOM      2  C   UNL     1       2.098   4.737  20.695  0.00  0.00    +0.000 A 
ATOM      3  C   UNL     1       2.871   5.474  19.792  0.00  0.00    +0.000 A 
ATOM      4  C   UNL     1       3.044   5.035  18.471  0.00  0.00    +0.000 A 
ATOM      5  C   UNL     1       2.469   3.818  18.095  0.00  0.00    +0.000 A 
ATOM      6  F   UNL     1       2.651   3.346  16.850  0.00  0.00    +0.000 F 
ATOM      7  C   UNL     1       1.694   3.078  18.990  0.00  0.00    +0.000 A 
ENDROOT
BRANCH   1   8
ATOM      8  O   UNL     1       0.721   2.832  21.152  0.00  0.00    +0.000 OA
ATOM      9  H   UNL     1      -0.183   2.783  20.804  0.00  0.00    +0.000 HD
ENDBRANCH   1   8
BRANCH   7  10
ATOM     10  O   UNL     1       1.120   1.900  18.593  0.00  0.00    +0.000 OA
ATOM     11  H   UNL     1       0.261   2.116  18.190  0.00  0.00    +0.000 HD
ENDBRANCH   7  10
BRANCH   4  12
ATOM     12  C   UNL     1       3.824   5.864  17.484  0.00  0.00    +0.000 C 
BRANCH  12  13
ATOM     13  C   UNL     1       5.159   5.258  17.136  0.00  0.00    +0.000 C 
ATOM     14  N   UNL     1       5.566   5.158  15.894  0.00  0.00    +0.000 NA
ATOM     15  C   UNL     1       6.908   4.516  16.011  0.00  0.00    +0.000 C 
ATOM     16  C   UNL     1       7.318   4.651  17.481  0.00  0.00    +0.000 C 
ATOM     17  N   UNL     1       6.026   4.814  18.104  0.00  0.00    +0.000 N 
ATOM     18  H   UNL     1       5.985   5.264  19.013  0.00  0.00    +0.000 HD
ENDBRANCH  12  13
ENDBRANCH   4  12
TORSDOF 4
ENDMDL
MODEL 6
REMARK VINA RESULT:      -6.3      3.351      5.158
REMARK  Name = 
REMARK  4 active torsions:
REMARK  status: ('A' for Active; 'I' for Inactive)
REMARK    1  A    between atoms: O_1  and  C_2
REMARK    2  A    between atoms: C_5  and  C_6
REMARK    3  A    between atoms: C_6  and  C_7
REMARK    4  A    between atoms: C_14  and  O_15
REMARK                            x       y       z     vdW  Elec       q    Type
REMARK                         _______ _______ _______ _____ _____    ______ ____
ROOT
ATOM      1  C   UNL     1       1.462   3.409  19.591  0.00  0.00    +0.000 A 
ATOM      2  C   UNL     1       1.338   3.886  18.287  0.00  0.00    +0.000 A 
ATOM      3  C   UNL     1       2.466   3.959  17.461  0.00  0.00    +0.000 A 
ATOM      4  C   UNL     1       3.723   3.545  17.927  0.00  0.00    +0.000 A 
ATOM      5  C   UNL     1       3.830   3.109  19.251  0.00  0.00    +0.000 A 
ATOM      6  F   UNL     1       5.027   2.748  19.743  0.00  0.00    +0.000 F 
ATOM      7  C   UNL     1       2.709   3.032  20.079  0.00  0.00    +0.000 A 
ENDROOT
BRANCH   1   8
ATOM      8  O   UNL     1       0.363   3.310  20.396  0.00  0.00    +0.000 OA
ATOM      9  H   UNL     1       0.612   2.873  21.226  0.00  0.00    +0.000 HD
ENDBRANCH   1   8
BRANCH   7  10
ATOM     10  O   UNL     1       2.834   2.579  21.365  0.00  0.00    +0.000 OA
ATOM     11  H   UNL     1       2.948   3.358  21.937  0.00  0.00    +0.000 HD
ENDBRANCH   7  10
BRANCH   4  12
ATOM     12  C   UNL     1       4.921   3.566  17.015  0.00  0.00    +0.000 C 
BRANCH  12  13
ATOM     13  C   UNL     1       5.917   4.636  17.380  0.00  0.00    +0.000 C 
ATOM     14  N   UNL     1       5.675   5.905  17.155  0.00  0.00    +0.000 NA
ATOM     15  C   UNL     1       6.899   6.594  17.661  0.00  0.00    +0.000 C 
ATOM     16  C   UNL     1       7.637   5.568  18.530  0.00  0.00    +0.000 C 
ATOM     17  N   UNL     1       7.108   4.337  17.995  0.00  0.00    +0.000 N 
ATOM     18  H   UNL     1       7.138   3.507  18.580  0.00  0.00    +0.000 HD
ENDBRANCH  12  13
ENDBRANCH   4  12
TORSDOF 4
ENDMDL
MODEL 7
REMARK VINA RESULT:      -6.2      3.087      4.026
REMARK  Name = 
REMARK  4 active torsions:
REMARK  status: ('A' for Active; 'I' for Inactive)
REMARK    1  A    between atoms: O_1  and  C_2
REMARK    2  A    between atoms: C_5  and  C_6
REMARK    3  A    between atoms: C_6  and  C_7
REMARK    4  A    between atoms: C_14  and  O_15
REMARK                            x       y       z     vdW  Elec       q    Type
REMARK                         _______ _______ _______ _____ _____    ______ ____
ROOT
ATOM      1  C   UNL     1       2.856   2.725  18.494  0.00  0.00    +0.000 A 
ATOM      2  C   UNL     1       1.788   3.432  17.945  0.00  0.00    +0.000 A 
ATOM      3  C   UNL     1       1.849   4.827  17.853  0.00  0.00    +0.000 A 
ATOM      4  C   UNL     1       2.981   5.526  18.297  0.00  0.00    +0.000 A 
ATOM      5  C   UNL     1       4.023   4.800  18.881  0.00  0.00    +0.000 A 
ATOM      6  F   UNL     1       5.103   5.441  19.356  0.00  0.00    +0.000 F 
ATOM      7  C   UNL     1       3.971   3.408  18.974  0.00  0.00    +0.000 A 
ENDROOT
BRANCH   1   8
ATOM      8  O   UNL     1       2.818   1.362  18.565  0.00  0.00    +0.000 OA
ATOM      9  H   UNL     1       3.627   1.040  18.994  0.00  0.00    +0.000 HD
ENDBRANCH   1   8
BRANCH   7  10
ATOM     10  O   UNL     1       5.013   2.715  19.529  0.00  0.00    +0.000 OA
ATOM     11  H   UNL     1       5.274   2.025  18.894  0.00  0.00    +0.000 HD
ENDBRANCH   7  10
BRANCH   4  12
ATOM     12  C   UNL     1       3.070   7.021  18.137  0.00  0.00    +0.000 C 
BRANCH  12  13
ATOM     13  C   UNL     1       2.278   7.769  19.178  0.00  0.00    +0.000 C 
ATOM     14  N   UNL     1       1.606   8.855  18.881  0.00  0.00    +0.000 NA
ATOM     15  C   UNL     1       0.986   9.254  20.179  0.00  0.00    +0.000 C 
ATOM     16  C   UNL     1       1.096   8.032  21.097  0.00  0.00    +0.000 C 
ATOM     17  N   UNL     1       2.195   7.331  20.476  0.00  0.00    +0.000 N 
ATOM     18  H   UNL     1       2.281   6.332  20.641  0.00  0.00    +0.000 HD
ENDBRANCH  12  13
ENDBRANCH   4  12
TORSDOF 4
ENDMDL
MODEL 8
REMARK VINA RESULT:      -6.2      3.669      5.477
REMARK  Name = 
REMARK  4 active torsions:
REMARK  status: ('A' for Active; 'I' for Inactive)
REMARK    1  A    between atoms: O_1  and  C_2
REMARK    2  A    between atoms: C_5  and  C_6
REMARK    3  A    between atoms: C_6  and  C_7
REMARK    4  A    between atoms: C_14  and  O_15
REMARK                            x       y       z     vdW  Elec       q    Type
REMARK                         _______ _______ _______ _____ _____    ______ ____
ROOT
ATOM      1  C   UNL     1       1.488   3.647  19.468  0.00  0.00    +0.000 A 
ATOM      2  C   UNL     1       1.983   4.943  19.335  0.00  0.00    +0.000 A 
ATOM      3  C   UNL     1       3.113   5.180  18.545  0.00  0.00    +0.000 A 
ATOM      4  C   UNL     1       3.750   4.127  17.872  0.00  0.00    +0.000 A 
ATOM      5  C   UNL     1       3.261   2.830  18.052  0.00  0.00    +0.000 A 
ATOM      6  F   UNL     1       3.874   1.793  17.458  0.00  0.00    +0.000 F 
ATOM      7  C   UNL     1       2.133   2.587  18.837  0.00  0.00    +0.000 A 
ENDROOT
BRANCH   1   8
ATOM      8  O   UNL     1       0.370   3.408  20.216  0.00  0.00    +0.000 OA
ATOM      9  H   UNL     1       0.614   3.369  21.154  0.00  0.00    +0.000 HD
ENDBRANCH   1   8
BRANCH   7  10
ATOM     10  O   UNL     1       1.657   1.311  18.981  0.00  0.00    +0.000 OA
ATOM     11  H   UNL     1       1.524   0.948  18.088  0.00  0.00    +0.000 HD
ENDBRANCH   7  10
BRANCH   4  12
ATOM     12  C   UNL     1       4.927   4.395  16.971  0.00  0.00    +0.000 C 
BRANCH  12  13
ATOM     13  C   UNL     1       6.012   5.192  17.647  0.00  0.00    +0.000 C 
ATOM     14  N   UNL     1       6.805   4.654  18.541  0.00  0.00    +0.000 NA
ATOM     15  C   UNL     1       7.708   5.776  18.936  0.00  0.00    +0.000 C 
ATOM     16  C   UNL     1       7.543   6.854  17.859  0.00  0.00    +0.000 C 
ATOM     17  N   UNL     1       6.244   6.509  17.333  0.00  0.00    +0.000 N 
ATOM     18  H   UNL     1       6.010   6.815  16.394  0.00  0.00    +0.000 HD
ENDBRANCH  12  13
ENDBRANCH   4  12
TORSDOF 4
ENDMDL
MODEL 9
REMARK VINA RESULT:      -6.2      3.470      5.383
REMARK  Name = 
REMARK  4 active torsions:
REMARK  status: ('A' for Active; 'I' for Inactive)
REMARK    1  A    between atoms: O_1  and  C_2
REMARK    2  A    between atoms: C_5  and  C_6
REMARK    3  A    between atoms: C_6  and  C_7
REMARK    4  A    between atoms: C_14  and  O_15
REMARK                            x       y       z     vdW  Elec       q    Type
REMARK                         _______ _______ _______ _____ _____    ______ ____
ROOT
ATOM      1  C   UNL     1       1.486   3.584  20.224  0.00  0.00    +0.000 A 
ATOM      2  C   UNL     1       2.018   4.799  20.656  0.00  0.00    +0.000 A 
ATOM      3  C   UNL     1       2.801   5.565  19.786  0.00  0.00    +0.000 A 
ATOM      4  C   UNL     1       3.050   5.131  18.475  0.00  0.00    +0.000 A 
ATOM      5  C   UNL     1       2.541   3.892  18.077  0.00  0.00    +0.000 A 
ATOM      6  F   UNL     1       2.798   3.426  16.844  0.00  0.00    +0.000 F 
ATOM      7  C   UNL     1       1.757   3.123  18.939  0.00  0.00    +0.000 A 
ENDROOT
BRANCH   1   8
ATOM      8  O   UNL     1       0.699   2.841  21.056  0.00  0.00    +0.000 OA
ATOM      9  H   UNL     1       0.941   3.026  21.977  0.00  0.00    +0.000 HD
ENDBRANCH   1   8
BRANCH   7  10
ATOM     10  O   UNL     1       1.249   1.923  18.520  0.00  0.00    +0.000 OA
ATOM     11  H   UNL     1       1.586   1.762  17.622  0.00  0.00    +0.000 HD
ENDBRANCH   7  10
BRANCH   4  12
ATOM     12  C   UNL     1       3.840   5.989  17.522  0.00  0.00    +0.000 C 
BRANCH  12  13
ATOM     13  C   UNL     1       5.244   5.486  17.307  0.00  0.00    +0.000 C 
ATOM     14  N   UNL     1       6.011   5.140  18.313  0.00  0.00    +0.000 NA
ATOM     15  C   UNL     1       7.283   4.712  17.657  0.00  0.00    +0.000 C 
ATOM     16  C   UNL     1       6.949   4.507  16.175  0.00  0.00    +0.000 C 
ATOM     17  N   UNL     1       5.774   5.334  16.049  0.00  0.00    +0.000 N 
ATOM     18  H   UNL     1       5.128   5.140  15.290  0.00  0.00    +0.000 HD
ENDBRANCH  12  13
ENDBRANCH   4  12
TORSDOF 4
ENDMDL
