MODEL 1
REMARK VINA RESULT:      -6.8      0.000      0.000
REMARK  Name = 
REMARK  6 active torsions:
REMARK  status: ('A' for Active; 'I' for Inactive)
REMARK    1  A    between atoms: C_11  and  C_12
REMARK    2  A    between atoms: C_12  and  C_13
REMARK    3  A    between atoms: C_19  and  C_20
REMARK    4  A    between atoms: C_20  and  C_21
REMARK    5  A    between atoms: N_27  and  C_28
REMARK    6  A    between atoms: C_28  and  C_29
REMARK                            x       y       z     vdW  Elec       q    Type
REMARK                         _______ _______ _______ _____ _____    ______ ____
ROOT
ATOM      1  S   UNL     1      -2.564  11.166  16.448  0.00  0.00    +0.000 S 
ATOM      2  C   UNL     1      -2.663  11.669  18.021  0.00  0.00    +0.000 A 
ATOM      3  N   UNL     1      -3.874  11.967  18.673  0.00  0.00    +0.000 N 
ATOM      4  C   UNL     1      -3.583  12.469  19.938  0.00  0.00    +0.000 A 
ATOM      5  C   UNL     1      -4.434  12.918  20.918  0.00  0.00    +0.000 A 
ATOM      6  C   UNL     1      -3.841  13.437  22.076  0.00  0.00    +0.000 A 
ATOM      7  C   UNL     1      -2.444  13.604  22.164  0.00  0.00    +0.000 A 
ATOM      8  C   UNL     1      -1.599  13.221  21.108  0.00  0.00    +0.000 A 
ATOM      9  C   UNL     1      -2.203  12.537  20.072  0.00  0.00    +0.000 A 
ATOM     10  N   UNL     1      -1.633  11.934  18.941  0.00  0.00    +0.000 N 
ATOM     11  C   UNL     1      -0.190  11.695  18.828  0.00  0.00    +0.000 C 
ATOM     12  C   UNL     1       0.529  13.086  18.671  0.00  0.00    +0.000 C 
ATOM     13  N   UNL     1       0.284  14.168  19.704  0.00  0.00    +0.000 NA
ATOM     14  C   UNL     1      -0.167  13.707  21.032  0.00  0.00    +0.000 C 
ATOM     15  H   UNL     1      -4.784  11.907  18.241  0.00  0.00    +0.000 HD
ENDROOT
BRANCH  11  16
ATOM     16  C   UNL     1       0.340  10.750  19.949  0.00  0.00    +0.000 C 
BRANCH  16  17
ATOM     17  C   UNL     1       1.013   9.460  19.512  0.00  0.00    +0.000 A 
ATOM     18  C   UNL     1       1.457   9.307  18.197  0.00  0.00    +0.000 A 
ATOM     19  C   UNL     1       2.228   8.196  17.835  0.00  0.00    +0.000 A 
ATOM     20  C   UNL     1       2.549   7.225  18.780  0.00  0.00    +0.000 A 
ATOM     21  C   UNL     1       2.073   7.347  20.085  0.00  0.00    +0.000 A 
ATOM     22  C   UNL     1       1.309   8.455  20.449  0.00  0.00    +0.000 A 
ENDBRANCH  16  17
ENDBRANCH  11  16
BRANCH  12  23
ATOM     23  C   UNL     1       2.054  12.956  18.378  0.00  0.00    +0.000 C 
BRANCH  23  24
ATOM     24  C   UNL     1       2.915  14.171  18.699  0.00  0.00    +0.000 A 
ATOM     25  C   UNL     1       3.584  14.288  19.929  0.00  0.00    +0.000 A 
ATOM     26  C   UNL     1       4.496  15.325  20.164  0.00  0.00    +0.000 A 
ATOM     27  C   UNL     1       4.763  16.259  19.170  0.00  0.00    +0.000 A 
ATOM     28  C   UNL     1       4.096  16.175  17.952  0.00  0.00    +0.000 A 
ATOM     29  C   UNL     1       3.178  15.141  17.718  0.00  0.00    +0.000 A 
ENDBRANCH  23  24
ENDBRANCH  12  23
BRANCH  13  30
ATOM     30  C   UNL     1      -0.580  15.226  19.120  0.00  0.00    +0.000 C 
BRANCH  30  31
ATOM     31  C   UNL     1      -0.307  16.637  19.556  0.00  0.00    +0.000 C 
ATOM     32  C   UNL     1       1.048  17.110  20.013  0.00  0.00    +0.000 C 
ATOM     33  C   UNL     1       0.524  17.536  18.670  0.00  0.00    +0.000 C 
ENDBRANCH  30  31
ENDBRANCH  13  30
TORSDOF 6
ENDMDL
MODEL 2
REMARK VINA RESULT:      -6.4      2.440      5.831
REMARK  Name = 
REMARK  6 active torsions:
REMARK  status: ('A' for Active; 'I' for Inactive)
REMARK    1  A    between atoms: C_11  and  C_12
REMARK    2  A    between atoms: C_12  and  C_13
REMARK    3  A    between atoms: C_19  and  C_20
REMARK    4  A    between atoms: C_20  and  C_21
REMARK    5  A    between atoms: N_27  and  C_28
REMARK    6  A    between atoms: C_28  and  C_29
REMARK                            x       y       z     vdW  Elec       q    Type
REMARK                         _______ _______ _______ _____ _____    ______ ____
ROOT
ATOM      1  S   UNL     1      -3.731  14.026  21.700  0.00  0.00    +0.000 S 
ATOM      2  C   UNL     1      -3.334  13.106  20.384  0.00  0.00    +0.000 A 
ATOM      3  N   UNL     1      -4.237  12.251  19.725  0.00  0.00    +0.000 N 
ATOM      4  C   UNL     1      -3.544  11.549  18.743  0.00  0.00    +0.000 A 
ATOM      5  C   UNL     1      -3.996  10.588  17.871  0.00  0.00    +0.000 A 
ATOM      6  C   UNL     1      -3.040  10.001  17.032  0.00  0.00    +0.000 A 
ATOM      7  C   UNL     1      -1.669  10.296  17.176  0.00  0.00    +0.000 A 
ATOM      8  C   UNL     1      -1.221  11.216  18.140  0.00  0.00    +0.000 A 
ATOM      9  C   UNL     1      -2.207  11.914  18.809  0.00  0.00    +0.000 A 
ATOM     10  N   UNL     1      -2.094  12.960  19.737  0.00  0.00    +0.000 N 
ATOM     11  C   UNL     1      -0.838  13.691  19.939  0.00  0.00    +0.000 C 
ATOM     12  C   UNL     1       0.188  12.723  20.635  0.00  0.00    +0.000 C 
ATOM     13  N   UNL     1       0.492  11.382  19.997  0.00  0.00    +0.000 NA
ATOM     14  C   UNL     1       0.235  11.280  18.548  0.00  0.00    +0.000 C 
ATOM     15  H   UNL     1      -5.199  12.118  19.997  0.00  0.00    +0.000 HD
ENDROOT
BRANCH  11  16
ATOM     16  C   UNL     1      -0.360  14.412  18.642  0.00  0.00    +0.000 C 
BRANCH  16  17
ATOM     17  C   UNL     1      -0.058  15.898  18.741  0.00  0.00    +0.000 A 
ATOM     18  C   UNL     1      -0.986  16.768  19.316  0.00  0.00    +0.000 A 
ATOM     19  C   UNL     1      -0.644  18.103  19.566  0.00  0.00    +0.000 A 
ATOM     20  C   UNL     1       0.621  18.579  19.232  0.00  0.00    +0.000 A 
ATOM     21  C   UNL     1       1.539  17.728  18.618  0.00  0.00    +0.000 A 
ATOM     22  C   UNL     1       1.202  16.398  18.372  0.00  0.00    +0.000 A 
ENDBRANCH  16  17
ENDBRANCH  11  16
BRANCH  12  23
ATOM     23  C   UNL     1       1.511  13.434  21.052  0.00  0.00    +0.000 C 
BRANCH  23  24
ATOM     24  C   UNL     1       1.368  14.761  21.787  0.00  0.00    +0.000 A 
ATOM     25  C   UNL     1       2.374  15.741  21.728  0.00  0.00    +0.000 A 
ATOM     26  C   UNL     1       2.178  17.016  22.272  0.00  0.00    +0.000 A 
ATOM     27  C   UNL     1       0.971  17.339  22.879  0.00  0.00    +0.000 A 
ATOM     28  C   UNL     1      -0.032  16.377  22.968  0.00  0.00    +0.000 A 
ATOM     29  C   UNL     1       0.165  15.098  22.428  0.00  0.00    +0.000 A 
ENDBRANCH  23  24
ENDBRANCH  12  23
BRANCH  13  30
ATOM     30  C   UNL     1      -0.147  10.299  20.789  0.00  0.00    +0.000 C 
BRANCH  30  31
ATOM     31  C   UNL     1      -0.027  10.396  22.283  0.00  0.00    +0.000 C 
ATOM     32  C   UNL     1      -1.200  10.667  23.188  0.00  0.00    +0.000 C 
ATOM     33  C   UNL     1      -0.596   9.291  23.143  0.00  0.00    +0.000 C 
ENDBRANCH  30  31
ENDBRANCH  13  30
TORSDOF 6
ENDMDL
MODEL 3
REMARK VINA RESULT:      -6.4      2.670      4.403
REMARK  Name = 
REMARK  6 active torsions:
REMARK  status: ('A' for Active; 'I' for Inactive)
REMARK    1  A    between atoms: C_11  and  C_12
REMARK    2  A    between atoms: C_12  and  C_13
REMARK    3  A    between atoms: C_19  and  C_20
REMARK    4  A    between atoms: C_20  and  C_21
REMARK    5  A    between atoms: N_27  and  C_28
REMARK    6  A    between atoms: C_28  and  C_29
REMARK                            x       y       z     vdW  Elec       q    Type
REMARK                         _______ _______ _______ _____ _____    ______ ____
ROOT
ATOM      1  S   UNL     1      -4.221  12.063  18.396  0.00  0.00    +0.000 S 
ATOM      2  C   UNL     1      -4.928  12.181  19.888  0.00  0.00    +0.000 A 
ATOM      3  N   UNL     1      -6.265  11.830  20.150  0.00  0.00    +0.000 N 
ATOM      4  C   UNL     1      -6.559  12.163  21.468  0.00  0.00    +0.000 A 
ATOM      5  C   UNL     1      -7.738  12.034  22.162  0.00  0.00    +0.000 A 
ATOM      6  C   UNL     1      -7.753  12.526  23.474  0.00  0.00    +0.000 A 
ATOM      7  C   UNL     1      -6.650  13.231  23.998  0.00  0.00    +0.000 A 
ATOM      8  C   UNL     1      -5.487  13.430  23.234  0.00  0.00    +0.000 A 
ATOM      9  C   UNL     1      -5.439  12.764  22.026  0.00  0.00    +0.000 A 
ATOM     10  N   UNL     1      -4.394  12.669  21.094  0.00  0.00    +0.000 N 
ATOM     11  C   UNL     1      -3.021  13.067  21.419  0.00  0.00    +0.000 C 
ATOM     12  C   UNL     1      -2.984  14.633  21.569  0.00  0.00    +0.000 C 
ATOM     13  N   UNL     1      -3.938  15.307  22.535  0.00  0.00    +0.000 NA
ATOM     14  C   UNL     1      -4.456  14.464  23.630  0.00  0.00    +0.000 C 
ATOM     15  H   UNL     1      -6.911  11.484  19.456  0.00  0.00    +0.000 HD
ENDROOT
BRANCH  11  16
ATOM     16  C   UNL     1      -2.427  12.232  22.594  0.00  0.00    +0.000 C 
BRANCH  16  17
ATOM     17  C   UNL     1      -1.352  11.215  22.252  0.00  0.00    +0.000 A 
ATOM     18  C   UNL     1      -0.789  10.421  23.254  0.00  0.00    +0.000 A 
ATOM     19  C   UNL     1       0.072   9.368  22.923  0.00  0.00    +0.000 A 
ATOM     20  C   UNL     1       0.386   9.110  21.591  0.00  0.00    +0.000 A 
ATOM     21  C   UNL     1      -0.136   9.923  20.587  0.00  0.00    +0.000 A 
ATOM     22  C   UNL     1      -0.998  10.969  20.915  0.00  0.00    +0.000 A 
ENDBRANCH  16  17
ENDBRANCH  11  16
BRANCH  12  23
ATOM     23  C   UNL     1      -1.543  15.195  21.754  0.00  0.00    +0.000 C 
BRANCH  23  24
ATOM     24  C   UNL     1      -0.465  14.619  20.843  0.00  0.00    +0.000 A 
ATOM     25  C   UNL     1       0.736  14.109  21.365  0.00  0.00    +0.000 A 
ATOM     26  C   UNL     1       1.656  13.440  20.548  0.00  0.00    +0.000 A 
ATOM     27  C   UNL     1       1.390  13.262  19.196  0.00  0.00    +0.000 A 
ATOM     28  C   UNL     1       0.216  13.777  18.654  0.00  0.00    +0.000 A 
ATOM     29  C   UNL     1      -0.704  14.452  19.470  0.00  0.00    +0.000 A 
ENDBRANCH  23  24
ENDBRANCH  12  23
BRANCH  13  30
ATOM     30  C   UNL     1      -5.004  16.007  21.772  0.00  0.00    +0.000 C 
BRANCH  30  31
ATOM     31  C   UNL     1      -4.818  16.103  20.285  0.00  0.00    +0.000 C 
ATOM     32  C   UNL     1      -5.944  16.405  19.332  0.00  0.00    +0.000 C 
ATOM     33  C   UNL     1      -4.905  17.455  19.616  0.00  0.00    +0.000 C 
ENDBRANCH  30  31
ENDBRANCH  13  30
TORSDOF 6
ENDMDL
MODEL 4
REMARK VINA RESULT:      -6.4      0.427      1.274
REMARK  Name = 
REMARK  6 active torsions:
REMARK  status: ('A' for Active; 'I' for Inactive)
REMARK    1  A    between atoms: C_11  and  C_12
REMARK    2  A    between atoms: C_12  and  C_13
REMARK    3  A    between atoms: C_19  and  C_20
REMARK    4  A    between atoms: C_20  and  C_21
REMARK    5  A    between atoms: N_27  and  C_28
REMARK    6  A    between atoms: C_28  and  C_29
REMARK                            x       y       z     vdW  Elec       q    Type
REMARK                         _______ _______ _______ _____ _____    ______ ____
ROOT
ATOM      1  S   UNL     1      -2.832  11.327  16.854  0.00  0.00    +0.000 S 
ATOM      2  C   UNL     1      -2.826  11.782  18.445  0.00  0.00    +0.000 A 
ATOM      3  N   UNL     1      -3.987  12.104  19.171  0.00  0.00    +0.000 N 
ATOM      4  C   UNL     1      -3.609  12.552  20.433  0.00  0.00    +0.000 A 
ATOM      5  C   UNL     1      -4.387  13.001  21.473  0.00  0.00    +0.000 A 
ATOM      6  C   UNL     1      -3.712  13.459  22.612  0.00  0.00    +0.000 A 
ATOM      7  C   UNL     1      -2.307  13.570  22.627  0.00  0.00    +0.000 A 
ATOM      8  C   UNL     1      -1.535  13.189  21.515  0.00  0.00    +0.000 A 
ATOM      9  C   UNL     1      -2.222  12.563  20.493  0.00  0.00    +0.000 A 
ATOM     10  N   UNL     1      -1.738  11.977  19.314  0.00  0.00    +0.000 N 
ATOM     11  C   UNL     1      -0.314  11.687  19.115  0.00  0.00    +0.000 C 
ATOM     12  C   UNL     1       0.450  13.054  18.961  0.00  0.00    +0.000 C 
ATOM     13  N   UNL     1       0.304  14.110  20.039  0.00  0.00    +0.000 NA
ATOM     14  C   UNL     1      -0.092  13.623  21.375  0.00  0.00    +0.000 C 
ATOM     15  H   UNL     1      -4.921  12.093  18.789  0.00  0.00    +0.000 HD
ENDROOT
BRANCH  11  16
ATOM     16  C   UNL     1       0.238  10.686  20.175  0.00  0.00    +0.000 C 
BRANCH  16  17
ATOM     17  C   UNL     1       1.107   9.547  19.671  0.00  0.00    +0.000 A 
ATOM     18  C   UNL     1       1.387   8.456  20.496  0.00  0.00    +0.000 A 
ATOM     19  C   UNL     1       2.040   7.329  19.983  0.00  0.00    +0.000 A 
ATOM     20  C   UNL     1       2.428   7.289  18.647  0.00  0.00    +0.000 A 
ATOM     21  C   UNL     1       2.192   8.391  17.826  0.00  0.00    +0.000 A 
ATOM     22  C   UNL     1       1.538   9.512  18.334  0.00  0.00    +0.000 A 
ENDBRANCH  16  17
ENDBRANCH  11  16
BRANCH  12  23
ATOM     23  C   UNL     1       1.951  12.875  18.581  0.00  0.00    +0.000 C 
BRANCH  23  24
ATOM     24  C   UNL     1       2.839  14.106  18.718  0.00  0.00    +0.000 A 
ATOM     25  C   UNL     1       2.880  15.092  17.717  0.00  0.00    +0.000 A 
ATOM     26  C   UNL     1       3.573  16.294  17.910  0.00  0.00    +0.000 A 
ATOM     27  C   UNL     1       4.231  16.536  19.110  0.00  0.00    +0.000 A 
ATOM     28  C   UNL     1       4.221  15.565  20.107  0.00  0.00    +0.000 A 
ATOM     29  C   UNL     1       3.532  14.359  19.913  0.00  0.00    +0.000 A 
ENDBRANCH  23  24
ENDBRANCH  12  23
BRANCH  13  30
ATOM     30  C   UNL     1      -0.547  15.219  19.537  0.00  0.00    +0.000 C 
BRANCH  30  31
ATOM     31  C   UNL     1      -0.360  16.560  20.186  0.00  0.00    +0.000 C 
ATOM     32  C   UNL     1       0.955  17.023  20.756  0.00  0.00    +0.000 C 
ATOM     33  C   UNL     1       0.448  17.620  19.473  0.00  0.00    +0.000 C 
ENDBRANCH  30  31
ENDBRANCH  13  30
TORSDOF 6
ENDMDL
MODEL 5
REMARK VINA RESULT:      -6.3      2.443      4.223
REMARK  Name = 
REMARK  6 active torsions:
REMARK  status: ('A' for Active; 'I' for Inactive)
REMARK    1  A    between atoms: C_11  and  C_12
REMARK    2  A    between atoms: C_12  and  C_13
REMARK    3  A    between atoms: C_19  and  C_20
REMARK    4  A    between atoms: C_20  and  C_21
REMARK    5  A    between atoms: N_27  and  C_28
REMARK    6  A    between atoms: C_28  and  C_29
REMARK                            x       y       z     vdW  Elec       q    Type
REMARK                         _______ _______ _______ _____ _____    ______ ____
ROOT
ATOM      1  S   UNL     1      -3.439  11.631  17.767  0.00  0.00    +0.000 S 
ATOM      2  C   UNL     1      -4.341  11.872  19.133  0.00  0.00    +0.000 A 
ATOM      3  N   UNL     1      -5.699  11.521  19.246  0.00  0.00    +0.000 N 
ATOM      4  C   UNL     1      -6.170  11.968  20.476  0.00  0.00    +0.000 A 
ATOM      5  C   UNL     1      -7.431  11.880  21.016  0.00  0.00    +0.000 A 
ATOM      6  C   UNL     1      -7.626  12.491  22.261  0.00  0.00    +0.000 A 
ATOM      7  C   UNL     1      -6.609  13.263  22.859  0.00  0.00    +0.000 A 
ATOM      8  C   UNL     1      -5.354  13.414  22.242  0.00  0.00    +0.000 A 
ATOM      9  C   UNL     1      -5.139  12.640  21.119  0.00  0.00    +0.000 A 
ATOM     10  N   UNL     1      -3.978  12.480  20.348  0.00  0.00    +0.000 N 
ATOM     11  C   UNL     1      -2.664  12.934  20.814  0.00  0.00    +0.000 C 
ATOM     12  C   UNL     1      -2.659  14.507  20.819  0.00  0.00    +0.000 C 
ATOM     13  N   UNL     1      -3.739  15.249  21.582  0.00  0.00    +0.000 NA
ATOM     14  C   UNL     1      -4.393  14.500  22.673  0.00  0.00    +0.000 C 
ATOM     15  H   UNL     1      -6.243  11.099  18.508  0.00  0.00    +0.000 HD
ENDROOT
BRANCH  11  16
ATOM     16  C   UNL     1      -2.227  12.222  22.131  0.00  0.00    +0.000 C 
BRANCH  16  17
ATOM     17  C   UNL     1      -1.139  11.168  22.027  0.00  0.00    +0.000 A 
ATOM     18  C   UNL     1      -0.713  10.480  23.165  0.00  0.00    +0.000 A 
ATOM     19  C   UNL     1       0.162   9.393  23.049  0.00  0.00    +0.000 A 
ATOM     20  C   UNL     1       0.625   8.994  21.798  0.00  0.00    +0.000 A 
ATOM     21  C   UNL     1       0.239   9.701  20.660  0.00  0.00    +0.000 A 
ATOM     22  C   UNL     1      -0.635  10.782  20.773  0.00  0.00    +0.000 A 
ENDBRANCH  16  17
ENDBRANCH  11  16
BRANCH  12  23
ATOM     23  C   UNL     1      -1.260  15.112  21.142  0.00  0.00    +0.000 C 
BRANCH  23  24
ATOM     24  C   UNL     1      -0.062  14.458  20.463  0.00  0.00    +0.000 A 
ATOM     25  C   UNL     1       1.049  14.020  21.204  0.00  0.00    +0.000 A 
ATOM     26  C   UNL     1       2.076  13.282  20.604  0.00  0.00    +0.000 A 
ATOM     27  C   UNL     1       2.009  12.960  19.254  0.00  0.00    +0.000 A 
ATOM     28  C   UNL     1       0.928  13.400  18.496  0.00  0.00    +0.000 A 
ATOM     29  C   UNL     1      -0.099  14.144  19.094  0.00  0.00    +0.000 A 
ENDBRANCH  23  24
ENDBRANCH  12  23
BRANCH  13  30
ATOM     30  C   UNL     1      -4.698  15.854  20.622  0.00  0.00    +0.000 C 
BRANCH  30  31
ATOM     31  C   UNL     1      -5.739  16.771  21.196  0.00  0.00    +0.000 C 
ATOM     32  C   UNL     1      -6.589  17.684  20.351  0.00  0.00    +0.000 C 
ATOM     33  C   UNL     1      -7.201  16.460  20.974  0.00  0.00    +0.000 C 
ENDBRANCH  30  31
ENDBRANCH  13  30
TORSDOF 6
ENDMDL
MODEL 6
REMARK VINA RESULT:      -6.2      2.511      3.951
REMARK  Name = 
REMARK  6 active torsions:
REMARK  status: ('A' for Active; 'I' for Inactive)
REMARK    1  A    between atoms: C_11  and  C_12
REMARK    2  A    between atoms: C_12  and  C_13
REMARK    3  A    between atoms: C_19  and  C_20
REMARK    4  A    between atoms: C_20  and  C_21
REMARK    5  A    between atoms: N_27  and  C_28
REMARK    6  A    between atoms: C_28  and  C_29
REMARK                            x       y       z     vdW  Elec       q    Type
REMARK                         _______ _______ _______ _____ _____    ______ ____
ROOT
ATOM      1  S   UNL     1      -3.962  11.734  18.137  0.00  0.00    +0.000 S 
ATOM      2  C   UNL     1      -4.668  12.054  19.599  0.00  0.00    +0.000 A 
ATOM      3  N   UNL     1      -6.020  11.795  19.889  0.00  0.00    +0.000 N 
ATOM      4  C   UNL     1      -6.303  12.291  21.158  0.00  0.00    +0.000 A 
ATOM      5  C   UNL     1      -7.489  12.295  21.852  0.00  0.00    +0.000 A 
ATOM      6  C   UNL     1      -7.486  12.936  23.097  0.00  0.00    +0.000 A 
ATOM      7  C   UNL     1      -6.356  13.650  23.545  0.00  0.00    +0.000 A 
ATOM      8  C   UNL     1      -5.182  13.709  22.773  0.00  0.00    +0.000 A 
ATOM      9  C   UNL     1      -5.159  12.904  21.651  0.00  0.00    +0.000 A 
ATOM     10  N   UNL     1      -4.117  12.657  20.745  0.00  0.00    +0.000 N 
ATOM     11  C   UNL     1      -2.728  13.031  21.032  0.00  0.00    +0.000 C 
ATOM     12  C   UNL     1      -2.624  14.600  20.999  0.00  0.00    +0.000 C 
ATOM     13  N   UNL     1      -3.551  15.423  21.872  0.00  0.00    +0.000 NA
ATOM     14  C   UNL     1      -4.108  14.737  23.054  0.00  0.00    +0.000 C 
ATOM     15  H   UNL     1      -6.678  11.398  19.235  0.00  0.00    +0.000 HD
ENDROOT
BRANCH  11  16
ATOM     16  C   UNL     1      -2.175  12.313  22.301  0.00  0.00    +0.000 C 
BRANCH  16  17
ATOM     17  C   UNL     1      -1.262  11.119  22.085  0.00  0.00    +0.000 A 
ATOM     18  C   UNL     1      -0.833  10.783  20.799  0.00  0.00    +0.000 A 
ATOM     19  C   UNL     1       0.140   9.795  20.613  0.00  0.00    +0.000 A 
ATOM     20  C   UNL     1       0.682   9.127  21.708  0.00  0.00    +0.000 A 
ATOM     21  C   UNL     1       0.229   9.425  22.992  0.00  0.00    +0.000 A 
ATOM     22  C   UNL     1      -0.737  10.412  23.180  0.00  0.00    +0.000 A 
ENDBRANCH  16  17
ENDBRANCH  11  16
BRANCH  12  23
ATOM     23  C   UNL     1      -1.160  15.117  21.130  0.00  0.00    +0.000 C 
BRANCH  23  24
ATOM     24  C   UNL     1      -0.079  14.278  20.460  0.00  0.00    +0.000 A 
ATOM     25  C   UNL     1      -0.077  14.064  19.070  0.00  0.00    +0.000 A 
ATOM     26  C   UNL     1       0.997  13.427  18.436  0.00  0.00    +0.000 A 
ATOM     27  C   UNL     1       2.091  12.998  19.177  0.00  0.00    +0.000 A 
ATOM     28  C   UNL     1       2.101  13.180  20.557  0.00  0.00    +0.000 A 
ATOM     29  C   UNL     1       1.024  13.813  21.194  0.00  0.00    +0.000 A 
ENDBRANCH  23  24
ENDBRANCH  12  23
BRANCH  13  30
ATOM     30  C   UNL     1      -4.583  16.074  21.025  0.00  0.00    +0.000 C 
BRANCH  30  31
ATOM     31  C   UNL     1      -4.308  17.486  20.593  0.00  0.00    +0.000 C 
ATOM     32  C   UNL     1      -3.558  17.830  19.333  0.00  0.00    +0.000 C 
ATOM     33  C   UNL     1      -5.044  18.050  19.399  0.00  0.00    +0.000 C 
ENDBRANCH  30  31
ENDBRANCH  13  30
TORSDOF 6
ENDMDL
MODEL 7
REMARK VINA RESULT:      -6.1      1.014      1.242
REMARK  Name = 
REMARK  6 active torsions:
REMARK  status: ('A' for Active; 'I' for Inactive)
REMARK    1  A    between atoms: C_11  and  C_12
REMARK    2  A    between atoms: C_12  and  C_13
REMARK    3  A    between atoms: C_19  and  C_20
REMARK    4  A    between atoms: C_20  and  C_21
REMARK    5  A    between atoms: N_27  and  C_28
REMARK    6  A    between atoms: C_28  and  C_29
REMARK                            x       y       z     vdW  Elec       q    Type
REMARK                         _______ _______ _______ _____ _____    ______ ____
ROOT
ATOM      1  S   UNL     1      -3.696  11.592  18.025  0.00  0.00    +0.000 S 
ATOM      2  C   UNL     1      -3.309  12.069  19.562  0.00  0.00    +0.000 A 
ATOM      3  N   UNL     1      -4.262  12.360  20.555  0.00  0.00    +0.000 N 
ATOM      4  C   UNL     1      -3.598  12.840  21.679  0.00  0.00    +0.000 A 
ATOM      5  C   UNL     1      -4.107  13.275  22.878  0.00  0.00    +0.000 A 
ATOM      6  C   UNL     1      -3.186  13.773  23.809  0.00  0.00    +0.000 A 
ATOM      7  C   UNL     1      -1.828  13.936  23.471  0.00  0.00    +0.000 A 
ATOM      8  C   UNL     1      -1.346  13.568  22.202  0.00  0.00    +0.000 A 
ATOM      9  C   UNL     1      -2.242  12.902  21.389  0.00  0.00    +0.000 A 
ATOM     10  N   UNL     1      -2.046  12.317  20.129  0.00  0.00    +0.000 N 
ATOM     11  C   UNL     1      -0.708  12.076  19.580  0.00  0.00    +0.000 C 
ATOM     12  C   UNL     1      -0.061  13.468  19.233  0.00  0.00    +0.000 C 
ATOM     13  N   UNL     1       0.028  14.533  20.308  0.00  0.00    +0.000 NA
ATOM     14  C   UNL     1      -0.002  14.051  21.702  0.00  0.00    +0.000 C 
ATOM     15  H   UNL     1      -5.261  12.309  20.420  0.00  0.00    +0.000 HD
ENDROOT
BRANCH  11  16
ATOM     16  C   UNL     1       0.131  11.111  20.472  0.00  0.00    +0.000 C 
BRANCH  16  17
ATOM     17  C   UNL     1       0.759   9.905  19.795  0.00  0.00    +0.000 A 
ATOM     18  C   UNL     1       1.020   9.923  18.424  0.00  0.00    +0.000 A 
ATOM     19  C   UNL     1       1.752   8.889  17.829  0.00  0.00    +0.000 A 
ATOM     20  C   UNL     1       2.217   7.825  18.597  0.00  0.00    +0.000 A 
ATOM     21  C   UNL     1       1.925   7.776  19.959  0.00  0.00    +0.000 A 
ATOM     22  C   UNL     1       1.200   8.807  20.554  0.00  0.00    +0.000 A 
ENDBRANCH  16  17
ENDBRANCH  11  16
BRANCH  12  23
ATOM     23  C   UNL     1       1.303  13.338  18.489  0.00  0.00    +0.000 C 
BRANCH  23  24
ATOM     24  C   UNL     1       2.395  14.320  18.894  0.00  0.00    +0.000 A 
ATOM     25  C   UNL     1       3.238  14.064  19.990  0.00  0.00    +0.000 A 
ATOM     26  C   UNL     1       4.338  14.885  20.267  0.00  0.00    +0.000 A 
ATOM     27  C   UNL     1       4.621  15.973  19.451  0.00  0.00    +0.000 A 
ATOM     28  C   UNL     1       3.788  16.258  18.373  0.00  0.00    +0.000 A 
ATOM     29  C   UNL     1       2.683  15.440  18.097  0.00  0.00    +0.000 A 
ENDBRANCH  23  24
ENDBRANCH  12  23
BRANCH  13  30
ATOM     30  C   UNL     1      -0.965  15.603  20.030  0.00  0.00    +0.000 C 
BRANCH  30  31
ATOM     31  C   UNL     1      -0.443  16.857  19.390  0.00  0.00    +0.000 C 
ATOM     32  C   UNL     1      -0.596  17.158  17.922  0.00  0.00    +0.000 C 
ATOM     33  C   UNL     1      -1.421  17.912  18.928  0.00  0.00    +0.000 C 
ENDBRANCH  30  31
ENDBRANCH  13  30
TORSDOF 6
ENDMDL
MODEL 8
REMARK VINA RESULT:      -6.0      2.182      5.220
REMARK  Name = 
REMARK  6 active torsions:
REMARK  status: ('A' for Active; 'I' for Inactive)
REMARK    1  A    between atoms: C_11  and  C_12
REMARK    2  A    between atoms: C_12  and  C_13
REMARK    3  A    between atoms: C_19  and  C_20
REMARK    4  A    between atoms: C_20  and  C_21
REMARK    5  A    between atoms: N_27  and  C_28
REMARK    6  A    between atoms: C_28  and  C_29
REMARK                            x       y       z     vdW  Elec       q    Type
REMARK                         _______ _______ _______ _____ _____    ______ ____
ROOT
ATOM      1  S   UNL     1      -2.468  13.013  23.410  0.00  0.00    +0.000 S 
ATOM      2  C   UNL     1      -1.629  11.844  22.593  0.00  0.00    +0.000 A 
ATOM      3  N   UNL     1      -1.130  10.673  23.194  0.00  0.00    +0.000 N 
ATOM      4  C   UNL     1      -0.382   9.976  22.250  0.00  0.00    +0.000 A 
ATOM      5  C   UNL     1       0.317   8.801  22.381  0.00  0.00    +0.000 A 
ATOM      6  C   UNL     1       1.042   8.371  21.262  0.00  0.00    +0.000 A 
ATOM      7  C   UNL     1       1.146   9.179  20.111  0.00  0.00    +0.000 A 
ATOM      8  C   UNL     1       0.495  10.423  20.035  0.00  0.00    +0.000 A 
ATOM      9  C   UNL     1      -0.363  10.717  21.076  0.00  0.00    +0.000 A 
ATOM     10  N   UNL     1      -1.228  11.809  21.245  0.00  0.00    +0.000 N 
ATOM     11  C   UNL     1      -1.566  12.714  20.142  0.00  0.00    +0.000 C 
ATOM     12  C   UNL     1      -0.285  13.555  19.786  0.00  0.00    +0.000 C 
ATOM     13  N   UNL     1       1.007  12.834  19.458  0.00  0.00    +0.000 NA
ATOM     14  C   UNL     1       0.872  11.443  18.983  0.00  0.00    +0.000 C 
ATOM     15  H   UNL     1      -1.231  10.446  24.172  0.00  0.00    +0.000 HD
ENDROOT
BRANCH  11  16
ATOM     16  C   UNL     1      -2.273  11.973  18.966  0.00  0.00    +0.000 C 
BRANCH  16  17
ATOM     17  C   UNL     1      -3.792  11.975  18.954  0.00  0.00    +0.000 A 
ATOM     18  C   UNL     1      -4.490  11.256  17.982  0.00  0.00    +0.000 A 
ATOM     19  C   UNL     1      -5.880  11.114  18.068  0.00  0.00    +0.000 A 
ATOM     20  C   UNL     1      -6.583  11.699  19.118  0.00  0.00    +0.000 A 
ATOM     21  C   UNL     1      -5.900  12.454  20.070  0.00  0.00    +0.000 A 
ATOM     22  C   UNL     1      -4.515  12.593  19.988  0.00  0.00    +0.000 A 
ENDBRANCH  16  17
ENDBRANCH  11  16
BRANCH  12  23
ATOM     23  C   UNL     1      -0.561  14.671  18.734  0.00  0.00    +0.000 C 
BRANCH  23  24
ATOM     24  C   UNL     1      -0.144  16.086  19.117  0.00  0.00    +0.000 A 
ATOM     25  C   UNL     1      -0.607  16.689  20.299  0.00  0.00    +0.000 A 
ATOM     26  C   UNL     1      -0.104  17.924  20.729  0.00  0.00    +0.000 A 
ATOM     27  C   UNL     1       0.877  18.574  19.991  0.00  0.00    +0.000 A 
ATOM     28  C   UNL     1       1.336  18.005  18.807  0.00  0.00    +0.000 A 
ATOM     29  C   UNL     1       0.829  16.772  18.372  0.00  0.00    +0.000 A 
ENDBRANCH  23  24
ENDBRANCH  12  23
BRANCH  13  30
ATOM     30  C   UNL     1       1.960  12.984  20.589  0.00  0.00    +0.000 C 
BRANCH  30  31
ATOM     31  C   UNL     1       2.212  14.381  21.078  0.00  0.00    +0.000 C 
ATOM     32  C   UNL     1       3.414  14.761  21.901  0.00  0.00    +0.000 C 
ATOM     33  C   UNL     1       3.330  15.189  20.462  0.00  0.00    +0.000 C 
ENDBRANCH  30  31
ENDBRANCH  13  30
TORSDOF 6
ENDMDL
MODEL 9
REMARK VINA RESULT:      -6.0      3.832      6.625
REMARK  Name = 
REMARK  6 active torsions:
REMARK  status: ('A' for Active; 'I' for Inactive)
REMARK    1  A    between atoms: C_11  and  C_12
REMARK    2  A    between atoms: C_12  and  C_13
REMARK    3  A    between atoms: C_19  and  C_20
REMARK    4  A    between atoms: C_20  and  C_21
REMARK    5  A    between atoms: N_27  and  C_28
REMARK    6  A    between atoms: C_28  and  C_29
REMARK                            x       y       z     vdW  Elec       q    Type
REMARK                         _______ _______ _______ _____ _____    ______ ____
ROOT
ATOM      1  S   UNL     1      -4.617  12.425  24.900  0.00  0.00    +0.000 S 
ATOM      2  C   UNL     1      -3.571  13.685  24.659  0.00  0.00    +0.000 A 
ATOM      3  N   UNL     1      -3.385  14.734  25.578  0.00  0.00    +0.000 N 
ATOM      4  C   UNL     1      -2.531  15.674  25.009  0.00  0.00    +0.000 A 
ATOM      5  C   UNL     1      -2.085  16.871  25.515  0.00  0.00    +0.000 A 
ATOM      6  C   UNL     1      -1.277  17.647  24.673  0.00  0.00    +0.000 A 
ATOM      7  C   UNL     1      -1.049  17.269  23.334  0.00  0.00    +0.000 A 
ATOM      8  C   UNL     1      -1.594  16.083  22.812  0.00  0.00    +0.000 A 
ATOM      9  C   UNL     1      -2.216  15.254  23.724  0.00  0.00    +0.000 A 
ATOM     10  N   UNL     1      -2.758  13.972  23.548  0.00  0.00    +0.000 N 
ATOM     11  C   UNL     1      -2.482  13.165  22.355  0.00  0.00    +0.000 C 
ATOM     12  C   UNL     1      -3.206  13.835  21.129  0.00  0.00    +0.000 C 
ATOM     13  N   UNL     1      -2.937  15.294  20.816  0.00  0.00    +0.000 NA
ATOM     14  C   UNL     1      -1.662  15.841  21.320  0.00  0.00    +0.000 C 
ATOM     15  H   UNL     1      -3.873  14.816  26.458  0.00  0.00    +0.000 HD
ENDROOT
BRANCH  11  16
ATOM     16  C   UNL     1      -0.962  12.854  22.192  0.00  0.00    +0.000 C 
BRANCH  16  17
ATOM     17  C   UNL     1      -0.564  11.399  22.012  0.00  0.00    +0.000 A 
ATOM     18  C   UNL     1      -0.734  10.488  23.056  0.00  0.00    +0.000 A 
ATOM     19  C   UNL     1      -0.531   9.119  22.841  0.00  0.00    +0.000 A 
ATOM     20  C   UNL     1      -0.148   8.654  21.586  0.00  0.00    +0.000 A 
ATOM     21  C   UNL     1       0.065   9.560  20.549  0.00  0.00    +0.000 A 
ATOM     22  C   UNL     1      -0.140  10.923  20.760  0.00  0.00    +0.000 A 
ENDBRANCH  16  17
ENDBRANCH  11  16
BRANCH  12  23
ATOM     23  C   UNL     1      -3.122  12.980  19.829  0.00  0.00    +0.000 C 
BRANCH  23  24
ATOM     24  C   UNL     1      -4.415  12.320  19.364  0.00  0.00    +0.000 A 
ATOM     25  C   UNL     1      -4.500  11.683  18.114  0.00  0.00    +0.000 A 
ATOM     26  C   UNL     1      -5.634  10.943  17.753  0.00  0.00    +0.000 A 
ATOM     27  C   UNL     1      -6.699  10.820  18.637  0.00  0.00    +0.000 A 
ATOM     28  C   UNL     1      -6.644  11.460  19.872  0.00  0.00    +0.000 A 
ATOM     29  C   UNL     1      -5.512  12.205  20.232  0.00  0.00    +0.000 A 
ENDBRANCH  23  24
ENDBRANCH  12  23
BRANCH  13  30
ATOM     30  C   UNL     1      -4.120  16.109  21.192  0.00  0.00    +0.000 C 
BRANCH  30  31
ATOM     31  C   UNL     1      -5.322  15.361  21.695  0.00  0.00    +0.000 C 
ATOM     32  C   UNL     1      -6.082  15.761  22.932  0.00  0.00    +0.000 C 
ATOM     33  C   UNL     1      -6.689  15.994  21.576  0.00  0.00    +0.000 C 
ENDBRANCH  30  31
ENDBRANCH  13  30
TORSDOF 6
ENDMDL
