MODEL 1
REMARK VINA RESULT:      -5.6      0.000      0.000
REMARK  Name = 
REMARK  8 active torsions:
REMARK  status: ('A' for Active; 'I' for Inactive)
REMARK    1  A    between atoms: C_1  and  C_2
REMARK    2  A    between atoms: C_2  and  N_3
REMARK    3  A    between atoms: N_3  and  C_4
REMARK    4  A    between atoms: C_4  and  C_5
REMARK    5  A    between atoms: N_8  and  C_9
REMARK    6  A    between atoms: C_12  and  N_13
REMARK    7  A    between atoms: N_13  and  C_14
REMARK    8  A    between atoms: N_13  and  C_15
REMARK                            x       y       z     vdW  Elec       q    Type
REMARK                         _______ _______ _______ _____ _____    ______ ____
ROOT
ATOM      1  N   UNL     1       6.088   5.633  17.237  0.00  0.00    +0.000 N 
ATOM      2  C   UNL     1       4.804   5.349  17.692  0.00  0.00    +0.000 C 
ATOM      3  O   UNL     1       4.138   6.194  18.289  0.00  0.00    +0.000 OA
ATOM      4  N   UNL     1       4.293   4.097  17.427  0.00  0.00    +0.000 N 
ATOM      5  H   UNL     1       4.924   3.373  17.128  0.00  0.00    +0.000 HD
ENDROOT
BRANCH   4   6
ATOM      6  C   UNL     1       3.003   3.682  18.056  0.00  0.00    +0.000 C 
ATOM      7  C   UNL     1       2.424   2.328  17.595  0.00  0.00    +0.000 C 
ATOM      8  C   UNL     1       2.785   1.712  18.946  0.00  0.00    +0.000 C 
ATOM      9  C   UNL     1       3.066   3.118  19.523  0.00  0.00    +0.000 C 
BRANCH   9  10
ATOM     10  N   UNL     1       1.899   3.703  20.230  0.00  0.00    +0.000 NA
ATOM     11  C   UNL     1       1.318   2.822  21.243  0.00  0.00    +0.000 C 
ATOM     12  C   UNL     1       2.334   4.950  20.876  0.00  0.00    +0.000 C 
ENDBRANCH   9  10
ENDBRANCH   4   6
BRANCH   1  14
ATOM     13  C   UNL     1       7.703   7.480  17.785  0.00  0.00    +0.000 C 
ATOM     14  C   UNL     1       6.403   7.065  17.108  0.00  0.00    +0.000 C 
ENDBRANCH   1  14
BRANCH   1  15
ATOM     15  C   UNL     1       7.000   4.674  16.599  0.00  0.00    +0.000 C 
ATOM     16  C   UNL     1       7.023   4.720  15.074  0.00  0.00    +0.000 C 
ENDBRANCH   1  15
TORSDOF 4
ENDMDL
MODEL 2
REMARK VINA RESULT:      -5.4      1.517      5.522
REMARK  Name = 
REMARK  8 active torsions:
REMARK  status: ('A' for Active; 'I' for Inactive)
REMARK    1  A    between atoms: C_1  and  C_2
REMARK    2  A    between atoms: C_2  and  N_3
REMARK    3  A    between atoms: N_3  and  C_4
REMARK    4  A    between atoms: C_4  and  C_5
REMARK    5  A    between atoms: N_8  and  C_9
REMARK    6  A    between atoms: C_12  and  N_13
REMARK    7  A    between atoms: N_13  and  C_14
REMARK    8  A    between atoms: N_13  and  C_15
REMARK                            x       y       z     vdW  Elec       q    Type
REMARK                         _______ _______ _______ _____ _____    ______ ____
ROOT
ATOM      1  N   UNL     1       3.027   3.096  19.161  0.00  0.00    +0.000 N 
ATOM      2  C   UNL     1       4.316   3.470  18.795  0.00  0.00    +0.000 C 
ATOM      3  O   UNL     1       5.207   3.591  19.635  0.00  0.00    +0.000 OA
ATOM      4  N   UNL     1       4.568   3.673  17.456  0.00  0.00    +0.000 N 
ATOM      5  H   UNL     1       3.788   3.769  16.828  0.00  0.00    +0.000 HD
ENDROOT
BRANCH   4   6
ATOM      6  C   UNL     1       5.878   4.256  17.035  0.00  0.00    +0.000 C 
ATOM      7  C   UNL     1       6.205   4.181  15.529  0.00  0.00    +0.000 C 
ATOM      8  C   UNL     1       5.983   5.688  15.404  0.00  0.00    +0.000 C 
ATOM      9  C   UNL     1       5.972   5.824  16.943  0.00  0.00    +0.000 C 
BRANCH   9  10
ATOM     10  N   UNL     1       7.298   6.181  17.508  0.00  0.00    +0.000 NA
ATOM     11  C   UNL     1       7.640   7.596  17.364  0.00  0.00    +0.000 C 
ATOM     12  C   UNL     1       7.295   5.834  18.937  0.00  0.00    +0.000 C 
ENDBRANCH   9  10
ENDBRANCH   4   6
BRANCH   1  14
ATOM     13  C   UNL     1       2.031   3.182  21.468  0.00  0.00    +0.000 C 
ATOM     14  C   UNL     1       2.914   2.439  20.474  0.00  0.00    +0.000 C 
ENDBRANCH   1  14
BRANCH   1  15
ATOM     15  C   UNL     1       1.872   3.013  18.256  0.00  0.00    +0.000 C 
ATOM     16  C   UNL     1       1.335   4.355  17.769  0.00  0.00    +0.000 C 
ENDBRANCH   1  15
TORSDOF 4
ENDMDL
MODEL 3
REMARK VINA RESULT:      -5.3      1.690      5.826
REMARK  Name = 
REMARK  8 active torsions:
REMARK  status: ('A' for Active; 'I' for Inactive)
REMARK    1  A    between atoms: C_1  and  C_2
REMARK    2  A    between atoms: C_2  and  N_3
REMARK    3  A    between atoms: N_3  and  C_4
REMARK    4  A    between atoms: C_4  and  C_5
REMARK    5  A    between atoms: N_8  and  C_9
REMARK    6  A    between atoms: C_12  and  N_13
REMARK    7  A    between atoms: N_13  and  C_14
REMARK    8  A    between atoms: N_13  and  C_15
REMARK                            x       y       z     vdW  Elec       q    Type
REMARK                         _______ _______ _______ _____ _____    ______ ____
ROOT
ATOM      1  N   UNL     1       2.914   3.706  20.048  0.00  0.00    +0.000 N 
ATOM      2  C   UNL     1       4.049   3.824  19.251  0.00  0.00    +0.000 C 
ATOM      3  O   UNL     1       5.018   3.084  19.409  0.00  0.00    +0.000 OA
ATOM      4  N   UNL     1       4.038   4.782  18.261  0.00  0.00    +0.000 N 
ATOM      5  H   UNL     1       3.331   5.497  18.290  0.00  0.00    +0.000 HD
ENDROOT
BRANCH   4   6
ATOM      6  C   UNL     1       5.296   5.075  17.509  0.00  0.00    +0.000 C 
ATOM      7  C   UNL     1       5.204   4.997  15.971  0.00  0.00    +0.000 C 
ATOM      8  C   UNL     1       5.308   6.519  15.886  0.00  0.00    +0.000 C 
ATOM      9  C   UNL     1       5.720   6.584  17.374  0.00  0.00    +0.000 C 
BRANCH   9  10
ATOM     10  N   UNL     1       7.191   6.608  17.573  0.00  0.00    +0.000 NA
ATOM     11  C   UNL     1       7.773   7.948  17.514  0.00  0.00    +0.000 C 
ATOM     12  C   UNL     1       7.484   6.017  18.887  0.00  0.00    +0.000 C 
ENDBRANCH   9  10
ENDBRANCH   4   6
BRANCH   1  14
ATOM     13  C   UNL     1       1.714   2.413  21.839  0.00  0.00    +0.000 C 
ATOM     14  C   UNL     1       2.766   2.414  20.738  0.00  0.00    +0.000 C 
ENDBRANCH   1  14
BRANCH   1  15
ATOM     15  C   UNL     1       1.744   4.594  20.006  0.00  0.00    +0.000 C 
ATOM     16  C   UNL     1       1.917   5.925  20.730  0.00  0.00    +0.000 C 
ENDBRANCH   1  15
TORSDOF 4
ENDMDL
MODEL 4
REMARK VINA RESULT:      -5.2      1.159      1.862
REMARK  Name = 
REMARK  8 active torsions:
REMARK  status: ('A' for Active; 'I' for Inactive)
REMARK    1  A    between atoms: C_1  and  C_2
REMARK    2  A    between atoms: C_2  and  N_3
REMARK    3  A    between atoms: N_3  and  C_4
REMARK    4  A    between atoms: C_4  and  C_5
REMARK    5  A    between atoms: N_8  and  C_9
REMARK    6  A    between atoms: C_12  and  N_13
REMARK    7  A    between atoms: N_13  and  C_14
REMARK    8  A    between atoms: N_13  and  C_15
REMARK                            x       y       z     vdW  Elec       q    Type
REMARK                         _______ _______ _______ _____ _____    ______ ____
ROOT
ATOM      1  N   UNL     1       6.525   5.039  17.000  0.00  0.00    +0.000 N 
ATOM      2  C   UNL     1       5.198   4.653  17.162  0.00  0.00    +0.000 C 
ATOM      3  O   UNL     1       4.315   5.077  16.418  0.00  0.00    +0.000 OA
ATOM      4  N   UNL     1       4.911   3.755  18.168  0.00  0.00    +0.000 N 
ATOM      5  H   UNL     1       5.605   3.590  18.878  0.00  0.00    +0.000 HD
ENDROOT
BRANCH   4   6
ATOM      6  C   UNL     1       3.485   3.457  18.502  0.00  0.00    +0.000 C 
ATOM      7  C   UNL     1       2.855   2.248  17.782  0.00  0.00    +0.000 C 
ATOM      8  C   UNL     1       2.878   1.456  19.089  0.00  0.00    +0.000 C 
ATOM      9  C   UNL     1       3.202   2.746  19.876  0.00  0.00    +0.000 C 
BRANCH   9  10
ATOM     10  N   UNL     1       1.996   3.409  20.431  0.00  0.00    +0.000 NA
ATOM     11  C   UNL     1       1.411   2.711  21.576  0.00  0.00    +0.000 C 
ATOM     12  C   UNL     1       2.372   4.770  20.844  0.00  0.00    +0.000 C 
ENDBRANCH   9  10
ENDBRANCH   4   6
BRANCH   1  14
ATOM     13  C   UNL     1       6.975   4.537  14.578  0.00  0.00    +0.000 C 
ATOM     14  C   UNL     1       6.859   5.587  15.676  0.00  0.00    +0.000 C 
ENDBRANCH   1  14
BRANCH   1  15
ATOM     15  C   UNL     1       7.638   4.667  17.885  0.00  0.00    +0.000 C 
ATOM     16  C   UNL     1       7.904   5.637  19.032  0.00  0.00    +0.000 C 
ENDBRANCH   1  15
TORSDOF 4
ENDMDL
MODEL 5
REMARK VINA RESULT:      -5.2      1.656      2.506
REMARK  Name = 
REMARK  8 active torsions:
REMARK  status: ('A' for Active; 'I' for Inactive)
REMARK    1  A    between atoms: C_1  and  C_2
REMARK    2  A    between atoms: C_2  and  N_3
REMARK    3  A    between atoms: N_3  and  C_4
REMARK    4  A    between atoms: C_4  and  C_5
REMARK    5  A    between atoms: N_8  and  C_9
REMARK    6  A    between atoms: C_12  and  N_13
REMARK    7  A    between atoms: N_13  and  C_14
REMARK    8  A    between atoms: N_13  and  C_15
REMARK                            x       y       z     vdW  Elec       q    Type
REMARK                         _______ _______ _______ _____ _____    ______ ____
ROOT
ATOM      1  N   UNL     1       6.188   6.173  17.961  0.00  0.00    +0.000 N 
ATOM      2  C   UNL     1       5.514   5.308  18.817  0.00  0.00    +0.000 C 
ATOM      3  O   UNL     1       6.123   4.513  19.531  0.00  0.00    +0.000 OA
ATOM      4  N   UNL     1       4.139   5.393  18.860  0.00  0.00    +0.000 N 
ATOM      5  H   UNL     1       3.665   5.897  18.129  0.00  0.00    +0.000 HD
ENDROOT
BRANCH   4   6
ATOM      6  C   UNL     1       3.362   4.365  19.616  0.00  0.00    +0.000 C 
ATOM      7  C   UNL     1       2.624   4.859  20.877  0.00  0.00    +0.000 C 
ATOM      8  C   UNL     1       1.287   4.715  20.153  0.00  0.00    +0.000 C 
ATOM      9  C   UNL     1       1.976   3.925  19.017  0.00  0.00    +0.000 C 
BRANCH   9  10
ATOM     10  N   UNL     1       1.905   2.454  19.201  0.00  0.00    +0.000 NA
ATOM     11  C   UNL     1       0.597   1.881  18.887  0.00  0.00    +0.000 C 
ATOM     12  C   UNL     1       2.918   1.836  18.333  0.00  0.00    +0.000 C 
ENDBRANCH   9  10
ENDBRANCH   4   6
BRANCH   1  14
ATOM     13  C   UNL     1       8.089   7.817  18.051  0.00  0.00    +0.000 C 
ATOM     14  C   UNL     1       7.609   6.390  18.283  0.00  0.00    +0.000 C 
ENDBRANCH   1  14
BRANCH   1  15
ATOM     15  C   UNL     1       5.558   7.092  17.004  0.00  0.00    +0.000 C 
ATOM     16  C   UNL     1       5.223   6.482  15.647  0.00  0.00    +0.000 C 
ENDBRANCH   1  15
TORSDOF 4
ENDMDL
MODEL 6
REMARK VINA RESULT:      -5.1      1.391      5.766
REMARK  Name = 
REMARK  8 active torsions:
REMARK  status: ('A' for Active; 'I' for Inactive)
REMARK    1  A    between atoms: C_1  and  C_2
REMARK    2  A    between atoms: C_2  and  N_3
REMARK    3  A    between atoms: N_3  and  C_4
REMARK    4  A    between atoms: C_4  and  C_5
REMARK    5  A    between atoms: N_8  and  C_9
REMARK    6  A    between atoms: C_12  and  N_13
REMARK    7  A    between atoms: N_13  and  C_14
REMARK    8  A    between atoms: N_13  and  C_15
REMARK                            x       y       z     vdW  Elec       q    Type
REMARK                         _______ _______ _______ _____ _____    ______ ____
ROOT
ATOM      1  N   UNL     1       2.619   3.832  19.621  0.00  0.00    +0.000 N 
ATOM      2  C   UNL     1       3.665   4.661  19.229  0.00  0.00    +0.000 C 
ATOM      3  O   UNL     1       3.796   5.789  19.702  0.00  0.00    +0.000 OA
ATOM      4  N   UNL     1       4.567   4.164  18.313  0.00  0.00    +0.000 N 
ATOM      5  H   UNL     1       4.323   3.335  17.798  0.00  0.00    +0.000 HD
ENDROOT
BRANCH   4   6
ATOM      6  C   UNL     1       5.592   5.077  17.721  0.00  0.00    +0.000 C 
ATOM      7  C   UNL     1       6.837   5.356  18.587  0.00  0.00    +0.000 C 
ATOM      8  C   UNL     1       7.684   4.498  17.649  0.00  0.00    +0.000 C 
ATOM      9  C   UNL     1       6.536   4.478  16.615  0.00  0.00    +0.000 C 
BRANCH   9  10
ATOM     10  N   UNL     1       6.664   5.534  15.580  0.00  0.00    +0.000 NA
ATOM     11  C   UNL     1       7.212   5.055  14.311  0.00  0.00    +0.000 C 
ATOM     12  C   UNL     1       5.329   6.101  15.338  0.00  0.00    +0.000 C 
ENDBRANCH   9  10
ENDBRANCH   4   6
BRANCH   1  14
ATOM     13  C   UNL     1       2.118   3.118  21.979  0.00  0.00    +0.000 C 
ATOM     14  C   UNL     1       1.987   4.187  20.902  0.00  0.00    +0.000 C 
ENDBRANCH   1  14
BRANCH   1  15
ATOM     15  C   UNL     1       2.318   2.510  19.056  0.00  0.00    +0.000 C 
ATOM     16  C   UNL     1       0.853   2.277  18.700  0.00  0.00    +0.000 C 
ENDBRANCH   1  15
TORSDOF 4
ENDMDL
MODEL 7
REMARK VINA RESULT:      -5.0      1.360      5.516
REMARK  Name = 
REMARK  8 active torsions:
REMARK  status: ('A' for Active; 'I' for Inactive)
REMARK    1  A    between atoms: C_1  and  C_2
REMARK    2  A    between atoms: C_2  and  N_3
REMARK    3  A    between atoms: N_3  and  C_4
REMARK    4  A    between atoms: C_4  and  C_5
REMARK    5  A    between atoms: N_8  and  C_9
REMARK    6  A    between atoms: C_12  and  N_13
REMARK    7  A    between atoms: N_13  and  C_14
REMARK    8  A    between atoms: N_13  and  C_15
REMARK                            x       y       z     vdW  Elec       q    Type
REMARK                         _______ _______ _______ _____ _____    ______ ____
ROOT
ATOM      1  N   UNL     1       3.024   3.581  19.674  0.00  0.00    +0.000 N 
ATOM      2  C   UNL     1       4.117   4.250  19.131  0.00  0.00    +0.000 C 
ATOM      3  O   UNL     1       4.471   5.347  19.560  0.00  0.00    +0.000 OA
ATOM      4  N   UNL     1       4.807   3.627  18.114  0.00  0.00    +0.000 N 
ATOM      5  H   UNL     1       4.379   2.842  17.651  0.00  0.00    +0.000 HD
ENDROOT
BRANCH   4   6
ATOM      6  C   UNL     1       5.864   4.382  17.374  0.00  0.00    +0.000 C 
ATOM      7  C   UNL     1       5.628   4.580  15.862  0.00  0.00    +0.000 C 
ATOM      8  C   UNL     1       5.342   6.062  16.100  0.00  0.00    +0.000 C 
ATOM      9  C   UNL     1       5.884   5.946  17.542  0.00  0.00    +0.000 C 
BRANCH   9  10
ATOM     10  N   UNL     1       7.315   6.319  17.661  0.00  0.00    +0.000 NA
ATOM     11  C   UNL     1       7.572   7.745  17.462  0.00  0.00    +0.000 C 
ATOM     12  C   UNL     1       7.779   5.934  19.002  0.00  0.00    +0.000 C 
ENDBRANCH   9  10
ENDBRANCH   4   6
BRANCH   1  14
ATOM     13  C   UNL     1       1.931   2.951  21.848  0.00  0.00    +0.000 C 
ATOM     14  C   UNL     1       2.626   4.024  21.020  0.00  0.00    +0.000 C 
ENDBRANCH   1  14
BRANCH   1  15
ATOM     15  C   UNL     1       2.463   2.317  19.178  0.00  0.00    +0.000 C 
ATOM     16  C   UNL     1       1.093   2.433  18.517  0.00  0.00    +0.000 C 
ENDBRANCH   1  15
TORSDOF 4
ENDMDL
MODEL 8
REMARK VINA RESULT:      -5.0      1.106      1.179
REMARK  Name = 
REMARK  8 active torsions:
REMARK  status: ('A' for Active; 'I' for Inactive)
REMARK    1  A    between atoms: C_1  and  C_2
REMARK    2  A    between atoms: C_2  and  N_3
REMARK    3  A    between atoms: N_3  and  C_4
REMARK    4  A    between atoms: C_4  and  C_5
REMARK    5  A    between atoms: N_8  and  C_9
REMARK    6  A    between atoms: C_12  and  N_13
REMARK    7  A    between atoms: N_13  and  C_14
REMARK    8  A    between atoms: N_13  and  C_15
REMARK                            x       y       z     vdW  Elec       q    Type
REMARK                         _______ _______ _______ _____ _____    ______ ____
ROOT
ATOM      1  N   UNL     1       6.373   4.728  17.231  0.00  0.00    +0.000 N 
ATOM      2  C   UNL     1       5.283   4.318  17.992  0.00  0.00    +0.000 C 
ATOM      3  O   UNL     1       5.431   3.866  19.126  0.00  0.00    +0.000 OA
ATOM      4  N   UNL     1       4.028   4.461  17.441  0.00  0.00    +0.000 N 
ATOM      5  H   UNL     1       3.953   4.635  16.453  0.00  0.00    +0.000 HD
ENDROOT
BRANCH   4   6
ATOM      6  C   UNL     1       2.848   3.863  18.137  0.00  0.00    +0.000 C 
ATOM      7  C   UNL     1       2.330   2.525  17.571  0.00  0.00    +0.000 C 
ATOM      8  C   UNL     1       2.879   1.793  18.795  0.00  0.00    +0.000 C 
ATOM      9  C   UNL     1       3.110   3.143  19.510  0.00  0.00    +0.000 C 
BRANCH   9  10
ATOM     10  N   UNL     1       1.984   3.538  20.393  0.00  0.00    +0.000 NA
ATOM     11  C   UNL     1       1.779   2.638  21.527  0.00  0.00    +0.000 C 
ATOM     12  C   UNL     1       2.253   4.891  20.900  0.00  0.00    +0.000 C 
ENDBRANCH   9  10
ENDBRANCH   4   6
BRANCH   1  14
ATOM     13  C   UNL     1       7.736   6.457  18.446  0.00  0.00    +0.000 C 
ATOM     14  C   UNL     1       7.600   5.008  17.995  0.00  0.00    +0.000 C 
ENDBRANCH   1  14
BRANCH   1  15
ATOM     15  C   UNL     1       6.317   5.193  15.838  0.00  0.00    +0.000 C 
ATOM     16  C   UNL     1       6.461   4.099  14.785  0.00  0.00    +0.000 C 
ENDBRANCH   1  15
TORSDOF 4
ENDMDL
MODEL 9
REMARK VINA RESULT:      -5.0      1.339      5.861
REMARK  Name = 
REMARK  8 active torsions:
REMARK  status: ('A' for Active; 'I' for Inactive)
REMARK    1  A    between atoms: C_1  and  C_2
REMARK    2  A    between atoms: C_2  and  N_3
REMARK    3  A    between atoms: N_3  and  C_4
REMARK    4  A    between atoms: C_4  and  C_5
REMARK    5  A    between atoms: N_8  and  C_9
REMARK    6  A    between atoms: C_12  and  N_13
REMARK    7  A    between atoms: N_13  and  C_14
REMARK    8  A    between atoms: N_13  and  C_15
REMARK                            x       y       z     vdW  Elec       q    Type
REMARK                         _______ _______ _______ _____ _____    ______ ____
ROOT
ATOM      1  N   UNL     1       2.756   3.667  19.075  0.00  0.00    +0.000 N 
ATOM      2  C   UNL     1       3.272   4.620  18.203  0.00  0.00    +0.000 C 
ATOM      3  O   UNL     1       2.578   5.548  17.789  0.00  0.00    +0.000 OA
ATOM      4  N   UNL     1       4.596   4.504  17.839  0.00  0.00    +0.000 N 
ATOM      5  H   UNL     1       5.072   3.637  18.022  0.00  0.00    +0.000 HD
ENDROOT
BRANCH   4   6
ATOM      6  C   UNL     1       5.142   5.386  16.763  0.00  0.00    +0.000 C 
ATOM      7  C   UNL     1       5.810   6.696  17.229  0.00  0.00    +0.000 C 
ATOM      8  C   UNL     1       7.181   6.128  16.865  0.00  0.00    +0.000 C 
ATOM      9  C   UNL     1       6.508   4.961  16.108  0.00  0.00    +0.000 C 
BRANCH   9  10
ATOM     10  N   UNL     1       6.354   5.219  14.654  0.00  0.00    +0.000 NA
ATOM     11  C   UNL     1       7.617   5.221  13.917  0.00  0.00    +0.000 C 
ATOM     12  C   UNL     1       5.478   4.178  14.096  0.00  0.00    +0.000 C 
ENDBRANCH   9  10
ENDBRANCH   4   6
BRANCH   1  14
ATOM     13  C   UNL     1       1.262   3.261  21.056  0.00  0.00    +0.000 C 
ATOM     14  C   UNL     1       1.540   4.074  19.798  0.00  0.00    +0.000 C 
ENDBRANCH   1  14
BRANCH   1  15
ATOM     15  C   UNL     1       3.466   2.473  19.554  0.00  0.00    +0.000 C 
ATOM     16  C   UNL     1       3.552   1.327  18.551  0.00  0.00    +0.000 C 
ENDBRANCH   1  15
TORSDOF 4
ENDMDL
