MODEL 1
REMARK VINA RESULT:      -6.3      0.000      0.000
REMARK  Name = 
REMARK  10 active torsions:
REMARK  status: ('A' for Active; 'I' for Inactive)
REMARK    1  A    between atoms: C_1  and  C_2
REMARK    2  A    between atoms: C_2  and  C_3
REMARK    3  A    between atoms: C_2  and  N_9
REMARK    4  A    between atoms: C_3  and  N_4
REMARK    5  A    between atoms: N_9  and  S_10
REMARK    6  A    between atoms: S_10  and  N_13
REMARK    7  A    between atoms: N_13  and  C_14
REMARK    8  A    between atoms: N_13  and  C_15
REMARK    9  A    between atoms: C_15  and  C_16
REMARK   10  A    between atoms: C_15  and  C_17
REMARK                            x       y       z     vdW  Elec       q    Type
REMARK                         _______ _______ _______ _____ _____    ______ ____
ROOT
ATOM      1  N   UNL     1       4.595   5.172  16.457  0.00  0.00    +0.000 NA
ATOM      2  H   UNL     1       4.175   5.643  15.659  0.00  0.00    +0.000 HD
ENDROOT
BRANCH   1   3
ATOM      3  S   UNL     1       3.361   4.556  17.432  0.00  0.00    +0.000 S 
ATOM      4  O   UNL     1       2.477   5.655  17.720  0.00  0.00    +0.000 OA
ATOM      5  O   UNL     1       2.900   3.352  16.779  0.00  0.00    +0.000 OA
BRANCH   3   6
ATOM      6  N   UNL     1       4.170   4.135  18.876  0.00  0.00    +0.000 NA
ATOM      7  C   UNL     1       4.416   5.302  19.769  0.00  0.00    +0.000 C 
BRANCH   6   8
ATOM      8  C   UNL     1       3.453   3.020  19.649  0.00  0.00    +0.000 C 
ATOM      9  C   UNL     1       4.438   2.077  20.358  0.00  0.00    +0.000 C 
BRANCH   8  10
ATOM     10  C   UNL     1       2.534   3.579  20.727  0.00  0.00    +0.000 C 
ATOM     11  C   UNL     1       1.125   4.069  20.466  0.00  0.00    +0.000 C 
ATOM     12  C   UNL     1       1.330   2.770  21.178  0.00  0.00    +0.000 C 
ENDBRANCH   8  10
ENDBRANCH   6   8
ENDBRANCH   3   6
ENDBRANCH   1   3
BRANCH   1  14
ATOM     13  C   UNL     1       5.563   4.357  14.364  0.00  0.00    +0.000 C 
ATOM     14  C   UNL     1       5.551   4.141  15.884  0.00  0.00    +0.000 C 
BRANCH  14  15
ATOM     15  C   UNL     1       6.967   4.218  16.479  0.00  0.00    +0.000 C 
BRANCH  15  16
ATOM     16  N   UNL     1       7.265   5.465  17.154  0.00  0.00    +0.000 N 
ATOM     17  C   UNL     1       7.682   5.629  18.437  0.00  0.00    +0.000 A 
ATOM     18  N   UNL     1       7.938   6.897  18.656  0.00  0.00    +0.000 NA
ATOM     19  C   UNL     1       7.688   7.475  17.445  0.00  0.00    +0.000 A 
ATOM     20  N   UNL     1       7.275   6.638  16.490  0.00  0.00    +0.000 NA
ENDBRANCH  15  16
ENDBRANCH  14  15
ENDBRANCH   1  14
TORSDOF 7
ENDMDL
MODEL 2
REMARK VINA RESULT:      -6.2      1.947      3.181
REMARK  Name = 
REMARK  10 active torsions:
REMARK  status: ('A' for Active; 'I' for Inactive)
REMARK    1  A    between atoms: C_1  and  C_2
REMARK    2  A    between atoms: C_2  and  C_3
REMARK    3  A    between atoms: C_2  and  N_9
REMARK    4  A    between atoms: C_3  and  N_4
REMARK    5  A    between atoms: N_9  and  S_10
REMARK    6  A    between atoms: S_10  and  N_13
REMARK    7  A    between atoms: N_13  and  C_14
REMARK    8  A    between atoms: N_13  and  C_15
REMARK    9  A    between atoms: C_15  and  C_16
REMARK   10  A    between atoms: C_15  and  C_17
REMARK                            x       y       z     vdW  Elec       q    Type
REMARK                         _______ _______ _______ _____ _____    ______ ____
ROOT
ATOM      1  N   UNL     1       5.940   3.983  18.413  0.00  0.00    +0.000 NA
ATOM      2  H   UNL     1       6.695   3.544  18.934  0.00  0.00    +0.000 HD
ENDROOT
BRANCH   1   3
ATOM      3  S   UNL     1       4.477   3.293  18.898  0.00  0.00    +0.000 S 
ATOM      4  O   UNL     1       4.061   2.418  17.834  0.00  0.00    +0.000 OA
ATOM      5  O   UNL     1       4.688   2.815  20.245  0.00  0.00    +0.000 OA
BRANCH   3   6
ATOM      6  N   UNL     1       3.406   4.624  18.937  0.00  0.00    +0.000 NA
ATOM      7  C   UNL     1       2.430   4.621  17.811  0.00  0.00    +0.000 C 
BRANCH   6   8
ATOM      8  C   UNL     1       2.667   4.744  20.277  0.00  0.00    +0.000 C 
ATOM      9  C   UNL     1       2.252   6.193  20.583  0.00  0.00    +0.000 C 
BRANCH   8  10
ATOM     10  C   UNL     1       1.391   3.913  20.297  0.00  0.00    +0.000 C 
ATOM     11  C   UNL     1       1.326   2.456  19.891  0.00  0.00    +0.000 C 
ATOM     12  C   UNL     1       1.227   2.820  21.338  0.00  0.00    +0.000 C 
ENDBRANCH   8  10
ENDBRANCH   6   8
ENDBRANCH   3   6
ENDBRANCH   1   3
BRANCH   1  14
ATOM     13  C   UNL     1       7.401   5.681  19.393  0.00  0.00    +0.000 C 
ATOM     14  C   UNL     1       6.071   5.476  18.655  0.00  0.00    +0.000 C 
BRANCH  14  15
ATOM     15  C   UNL     1       5.999   6.316  17.369  0.00  0.00    +0.000 C 
BRANCH  15  16
ATOM     16  N   UNL     1       6.202   5.561  16.150  0.00  0.00    +0.000 N 
ATOM     17  C   UNL     1       5.248   4.999  15.361  0.00  0.00    +0.000 A 
ATOM     18  N   UNL     1       5.812   4.479  14.295  0.00  0.00    +0.000 NA
ATOM     19  C   UNL     1       7.132   4.781  14.467  0.00  0.00    +0.000 A 
ATOM     20  N   UNL     1       7.422   5.447  15.588  0.00  0.00    +0.000 NA
ENDBRANCH  15  16
ENDBRANCH  14  15
ENDBRANCH   1  14
TORSDOF 7
ENDMDL
MODEL 3
REMARK VINA RESULT:      -6.2      1.475      2.178
REMARK  Name = 
REMARK  10 active torsions:
REMARK  status: ('A' for Active; 'I' for Inactive)
REMARK    1  A    between atoms: C_1  and  C_2
REMARK    2  A    between atoms: C_2  and  C_3
REMARK    3  A    between atoms: C_2  and  N_9
REMARK    4  A    between atoms: C_3  and  N_4
REMARK    5  A    between atoms: N_9  and  S_10
REMARK    6  A    between atoms: S_10  and  N_13
REMARK    7  A    between atoms: N_13  and  C_14
REMARK    8  A    between atoms: N_13  and  C_15
REMARK    9  A    between atoms: C_15  and  C_16
REMARK   10  A    between atoms: C_15  and  C_17
REMARK                            x       y       z     vdW  Elec       q    Type
REMARK                         _______ _______ _______ _____ _____    ______ ____
ROOT
ATOM      1  N   UNL     1       4.815   4.857  17.061  0.00  0.00    +0.000 NA
ATOM      2  H   UNL     1       4.137   5.400  16.532  0.00  0.00    +0.000 HD
ENDROOT
BRANCH   1   3
ATOM      3  S   UNL     1       3.985   3.884  18.164  0.00  0.00    +0.000 S 
ATOM      4  O   UNL     1       3.551   2.718  17.440  0.00  0.00    +0.000 OA
ATOM      5  O   UNL     1       4.833   3.791  19.330  0.00  0.00    +0.000 OA
BRANCH   3   6
ATOM      6  N   UNL     1       2.603   4.812  18.549  0.00  0.00    +0.000 NA
ATOM      7  C   UNL     1       1.398   4.416  17.768  0.00  0.00    +0.000 C 
BRANCH   6   8
ATOM      8  C   UNL     1       2.288   4.801  20.051  0.00  0.00    +0.000 C 
ATOM      9  C   UNL     1       1.703   6.140  20.532  0.00  0.00    +0.000 C 
BRANCH   8  10
ATOM     10  C   UNL     1       1.267   3.729  20.408  0.00  0.00    +0.000 C 
ATOM     11  C   UNL     1       1.515   2.243  20.256  0.00  0.00    +0.000 C 
ATOM     12  C   UNL     1       1.500   2.849  21.623  0.00  0.00    +0.000 C 
ENDBRANCH   8  10
ENDBRANCH   6   8
ENDBRANCH   3   6
ENDBRANCH   1   3
BRANCH   1  14
ATOM     13  C   UNL     1       5.182   4.594  14.657  0.00  0.00    +0.000 C 
ATOM     14  C   UNL     1       5.654   4.114  16.037  0.00  0.00    +0.000 C 
BRANCH  14  15
ATOM     15  C   UNL     1       7.168   4.314  16.220  0.00  0.00    +0.000 C 
BRANCH  15  16
ATOM     16  N   UNL     1       7.526   5.199  17.309  0.00  0.00    +0.000 N 
ATOM     17  C   UNL     1       7.544   6.559  17.294  0.00  0.00    +0.000 A 
ATOM     18  N   UNL     1       7.828   7.006  18.495  0.00  0.00    +0.000 NA
ATOM     19  C   UNL     1       7.947   5.862  19.230  0.00  0.00    +0.000 A 
ATOM     20  N   UNL     1       7.767   4.727  18.548  0.00  0.00    +0.000 NA
ENDBRANCH  15  16
ENDBRANCH  14  15
ENDBRANCH   1  14
TORSDOF 7
ENDMDL
MODEL 4
REMARK VINA RESULT:      -6.0      1.068      1.358
REMARK  Name = 
REMARK  10 active torsions:
REMARK  status: ('A' for Active; 'I' for Inactive)
REMARK    1  A    between atoms: C_1  and  C_2
REMARK    2  A    between atoms: C_2  and  C_3
REMARK    3  A    between atoms: C_2  and  N_9
REMARK    4  A    between atoms: C_3  and  N_4
REMARK    5  A    between atoms: N_9  and  S_10
REMARK    6  A    between atoms: S_10  and  N_13
REMARK    7  A    between atoms: N_13  and  C_14
REMARK    8  A    between atoms: N_13  and  C_15
REMARK    9  A    between atoms: C_15  and  C_16
REMARK   10  A    between atoms: C_15  and  C_17
REMARK                            x       y       z     vdW  Elec       q    Type
REMARK                         _______ _______ _______ _____ _____    ______ ____
ROOT
ATOM      1  N   UNL     1       4.736   5.700  16.549  0.00  0.00    +0.000 NA
ATOM      2  H   UNL     1       4.100   5.933  15.790  0.00  0.00    +0.000 HD
ENDROOT
BRANCH   1   3
ATOM      3  S   UNL     1       3.837   5.501  17.965  0.00  0.00    +0.000 S 
ATOM      4  O   UNL     1       4.561   6.176  19.010  0.00  0.00    +0.000 OA
ATOM      5  O   UNL     1       2.477   5.850  17.627  0.00  0.00    +0.000 OA
BRANCH   3   6
ATOM      6  N   UNL     1       3.928   3.820  18.259  0.00  0.00    +0.000 NA
ATOM      7  C   UNL     1       4.822   3.474  19.400  0.00  0.00    +0.000 C 
BRANCH   6   8
ATOM      8  C   UNL     1       2.547   3.183  18.456  0.00  0.00    +0.000 C 
ATOM      9  C   UNL     1       2.493   1.737  17.934  0.00  0.00    +0.000 C 
BRANCH   8  10
ATOM     10  C   UNL     1       2.153   3.128  19.926  0.00  0.00    +0.000 C 
ATOM     11  C   UNL     1       1.658   4.324  20.713  0.00  0.00    +0.000 C 
ATOM     12  C   UNL     1       0.690   3.256  20.314  0.00  0.00    +0.000 C 
ENDBRANCH   8  10
ENDBRANCH   6   8
ENDBRANCH   3   6
ENDBRANCH   1   3
BRANCH   1  14
ATOM     13  C   UNL     1       5.321   4.387  14.571  0.00  0.00    +0.000 C 
ATOM     14  C   UNL     1       5.512   4.478  16.091  0.00  0.00    +0.000 C 
BRANCH  14  15
ATOM     15  C   UNL     1       7.001   4.517  16.475  0.00  0.00    +0.000 C 
BRANCH  15  16
ATOM     16  N   UNL     1       7.385   5.669  17.264  0.00  0.00    +0.000 N 
ATOM     17  C   UNL     1       7.831   5.676  18.548  0.00  0.00    +0.000 A 
ATOM     18  N   UNL     1       8.169   6.899  18.887  0.00  0.00    +0.000 NA
ATOM     19  C   UNL     1       7.937   7.610  17.746  0.00  0.00    +0.000 A 
ATOM     20  N   UNL     1       7.459   6.900  16.721  0.00  0.00    +0.000 NA
ENDBRANCH  15  16
ENDBRANCH  14  15
ENDBRANCH   1  14
TORSDOF 7
ENDMDL
MODEL 5
REMARK VINA RESULT:      -6.0      2.024      3.399
REMARK  Name = 
REMARK  10 active torsions:
REMARK  status: ('A' for Active; 'I' for Inactive)
REMARK    1  A    between atoms: C_1  and  C_2
REMARK    2  A    between atoms: C_2  and  C_3
REMARK    3  A    between atoms: C_2  and  N_9
REMARK    4  A    between atoms: C_3  and  N_4
REMARK    5  A    between atoms: N_9  and  S_10
REMARK    6  A    between atoms: S_10  and  N_13
REMARK    7  A    between atoms: N_13  and  C_14
REMARK    8  A    between atoms: N_13  and  C_15
REMARK    9  A    between atoms: C_15  and  C_16
REMARK   10  A    between atoms: C_15  and  C_17
REMARK                            x       y       z     vdW  Elec       q    Type
REMARK                         _______ _______ _______ _____ _____    ______ ____
ROOT
ATOM      1  N   UNL     1       6.217   4.202  18.188  0.00  0.00    +0.000 NA
ATOM      2  H   UNL     1       6.995   3.591  18.424  0.00  0.00    +0.000 HD
ENDROOT
BRANCH   1   3
ATOM      3  S   UNL     1       4.920   3.844  19.209  0.00  0.00    +0.000 S 
ATOM      4  O   UNL     1       5.251   2.614  19.880  0.00  0.00    +0.000 OA
ATOM      5  O   UNL     1       4.635   5.060  19.935  0.00  0.00    +0.000 OA
BRANCH   3   6
ATOM      6  N   UNL     1       3.638   3.526  18.125  0.00  0.00    +0.000 NA
ATOM      7  C   UNL     1       3.608   2.113  17.654  0.00  0.00    +0.000 C 
BRANCH   6   8
ATOM      8  C   UNL     1       2.271   3.922  18.698  0.00  0.00    +0.000 C 
ATOM      9  C   UNL     1       1.231   4.183  17.595  0.00  0.00    +0.000 C 
BRANCH   8  10
ATOM     10  C   UNL     1       1.693   2.830  19.590  0.00  0.00    +0.000 C 
ATOM     11  C   UNL     1       2.154   2.566  21.008  0.00  0.00    +0.000 C 
ATOM     12  C   UNL     1       0.827   3.214  20.776  0.00  0.00    +0.000 C 
ENDBRANCH   8  10
ENDBRANCH   6   8
ENDBRANCH   3   6
ENDBRANCH   1   3
BRANCH   1  14
ATOM     13  C   UNL     1       7.956   5.569  19.230  0.00  0.00    +0.000 C 
ATOM     14  C   UNL     1       6.750   5.621  18.283  0.00  0.00    +0.000 C 
BRANCH  14  15
ATOM     15  C   UNL     1       7.123   6.229  16.921  0.00  0.00    +0.000 C 
BRANCH  15  16
ATOM     16  N   UNL     1       6.619   5.494  15.779  0.00  0.00    +0.000 N 
ATOM     17  C   UNL     1       7.342   4.785  14.871  0.00  0.00    +0.000 A 
ATOM     18  N   UNL     1       6.526   4.180  14.040  0.00  0.00    +0.000 NA
ATOM     19  C   UNL     1       5.293   4.531  14.507  0.00  0.00    +0.000 A 
ATOM     20  N   UNL     1       5.297   5.333  15.575  0.00  0.00    +0.000 NA
ENDBRANCH  15  16
ENDBRANCH  14  15
ENDBRANCH   1  14
TORSDOF 7
ENDMDL
MODEL 6
REMARK VINA RESULT:      -5.7      2.172      3.289
REMARK  Name = 
REMARK  10 active torsions:
REMARK  status: ('A' for Active; 'I' for Inactive)
REMARK    1  A    between atoms: C_1  and  C_2
REMARK    2  A    between atoms: C_2  and  C_3
REMARK    3  A    between atoms: C_2  and  N_9
REMARK    4  A    between atoms: C_3  and  N_4
REMARK    5  A    between atoms: N_9  and  S_10
REMARK    6  A    between atoms: S_10  and  N_13
REMARK    7  A    between atoms: N_13  and  C_14
REMARK    8  A    between atoms: N_13  and  C_15
REMARK    9  A    between atoms: C_15  and  C_16
REMARK   10  A    between atoms: C_15  and  C_17
REMARK                            x       y       z     vdW  Elec       q    Type
REMARK                         _______ _______ _______ _____ _____    ______ ____
ROOT
ATOM      1  N   UNL     1       5.385   6.443  17.872  0.00  0.00    +0.000 NA
ATOM      2  H   UNL     1       4.631   6.447  17.190  0.00  0.00    +0.000 HD
ENDROOT
BRANCH   1   3
ATOM      3  S   UNL     1       5.187   5.109  18.888  0.00  0.00    +0.000 S 
ATOM      4  O   UNL     1       4.927   3.978  18.036  0.00  0.00    +0.000 OA
ATOM      5  O   UNL     1       6.302   5.137  19.806  0.00  0.00    +0.000 OA
BRANCH   3   6
ATOM      6  N   UNL     1       3.750   5.470  19.739  0.00  0.00    +0.000 NA
ATOM      7  C   UNL     1       2.926   6.518  19.076  0.00  0.00    +0.000 C 
BRANCH   6   8
ATOM      8  C   UNL     1       2.900   4.222  20.012  0.00  0.00    +0.000 C 
ATOM      9  C   UNL     1       2.417   4.155  21.471  0.00  0.00    +0.000 C 
BRANCH   8  10
ATOM     10  C   UNL     1       1.652   4.185  19.140  0.00  0.00    +0.000 C 
ATOM     11  C   UNL     1       1.597   3.539  17.771  0.00  0.00    +0.000 C 
ATOM     12  C   UNL     1       0.927   2.868  18.927  0.00  0.00    +0.000 C 
ENDBRANCH   8  10
ENDBRANCH   6   8
ENDBRANCH   3   6
ENDBRANCH   1   3
BRANCH   1  14
ATOM     13  C   UNL     1       7.695   7.246  17.922  0.00  0.00    +0.000 C 
ATOM     14  C   UNL     1       6.677   6.470  17.074  0.00  0.00    +0.000 C 
BRANCH  14  15
ATOM     15  C   UNL     1       7.198   5.072  16.701  0.00  0.00    +0.000 C 
BRANCH  15  16
ATOM     16  N   UNL     1       7.056   4.736  15.299  0.00  0.00    +0.000 N 
ATOM     17  C   UNL     1       6.200   3.832  14.752  0.00  0.00    +0.000 A 
ATOM     18  N   UNL     1       6.297   3.875  13.443  0.00  0.00    +0.000 NA
ATOM     19  C   UNL     1       7.219   4.860  13.235  0.00  0.00    +0.000 A 
ATOM     20  N   UNL     1       7.712   5.420  14.342  0.00  0.00    +0.000 NA
ENDBRANCH  15  16
ENDBRANCH  14  15
ENDBRANCH   1  14
TORSDOF 7
ENDMDL
MODEL 7
REMARK VINA RESULT:      -5.7      2.331      3.343
REMARK  Name = 
REMARK  10 active torsions:
REMARK  status: ('A' for Active; 'I' for Inactive)
REMARK    1  A    between atoms: C_1  and  C_2
REMARK    2  A    between atoms: C_2  and  C_3
REMARK    3  A    between atoms: C_2  and  N_9
REMARK    4  A    between atoms: C_3  and  N_4
REMARK    5  A    between atoms: N_9  and  S_10
REMARK    6  A    between atoms: S_10  and  N_13
REMARK    7  A    between atoms: N_13  and  C_14
REMARK    8  A    between atoms: N_13  and  C_15
REMARK    9  A    between atoms: C_15  and  C_16
REMARK   10  A    between atoms: C_15  and  C_17
REMARK                            x       y       z     vdW  Elec       q    Type
REMARK                         _______ _______ _______ _____ _____    ______ ____
ROOT
ATOM      1  N   UNL     1       5.265   6.013  17.743  0.00  0.00    +0.000 NA
ATOM      2  H   UNL     1       4.631   6.807  17.718  0.00  0.00    +0.000 HD
ENDROOT
BRANCH   1   3
ATOM      3  S   UNL     1       4.732   4.933  18.927  0.00  0.00    +0.000 S 
ATOM      4  O   UNL     1       5.859   4.103  19.265  0.00  0.00    +0.000 OA
ATOM      5  O   UNL     1       4.045   5.732  19.915  0.00  0.00    +0.000 OA
BRANCH   3   6
ATOM      6  N   UNL     1       3.594   3.966  18.098  0.00  0.00    +0.000 NA
ATOM      7  C   UNL     1       4.049   2.560  17.908  0.00  0.00    +0.000 C 
BRANCH   6   8
ATOM      8  C   UNL     1       2.210   3.989  18.760  0.00  0.00    +0.000 C 
ATOM      9  C   UNL     1       1.071   3.902  17.731  0.00  0.00    +0.000 C 
BRANCH   8  10
ATOM     10  C   UNL     1       2.020   2.819  19.717  0.00  0.00    +0.000 C 
ATOM     11  C   UNL     1       2.616   2.760  21.108  0.00  0.00    +0.000 C 
ATOM     12  C   UNL     1       1.148   2.992  20.947  0.00  0.00    +0.000 C 
ENDBRANCH   8  10
ENDBRANCH   6   8
ENDBRANCH   3   6
ENDBRANCH   1   3
BRANCH   1  14
ATOM     13  C   UNL     1       5.088   6.657  15.390  0.00  0.00    +0.000 C 
ATOM     14  C   UNL     1       5.309   5.462  16.329  0.00  0.00    +0.000 C 
BRANCH  14  15
ATOM     15  C   UNL     1       6.612   4.715  16.000  0.00  0.00    +0.000 C 
BRANCH  15  16
ATOM     16  N   UNL     1       6.894   4.601  14.583  0.00  0.00    +0.000 N 
ATOM     17  C   UNL     1       6.255   3.816  13.676  0.00  0.00    +0.000 A 
ATOM     18  N   UNL     1       6.731   4.056  12.477  0.00  0.00    +0.000 NA
ATOM     19  C   UNL     1       7.654   5.036  12.702  0.00  0.00    +0.000 A 
ATOM     20  N   UNL     1       7.789   5.407  13.978  0.00  0.00    +0.000 NA
ENDBRANCH  15  16
ENDBRANCH  14  15
ENDBRANCH   1  14
TORSDOF 7
ENDMDL
MODEL 8
REMARK VINA RESULT:      -5.6      2.458      3.362
REMARK  Name = 
REMARK  10 active torsions:
REMARK  status: ('A' for Active; 'I' for Inactive)
REMARK    1  A    between atoms: C_1  and  C_2
REMARK    2  A    between atoms: C_2  and  C_3
REMARK    3  A    between atoms: C_2  and  N_9
REMARK    4  A    between atoms: C_3  and  N_4
REMARK    5  A    between atoms: N_9  and  S_10
REMARK    6  A    between atoms: S_10  and  N_13
REMARK    7  A    between atoms: N_13  and  C_14
REMARK    8  A    between atoms: N_13  and  C_15
REMARK    9  A    between atoms: C_15  and  C_16
REMARK   10  A    between atoms: C_15  and  C_17
REMARK                            x       y       z     vdW  Elec       q    Type
REMARK                         _______ _______ _______ _____ _____    ______ ____
ROOT
ATOM      1  N   UNL     1       5.594   6.127  17.826  0.00  0.00    +0.000 NA
ATOM      2  H   UNL     1       4.874   6.844  17.879  0.00  0.00    +0.000 HD
ENDROOT
BRANCH   1   3
ATOM      3  S   UNL     1       5.254   4.935  18.973  0.00  0.00    +0.000 S 
ATOM      4  O   UNL     1       5.078   3.704  18.247  0.00  0.00    +0.000 OA
ATOM      5  O   UNL     1       6.254   5.079  20.006  0.00  0.00    +0.000 OA
BRANCH   3   6
ATOM      6  N   UNL     1       3.734   5.405  19.595  0.00  0.00    +0.000 NA
ATOM      7  C   UNL     1       2.974   6.291  18.670  0.00  0.00    +0.000 C 
BRANCH   6   8
ATOM      8  C   UNL     1       2.871   4.205  20.007  0.00  0.00    +0.000 C 
ATOM      9  C   UNL     1       2.246   4.389  21.400  0.00  0.00    +0.000 C 
BRANCH   8  10
ATOM     10  C   UNL     1       1.717   3.979  19.039  0.00  0.00    +0.000 C 
ATOM     11  C   UNL     1       1.709   2.907  17.969  0.00  0.00    +0.000 C 
ATOM     12  C   UNL     1       0.852   2.739  19.183  0.00  0.00    +0.000 C 
ENDBRANCH   8  10
ENDBRANCH   6   8
ENDBRANCH   3   6
ENDBRANCH   1   3
BRANCH   1  14
ATOM     13  C   UNL     1       4.996   6.786  15.548  0.00  0.00    +0.000 C 
ATOM     14  C   UNL     1       5.617   5.657  16.382  0.00  0.00    +0.000 C 
BRANCH  14  15
ATOM     15  C   UNL     1       7.022   5.287  15.879  0.00  0.00    +0.000 C 
BRANCH  15  16
ATOM     16  N   UNL     1       7.068   4.860  14.495  0.00  0.00    +0.000 N 
ATOM     17  C   UNL     1       6.290   3.919  13.898  0.00  0.00    +0.000 A 
ATOM     18  N   UNL     1       6.561   3.878  12.614  0.00  0.00    +0.000 NA
ATOM     19  C   UNL     1       7.507   4.851  12.468  0.00  0.00    +0.000 A 
ATOM     20  N   UNL     1       7.849   5.485  13.592  0.00  0.00    +0.000 NA
ENDBRANCH  15  16
ENDBRANCH  14  15
ENDBRANCH   1  14
TORSDOF 7
ENDMDL
MODEL 9
REMARK VINA RESULT:      -5.6      1.705      2.251
REMARK  Name = 
REMARK  10 active torsions:
REMARK  status: ('A' for Active; 'I' for Inactive)
REMARK    1  A    between atoms: C_1  and  C_2
REMARK    2  A    between atoms: C_2  and  C_3
REMARK    3  A    between atoms: C_2  and  N_9
REMARK    4  A    between atoms: C_3  and  N_4
REMARK    5  A    between atoms: N_9  and  S_10
REMARK    6  A    between atoms: S_10  and  N_13
REMARK    7  A    between atoms: N_13  and  C_14
REMARK    8  A    between atoms: N_13  and  C_15
REMARK    9  A    between atoms: C_15  and  C_16
REMARK   10  A    between atoms: C_15  and  C_17
REMARK                            x       y       z     vdW  Elec       q    Type
REMARK                         _______ _______ _______ _____ _____    ______ ____
ROOT
ATOM      1  N   UNL     1       4.794   5.018  17.401  0.00  0.00    +0.000 NA
ATOM      2  H   UNL     1       3.977   5.236  16.836  0.00  0.00    +0.000 HD
ENDROOT
BRANCH   1   3
ATOM      3  S   UNL     1       4.277   4.319  18.849  0.00  0.00    +0.000 S 
ATOM      4  O   UNL     1       5.382   3.545  19.350  0.00  0.00    +0.000 OA
ATOM      5  O   UNL     1       3.678   5.387  19.617  0.00  0.00    +0.000 OA
BRANCH   3   6
ATOM      6  N   UNL     1       3.054   3.234  18.351  0.00  0.00    +0.000 NA
ATOM      7  C   UNL     1       3.528   1.825  18.257  0.00  0.00    +0.000 C 
BRANCH   6   8
ATOM      8  C   UNL     1       1.802   3.314  19.234  0.00  0.00    +0.000 C 
ATOM      9  C   UNL     1       0.525   2.929  18.469  0.00  0.00    +0.000 C 
BRANCH   8  10
ATOM     10  C   UNL     1       1.891   2.375  20.431  0.00  0.00    +0.000 C 
ATOM     11  C   UNL     1       2.756   2.636  21.646  0.00  0.00    +0.000 C 
ATOM     12  C   UNL     1       1.273   2.789  21.754  0.00  0.00    +0.000 C 
ENDBRANCH   8  10
ENDBRANCH   6   8
ENDBRANCH   3   6
ENDBRANCH   1   3
BRANCH   1  14
ATOM     13  C   UNL     1       5.264   4.398  15.083  0.00  0.00    +0.000 C 
ATOM     14  C   UNL     1       5.686   4.145  16.537  0.00  0.00    +0.000 C 
BRANCH  14  15
ATOM     15  C   UNL     1       7.188   4.406  16.745  0.00  0.00    +0.000 C 
BRANCH  15  16
ATOM     16  N   UNL     1       7.501   5.728  17.247  0.00  0.00    +0.000 N 
ATOM     17  C   UNL     1       7.384   6.909  16.584  0.00  0.00    +0.000 A 
ATOM     18  N   UNL     1       7.672   7.898  17.398  0.00  0.00    +0.000 NA
ATOM     19  C   UNL     1       7.933   7.261  18.576  0.00  0.00    +0.000 A 
ATOM     20  N   UNL     1       7.838   5.929  18.536  0.00  0.00    +0.000 NA
ENDBRANCH  15  16
ENDBRANCH  14  15
ENDBRANCH   1  14
TORSDOF 7
ENDMDL
