MODEL 1
REMARK VINA RESULT:      -8.2      0.000      0.000
REMARK  Name = 
REMARK  2 active torsions:
REMARK  status: ('A' for Active; 'I' for Inactive)
REMARK    1  A    between atoms: S_2  and  C_4
REMARK    2  A    between atoms: S_2  and  N_15
REMARK                            x       y       z     vdW  Elec       q    Type
REMARK                         _______ _______ _______ _____ _____    ______ ____
ROOT
ATOM      1  C   UNL     1       4.572   5.363  17.178  0.00  0.00    +0.000 A 
ATOM      2  C   UNL     1       4.093   6.474  17.875  0.00  0.00    +0.000 A 
ATOM      3  C   UNL     1       3.297   6.287  19.002  0.00  0.00    +0.000 A 
ATOM      4  C   UNL     1       2.956   4.992  19.434  0.00  0.00    +0.000 A 
ATOM      5  C   UNL     1       3.443   3.873  18.727  0.00  0.00    +0.000 A 
ATOM      6  C   UNL     1       4.258   4.070  17.596  0.00  0.00    +0.000 A 
ATOM      7  C   UNL     1       3.105   2.463  19.153  0.00  0.00    +0.000 C 
ATOM      8  C   UNL     1       1.600   2.160  19.149  0.00  0.00    +0.000 C 
ATOM      9  N   UNL     1       0.871   2.652  20.321  0.00  0.00    +0.000 NA
ATOM     10  C   UNL     1       0.750   4.111  20.343  0.00  0.00    +0.000 C 
ATOM     11  C   UNL     1       2.063   4.845  20.644  0.00  0.00    +0.000 C 
ATOM     12  H   UNL     1       1.338   2.335  21.171  0.00  0.00    +0.000 HD
ENDROOT
BRANCH   1  14
ATOM     13  O   UNL     1       5.353   4.434  14.871  0.00  0.00    +0.000 OA
ATOM     14  S   UNL     1       5.504   5.613  15.696  0.00  0.00    +0.000 S 
ATOM     15  O   UNL     1       5.162   6.921  15.171  0.00  0.00    +0.000 OA
BRANCH  14  16
ATOM     16  N   UNL     1       7.148   5.682  16.193  0.00  0.00    +0.000 NA
ATOM     17  C   UNL     1       7.648   4.599  17.071  0.00  0.00    +0.000 C 
ATOM     18  C   UNL     1       7.346   5.077  18.473  0.00  0.00    +0.000 C 
ATOM     19  C   UNL     1       7.641   6.566  18.399  0.00  0.00    +0.000 C 
ATOM     20  C   UNL     1       7.449   6.956  16.930  0.00  0.00    +0.000 C 
ENDBRANCH  14  16
ENDBRANCH   1  14
TORSDOF 2
ENDMDL
MODEL 2
REMARK VINA RESULT:      -7.6      1.897      2.496
REMARK  Name = 
REMARK  2 active torsions:
REMARK  status: ('A' for Active; 'I' for Inactive)
REMARK    1  A    between atoms: S_2  and  C_4
REMARK    2  A    between atoms: S_2  and  N_15
REMARK                            x       y       z     vdW  Elec       q    Type
REMARK                         _______ _______ _______ _____ _____    ______ ____
ROOT
ATOM      1  C   UNL     1       5.690   5.400  18.088  0.00  0.00    +0.000 A 
ATOM      2  C   UNL     1       4.772   6.440  18.236  0.00  0.00    +0.000 A 
ATOM      3  C   UNL     1       3.568   6.205  18.895  0.00  0.00    +0.000 A 
ATOM      4  C   UNL     1       3.261   4.928  19.396  0.00  0.00    +0.000 A 
ATOM      5  C   UNL     1       4.193   3.880  19.245  0.00  0.00    +0.000 A 
ATOM      6  C   UNL     1       5.413   4.128  18.589  0.00  0.00    +0.000 A 
ATOM      7  C   UNL     1       3.909   2.490  19.768  0.00  0.00    +0.000 C 
ATOM      8  C   UNL     1       2.661   1.842  19.152  0.00  0.00    +0.000 C 
ATOM      9  N   UNL     1       1.390   2.282  19.735  0.00  0.00    +0.000 NA
ATOM     10  C   UNL     1       1.054   3.663  19.383  0.00  0.00    +0.000 C 
ATOM     11  C   UNL     1       1.928   4.718  20.074  0.00  0.00    +0.000 C 
ATOM     12  H   UNL     1       1.428   2.188  20.749  0.00  0.00    +0.000 HD
ENDROOT
BRANCH   1  14
ATOM     13  O   UNL     1       7.745   6.935  17.621  0.00  0.00    +0.000 OA
ATOM     14  S   UNL     1       7.174   5.686  17.168  0.00  0.00    +0.000 S 
ATOM     15  O   UNL     1       7.960   4.467  17.203  0.00  0.00    +0.000 OA
BRANCH  14  16
ATOM     16  N   UNL     1       6.670   5.915  15.541  0.00  0.00    +0.000 NA
ATOM     17  C   UNL     1       5.233   5.728  15.233  0.00  0.00    +0.000 C 
ATOM     18  C   UNL     1       5.100   4.255  14.922  0.00  0.00    +0.000 C 
ATOM     19  C   UNL     1       6.371   3.951  14.147  0.00  0.00    +0.000 C 
ATOM     20  C   UNL     1       7.396   4.994  14.602  0.00  0.00    +0.000 C 
ENDBRANCH  14  16
ENDBRANCH   1  14
TORSDOF 2
ENDMDL
MODEL 3
REMARK VINA RESULT:      -7.6      1.104      2.064
REMARK  Name = 
REMARK  2 active torsions:
REMARK  status: ('A' for Active; 'I' for Inactive)
REMARK    1  A    between atoms: S_2  and  C_4
REMARK    2  A    between atoms: S_2  and  N_15
REMARK                            x       y       z     vdW  Elec       q    Type
REMARK                         _______ _______ _______ _____ _____    ______ ____
ROOT
ATOM      1  C   UNL     1       4.025   5.381  17.202  0.00  0.00    +0.000 A 
ATOM      2  C   UNL     1       3.801   4.169  16.548  0.00  0.00    +0.000 A 
ATOM      3  C   UNL     1       2.877   3.267  17.069  0.00  0.00    +0.000 A 
ATOM      4  C   UNL     1       2.180   3.559  18.255  0.00  0.00    +0.000 A 
ATOM      5  C   UNL     1       2.409   4.785  18.912  0.00  0.00    +0.000 A 
ATOM      6  C   UNL     1       3.336   5.697  18.373  0.00  0.00    +0.000 A 
ATOM      7  C   UNL     1       1.684   5.144  20.189  0.00  0.00    +0.000 C 
ATOM      8  C   UNL     1       1.939   4.161  21.341  0.00  0.00    +0.000 C 
ATOM      9  N   UNL     1       1.151   2.927  21.281  0.00  0.00    +0.000 NA
ATOM     10  C   UNL     1       1.576   2.035  20.200  0.00  0.00    +0.000 C 
ATOM     11  C   UNL     1       1.212   2.532  18.796  0.00  0.00    +0.000 C 
ATOM     12  H   UNL     1       0.164   3.157  21.166  0.00  0.00    +0.000 HD
ENDROOT
BRANCH   1  14
ATOM     13  O   UNL     1       5.164   6.499  15.141  0.00  0.00    +0.000 OA
ATOM     14  S   UNL     1       5.269   6.477  16.583  0.00  0.00    +0.000 S 
ATOM     15  O   UNL     1       5.191   7.711  17.342  0.00  0.00    +0.000 OA
BRANCH  14  16
ATOM     16  N   UNL     1       6.770   5.737  16.975  0.00  0.00    +0.000 NA
ATOM     17  C   UNL     1       6.768   4.689  18.023  0.00  0.00    +0.000 C 
ATOM     18  C   UNL     1       6.959   5.445  19.317  0.00  0.00    +0.000 C 
ATOM     19  C   UNL     1       7.957   6.526  18.939  0.00  0.00    +0.000 C 
ATOM     20  C   UNL     1       7.781   6.748  17.434  0.00  0.00    +0.000 C 
ENDBRANCH  14  16
ENDBRANCH   1  14
TORSDOF 2
ENDMDL
MODEL 4
REMARK VINA RESULT:      -7.5      1.674      2.268
REMARK  Name = 
REMARK  2 active torsions:
REMARK  status: ('A' for Active; 'I' for Inactive)
REMARK    1  A    between atoms: S_2  and  C_4
REMARK    2  A    between atoms: S_2  and  N_15
REMARK                            x       y       z     vdW  Elec       q    Type
REMARK                         _______ _______ _______ _____ _____    ______ ____
ROOT
ATOM      1  C   UNL     1       4.574   6.045  17.646  0.00  0.00    +0.000 A 
ATOM      2  C   UNL     1       3.563   6.966  17.924  0.00  0.00    +0.000 A 
ATOM      3  C   UNL     1       2.621   6.676  18.908  0.00  0.00    +0.000 A 
ATOM      4  C   UNL     1       2.670   5.460  19.612  0.00  0.00    +0.000 A 
ATOM      5  C   UNL     1       3.694   4.533  19.329  0.00  0.00    +0.000 A 
ATOM      6  C   UNL     1       4.649   4.838  18.341  0.00  0.00    +0.000 A 
ATOM      7  C   UNL     1       3.788   3.213  20.059  0.00  0.00    +0.000 C 
ATOM      8  C   UNL     1       2.551   2.321  19.884  0.00  0.00    +0.000 C 
ATOM      9  N   UNL     1       1.414   2.673  20.739  0.00  0.00    +0.000 NA
ATOM     10  C   UNL     1       0.774   3.929  20.342  0.00  0.00    +0.000 C 
ATOM     11  C   UNL     1       1.605   5.181  20.648  0.00  0.00    +0.000 C 
ATOM     12  H   UNL     1       1.723   2.738  21.709  0.00  0.00    +0.000 HD
ENDROOT
BRANCH   1  14
ATOM     13  O   UNL     1       4.947   6.869  15.201  0.00  0.00    +0.000 OA
ATOM     14  S   UNL     1       5.707   6.382  16.330  0.00  0.00    +0.000 S 
ATOM     15  O   UNL     1       6.797   7.171  16.874  0.00  0.00    +0.000 OA
BRANCH  14  16
ATOM     16  N   UNL     1       6.362   4.856  15.885  0.00  0.00    +0.000 NA
ATOM     17  C   UNL     1       7.629   4.848  15.118  0.00  0.00    +0.000 C 
ATOM     18  C   UNL     1       7.198   4.932  13.672  0.00  0.00    +0.000 C 
ATOM     19  C   UNL     1       5.960   4.051  13.631  0.00  0.00    +0.000 C 
ATOM     20  C   UNL     1       5.395   4.062  15.055  0.00  0.00    +0.000 C 
ENDBRANCH  14  16
ENDBRANCH   1  14
TORSDOF 2
ENDMDL
MODEL 5
REMARK VINA RESULT:      -7.4      0.990      2.004
REMARK  Name = 
REMARK  2 active torsions:
REMARK  status: ('A' for Active; 'I' for Inactive)
REMARK    1  A    between atoms: S_2  and  C_4
REMARK    2  A    between atoms: S_2  and  N_15
REMARK                            x       y       z     vdW  Elec       q    Type
REMARK                         _______ _______ _______ _____ _____    ______ ____
ROOT
ATOM      1  C   UNL     1       4.578   4.629  16.692  0.00  0.00    +0.000 A 
ATOM      2  C   UNL     1       4.639   3.235  16.704  0.00  0.00    +0.000 A 
ATOM      3  C   UNL     1       3.848   2.520  17.599  0.00  0.00    +0.000 A 
ATOM      4  C   UNL     1       3.001   3.188  18.501  0.00  0.00    +0.000 A 
ATOM      5  C   UNL     1       2.941   4.597  18.484  0.00  0.00    +0.000 A 
ATOM      6  C   UNL     1       3.735   5.312  17.569  0.00  0.00    +0.000 A 
ATOM      7  C   UNL     1       2.046   5.360  19.434  0.00  0.00    +0.000 C 
ATOM      8  C   UNL     1       2.365   5.114  20.916  0.00  0.00    +0.000 C 
ATOM      9  N   UNL     1       1.822   3.867  21.461  0.00  0.00    +0.000 NA
ATOM     10  C   UNL     1       2.501   2.678  20.942  0.00  0.00    +0.000 C 
ATOM     11  C   UNL     1       2.188   2.366  19.473  0.00  0.00    +0.000 C 
ATOM     12  H   UNL     1       0.825   3.809  21.254  0.00  0.00    +0.000 HD
ENDROOT
BRANCH   1  14
ATOM     13  O   UNL     1       5.773   4.787  14.381  0.00  0.00    +0.000 OA
ATOM     14  S   UNL     1       5.656   5.529  15.617  0.00  0.00    +0.000 S 
ATOM     15  O   UNL     1       5.215   6.911  15.601  0.00  0.00    +0.000 OA
BRANCH  14  16
ATOM     16  N   UNL     1       7.196   5.499  16.379  0.00  0.00    +0.000 NA
ATOM     17  C   UNL     1       7.392   4.548  17.497  0.00  0.00    +0.000 C 
ATOM     18  C   UNL     1       6.951   5.309  18.726  0.00  0.00    +0.000 C 
ATOM     19  C   UNL     1       7.466   6.714  18.463  0.00  0.00    +0.000 C 
ATOM     20  C   UNL     1       7.561   6.844  16.940  0.00  0.00    +0.000 C 
ENDBRANCH  14  16
ENDBRANCH   1  14
TORSDOF 2
ENDMDL
MODEL 6
REMARK VINA RESULT:      -7.3      4.337      6.172
REMARK  Name = 
REMARK  2 active torsions:
REMARK  status: ('A' for Active; 'I' for Inactive)
REMARK    1  A    between atoms: S_2  and  C_4
REMARK    2  A    between atoms: S_2  and  N_15
REMARK                            x       y       z     vdW  Elec       q    Type
REMARK                         _______ _______ _______ _____ _____    ______ ____
ROOT
ATOM      1  C   UNL     1       2.283   6.875  19.468  0.00  0.00    +0.000 A 
ATOM      2  C   UNL     1       2.395   7.380  18.171  0.00  0.00    +0.000 A 
ATOM      3  C   UNL     1       1.995   8.687  17.906  0.00  0.00    +0.000 A 
ATOM      4  C   UNL     1       1.464   9.496  18.926  0.00  0.00    +0.000 A 
ATOM      5  C   UNL     1       1.354   8.982  20.235  0.00  0.00    +0.000 A 
ATOM      6  C   UNL     1       1.772   7.664  20.498  0.00  0.00    +0.000 A 
ATOM      7  C   UNL     1       0.790   9.813  21.365  0.00  0.00    +0.000 C 
ATOM      8  C   UNL     1      -0.653  10.279  21.128  0.00  0.00    +0.000 C 
ATOM      9  N   UNL     1      -0.786  11.446  20.250  0.00  0.00    +0.000 NA
ATOM     10  C   UNL     1      -0.475  11.141  18.852  0.00  0.00    +0.000 C 
ATOM     11  C   UNL     1       1.015  10.896  18.579  0.00  0.00    +0.000 C 
ATOM     12  H   UNL     1      -0.175  12.193  20.581  0.00  0.00    +0.000 HD
ENDROOT
BRANCH   1  14
ATOM     13  O   UNL     1       4.092   4.999  19.400  0.00  0.00    +0.000 OA
ATOM     14  S   UNL     1       2.707   5.185  19.773  0.00  0.00    +0.000 S 
ATOM     15  O   UNL     1       2.258   4.849  21.110  0.00  0.00    +0.000 OA
BRANCH  14  16
ATOM     16  N   UNL     1       1.755   4.267  18.675  0.00  0.00    +0.000 NA
ATOM     17  C   UNL     1       1.000   3.113  19.216  0.00  0.00    +0.000 C 
ATOM     18  C   UNL     1       1.967   1.954  19.134  0.00  0.00    +0.000 C 
ATOM     19  C   UNL     1       2.679   2.194  17.813  0.00  0.00    +0.000 C 
ATOM     20  C   UNL     1       2.589   3.702  17.560  0.00  0.00    +0.000 C 
ENDBRANCH  14  16
ENDBRANCH   1  14
TORSDOF 2
ENDMDL
MODEL 7
REMARK VINA RESULT:      -7.3      1.888      2.509
REMARK  Name = 
REMARK  2 active torsions:
REMARK  status: ('A' for Active; 'I' for Inactive)
REMARK    1  A    between atoms: S_2  and  C_4
REMARK    2  A    between atoms: S_2  and  N_15
REMARK                            x       y       z     vdW  Elec       q    Type
REMARK                         _______ _______ _______ _____ _____    ______ ____
ROOT
ATOM      1  C   UNL     1       5.405   5.900  18.016  0.00  0.00    +0.000 A 
ATOM      2  C   UNL     1       4.232   6.583  17.688  0.00  0.00    +0.000 A 
ATOM      3  C   UNL     1       2.999   6.033  18.028  0.00  0.00    +0.000 A 
ATOM      4  C   UNL     1       2.923   4.791  18.683  0.00  0.00    +0.000 A 
ATOM      5  C   UNL     1       4.110   4.106  19.014  0.00  0.00    +0.000 A 
ATOM      6  C   UNL     1       5.353   4.673  18.678  0.00  0.00    +0.000 A 
ATOM      7  C   UNL     1       4.080   2.769  19.719  0.00  0.00    +0.000 C 
ATOM      8  C   UNL     1       3.338   1.675  18.937  0.00  0.00    +0.000 C 
ATOM      9  N   UNL     1       1.878   1.726  19.045  0.00  0.00    +0.000 NA
ATOM     10  C   UNL     1       1.296   2.867  18.334  0.00  0.00    +0.000 C 
ATOM     11  C   UNL     1       1.559   4.223  19.001  0.00  0.00    +0.000 C 
ATOM     12  H   UNL     1       1.609   1.764  20.029  0.00  0.00    +0.000 HD
ENDROOT
BRANCH   1  14
ATOM     13  O   UNL     1       6.737   7.916  17.037  0.00  0.00    +0.000 OA
ATOM     14  S   UNL     1       6.961   6.563  17.497  0.00  0.00    +0.000 S 
ATOM     15  O   UNL     1       7.929   6.296  18.544  0.00  0.00    +0.000 OA
BRANCH  14  16
ATOM     16  N   UNL     1       7.424   5.629  16.130  0.00  0.00    +0.000 NA
ATOM     17  C   UNL     1       6.740   5.902  14.845  0.00  0.00    +0.000 C 
ATOM     18  C   UNL     1       5.518   5.013  14.868  0.00  0.00    +0.000 C 
ATOM     19  C   UNL     1       6.036   3.737  15.512  0.00  0.00    +0.000 C 
ATOM     20  C   UNL     1       7.229   4.160  16.373  0.00  0.00    +0.000 C 
ENDBRANCH  14  16
ENDBRANCH   1  14
TORSDOF 2
ENDMDL
MODEL 8
REMARK VINA RESULT:      -7.3      1.314      2.294
REMARK  Name = 
REMARK  2 active torsions:
REMARK  status: ('A' for Active; 'I' for Inactive)
REMARK    1  A    between atoms: S_2  and  C_4
REMARK    2  A    between atoms: S_2  and  N_15
REMARK                            x       y       z     vdW  Elec       q    Type
REMARK                         _______ _______ _______ _____ _____    ______ ____
ROOT
ATOM      1  C   UNL     1       4.765   4.750  16.606  0.00  0.00    +0.000 A 
ATOM      2  C   UNL     1       4.492   3.474  17.102  0.00  0.00    +0.000 A 
ATOM      3  C   UNL     1       3.488   3.307  18.053  0.00  0.00    +0.000 A 
ATOM      4  C   UNL     1       2.759   4.411  18.529  0.00  0.00    +0.000 A 
ATOM      5  C   UNL     1       3.038   5.698  18.023  0.00  0.00    +0.000 A 
ATOM      6  C   UNL     1       4.046   5.857  17.054  0.00  0.00    +0.000 A 
ATOM      7  C   UNL     1       2.281   6.915  18.503  0.00  0.00    +0.000 C 
ATOM      8  C   UNL     1       2.419   7.174  20.010  0.00  0.00    +0.000 C 
ATOM      9  N   UNL     1       1.555   6.347  20.857  0.00  0.00    +0.000 NA
ATOM     10  C   UNL     1       1.970   4.942  20.888  0.00  0.00    +0.000 C 
ATOM     11  C   UNL     1       1.703   4.180  19.583  0.00  0.00    +0.000 C 
ATOM     12  H   UNL     1       0.592   6.411  20.529  0.00  0.00    +0.000 HD
ENDROOT
BRANCH   1  14
ATOM     13  O   UNL     1       6.323   3.701  14.797  0.00  0.00    +0.000 OA
ATOM     14  S   UNL     1       6.104   4.963  15.469  0.00  0.00    +0.000 S 
ATOM     15  O   UNL     1       5.847   6.166  14.700  0.00  0.00    +0.000 OA
BRANCH  14  16
ATOM     16  N   UNL     1       7.487   5.271  16.442  0.00  0.00    +0.000 NA
ATOM     17  C   UNL     1       7.638   4.491  17.692  0.00  0.00    +0.000 C 
ATOM     18  C   UNL     1       6.896   5.294  18.734  0.00  0.00    +0.000 C 
ATOM     19  C   UNL     1       7.233   6.729  18.365  0.00  0.00    +0.000 C 
ATOM     20  C   UNL     1       7.554   6.710  16.868  0.00  0.00    +0.000 C 
ENDBRANCH  14  16
ENDBRANCH   1  14
TORSDOF 2
ENDMDL
MODEL 9
REMARK VINA RESULT:      -7.2      2.063      2.958
REMARK  Name = 
REMARK  2 active torsions:
REMARK  status: ('A' for Active; 'I' for Inactive)
REMARK    1  A    between atoms: S_2  and  C_4
REMARK    2  A    between atoms: S_2  and  N_15
REMARK                            x       y       z     vdW  Elec       q    Type
REMARK                         _______ _______ _______ _____ _____    ______ ____
ROOT
ATOM      1  C   UNL     1       5.581   4.459  18.291  0.00  0.00    +0.000 A 
ATOM      2  C   UNL     1       5.141   3.507  17.369  0.00  0.00    +0.000 A 
ATOM      3  C   UNL     1       3.841   3.017  17.456  0.00  0.00    +0.000 A 
ATOM      4  C   UNL     1       2.974   3.457  18.472  0.00  0.00    +0.000 A 
ATOM      5  C   UNL     1       3.423   4.420  19.400  0.00  0.00    +0.000 A 
ATOM      6  C   UNL     1       4.734   4.920  19.299  0.00  0.00    +0.000 A 
ATOM      7  C   UNL     1       2.528   4.924  20.509  0.00  0.00    +0.000 C 
ATOM      8  C   UNL     1       2.046   3.822  21.464  0.00  0.00    +0.000 C 
ATOM      9  N   UNL     1       0.921   3.027  20.965  0.00  0.00    +0.000 NA
ATOM     10  C   UNL     1       1.298   2.141  19.861  0.00  0.00    +0.000 C 
ATOM     11  C   UNL     1       1.584   2.869  18.542  0.00  0.00    +0.000 C 
ATOM     12  H   UNL     1       0.170   3.648  20.663  0.00  0.00    +0.000 HD
ENDROOT
BRANCH   1  14
ATOM     13  O   UNL     1       7.570   5.648  19.487  0.00  0.00    +0.000 OA
ATOM     14  S   UNL     1       7.263   5.005  18.228  0.00  0.00    +0.000 S 
ATOM     15  O   UNL     1       8.072   3.898  17.756  0.00  0.00    +0.000 OA
BRANCH  14  16
ATOM     16  N   UNL     1       7.307   6.218  17.011  0.00  0.00    +0.000 NA
ATOM     17  C   UNL     1       6.498   7.440  17.227  0.00  0.00    +0.000 C 
ATOM     18  C   UNL     1       5.141   7.106  16.653  0.00  0.00    +0.000 C 
ATOM     19  C   UNL     1       5.484   6.301  15.410  0.00  0.00    +0.000 C 
ATOM     20  C   UNL     1       6.859   5.682  15.681  0.00  0.00    +0.000 C 
ENDBRANCH  14  16
ENDBRANCH   1  14
TORSDOF 2
ENDMDL
