MODEL 1
REMARK VINA RESULT:      -8.5      0.000      0.000
REMARK  Name = 
REMARK  4 active torsions:
REMARK  status: ('A' for Active; 'I' for Inactive)
REMARK    1  A    between atoms: C_1  and  C_2
REMARK    2  A    between atoms: C_5  and  O_6
REMARK    3  A    between atoms: O_6  and  C_7
REMARK    4  A    between atoms: C_7  and  C_8
REMARK                            x       y       z     vdW  Elec       q    Type
REMARK                         _______ _______ _______ _____ _____    ______ ____
ROOT
ATOM      1  C   UNL     1       3.710   4.964  18.130  0.00  0.00    +0.000 A 
ATOM      2  C   UNL     1       3.399   6.308  17.862  0.00  0.00    +0.000 A 
ATOM      3  C   UNL     1       2.682   7.064  18.785  0.00  0.00    +0.000 A 
ATOM      4  C   UNL     1       2.186   6.447  19.927  0.00  0.00    +0.000 A 
ATOM      5  C   UNL     1       2.485   5.123  20.220  0.00  0.00    +0.000 A 
ATOM      6  N   UNL     1       1.835   4.536  21.224  0.00  0.00    +0.000 NA
ATOM      7  C   UNL     1       2.153   3.273  21.497  0.00  0.00    +0.000 A 
ATOM      8  N   UNL     1       1.164   2.428  21.980  0.00  0.00    +0.000 N 
ATOM      9  N   UNL     1       3.215   2.637  21.032  0.00  0.00    +0.000 NA
ATOM     10  C   UNL     1       3.816   3.215  19.995  0.00  0.00    +0.000 A 
ATOM     11  N   UNL     1       4.931   2.507  19.539  0.00  0.00    +0.000 N 
ATOM     12  C   UNL     1       3.384   4.423  19.414  0.00  0.00    +0.000 A 
ATOM     13  H   UNL     1       1.545   1.494  21.847  0.00  0.00    +0.000 HD
ATOM     14  H   UNL     1       0.377   2.592  21.359  0.00  0.00    +0.000 HD
ATOM     15  H   UNL     1       4.986   1.668  20.111  0.00  0.00    +0.000 HD
ATOM     16  H   UNL     1       4.787   2.267  18.563  0.00  0.00    +0.000 HD
ENDROOT
BRANCH   1  17
ATOM     17  C   UNL     1       4.225   4.105  16.978  0.00  0.00    +0.000 C 
BRANCH  17  18
ATOM     18  O   UNL     1       5.641   3.942  17.123  0.00  0.00    +0.000 OA
BRANCH  18  23
ATOM     19  C   UNL     1       8.321   8.806  18.120  0.00  0.00    +0.000 C 
ATOM     20  C   UNL     1       7.778   7.441  17.813  0.00  0.00    +0.000 A 
ATOM     21  C   UNL     1       7.092   7.215  16.620  0.00  0.00    +0.000 A 
ATOM     22  C   UNL     1       6.428   6.007  16.418  0.00  0.00    +0.000 A 
ATOM     23  C   UNL     1       6.450   4.996  17.385  0.00  0.00    +0.000 A 
ATOM     24  C   UNL     1       7.182   5.191  18.550  0.00  0.00    +0.000 A 
ATOM     25  C   UNL     1       7.837   6.412  18.765  0.00  0.00    +0.000 A 
ENDBRANCH  18  23
ENDBRANCH  17  18
ENDBRANCH   1  17
TORSDOF 3
ENDMDL
MODEL 2
REMARK VINA RESULT:      -8.1      2.602      5.666
REMARK  Name = 
REMARK  4 active torsions:
REMARK  status: ('A' for Active; 'I' for Inactive)
REMARK    1  A    between atoms: C_1  and  C_2
REMARK    2  A    between atoms: C_5  and  O_6
REMARK    3  A    between atoms: O_6  and  C_7
REMARK    4  A    between atoms: C_7  and  C_8
REMARK                            x       y       z     vdW  Elec       q    Type
REMARK                         _______ _______ _______ _____ _____    ______ ____
ROOT
ATOM      1  C   UNL     1       5.179   3.857  16.552  0.00  0.00    +0.000 A 
ATOM      2  C   UNL     1       5.216   3.398  15.224  0.00  0.00    +0.000 A 
ATOM      3  C   UNL     1       6.151   3.906  14.328  0.00  0.00    +0.000 A 
ATOM      4  C   UNL     1       6.979   4.948  14.729  0.00  0.00    +0.000 A 
ATOM      5  C   UNL     1       6.969   5.416  16.036  0.00  0.00    +0.000 A 
ATOM      6  N   UNL     1       7.644   6.530  16.314  0.00  0.00    +0.000 NA
ATOM      7  C   UNL     1       7.634   6.947  17.578  0.00  0.00    +0.000 A 
ATOM      8  N   UNL     1       7.685   8.310  17.828  0.00  0.00    +0.000 N 
ATOM      9  N   UNL     1       7.228   6.231  18.613  0.00  0.00    +0.000 NA
ATOM     10  C   UNL     1       6.510   5.151  18.313  0.00  0.00    +0.000 A 
ATOM     11  N   UNL     1       6.105   4.429  19.438  0.00  0.00    +0.000 N 
ATOM     12  C   UNL     1       6.193   4.764  16.996  0.00  0.00    +0.000 A 
ATOM     13  H   UNL     1       7.388   8.399  18.797  0.00  0.00    +0.000 HD
ATOM     14  H   UNL     1       6.991   8.702  17.197  0.00  0.00    +0.000 HD
ATOM     15  H   UNL     1       6.438   4.951  20.245  0.00  0.00    +0.000 HD
ATOM     16  H   UNL     1       5.090   4.374  19.440  0.00  0.00    +0.000 HD
ENDROOT
BRANCH   1  17
ATOM     17  C   UNL     1       3.962   3.499  17.400  0.00  0.00    +0.000 C 
BRANCH  17  18
ATOM     18  O   UNL     1       3.002   4.558  17.298  0.00  0.00    +0.000 OA
BRANCH  18  23
ATOM     19  C   UNL     1       1.207   8.212  21.204  0.00  0.00    +0.000 C 
ATOM     20  C   UNL     1       1.844   7.228  20.267  0.00  0.00    +0.000 A 
ATOM     21  C   UNL     1       2.339   7.658  19.035  0.00  0.00    +0.000 A 
ATOM     22  C   UNL     1       2.758   6.724  18.090  0.00  0.00    +0.000 A 
ATOM     23  C   UNL     1       2.711   5.351  18.356  0.00  0.00    +0.000 A 
ATOM     24  C   UNL     1       2.275   4.919  19.603  0.00  0.00    +0.000 A 
ATOM     25  C   UNL     1       1.837   5.854  20.551  0.00  0.00    +0.000 A 
ENDBRANCH  18  23
ENDBRANCH  17  18
ENDBRANCH   1  17
TORSDOF 3
ENDMDL
MODEL 3
REMARK VINA RESULT:      -7.7      0.339      1.085
REMARK  Name = 
REMARK  4 active torsions:
REMARK  status: ('A' for Active; 'I' for Inactive)
REMARK    1  A    between atoms: C_1  and  C_2
REMARK    2  A    between atoms: C_5  and  O_6
REMARK    3  A    between atoms: O_6  and  C_7
REMARK    4  A    between atoms: C_7  and  C_8
REMARK                            x       y       z     vdW  Elec       q    Type
REMARK                         _______ _______ _______ _____ _____    ______ ____
ROOT
ATOM      1  C   UNL     1       3.670   4.762  18.169  0.00  0.00    +0.000 A 
ATOM      2  C   UNL     1       3.240   6.062  17.854  0.00  0.00    +0.000 A 
ATOM      3  C   UNL     1       2.479   6.794  18.760  0.00  0.00    +0.000 A 
ATOM      4  C   UNL     1       2.058   6.188  19.938  0.00  0.00    +0.000 A 
ATOM      5  C   UNL     1       2.474   4.907  20.279  0.00  0.00    +0.000 A 
ATOM      6  N   UNL     1       1.896   4.312  21.320  0.00  0.00    +0.000 NA
ATOM      7  C   UNL     1       2.326   3.093  21.638  0.00  0.00    +0.000 A 
ATOM      8  N   UNL     1       1.421   2.189  22.177  0.00  0.00    +0.000 N 
ATOM      9  N   UNL     1       3.428   2.529  21.176  0.00  0.00    +0.000 NA
ATOM     10  C   UNL     1       3.959   3.111  20.103  0.00  0.00    +0.000 A 
ATOM     11  N   UNL     1       5.121   2.480  19.652  0.00  0.00    +0.000 N 
ATOM     12  C   UNL     1       3.414   4.252  19.482  0.00  0.00    +0.000 A 
ATOM     13  H   UNL     1       1.877   1.286  22.075  0.00  0.00    +0.000 HD
ATOM     14  H   UNL     1       0.611   2.259  21.568  0.00  0.00    +0.000 HD
ATOM     15  H   UNL     1       5.259   1.674  20.257  0.00  0.00    +0.000 HD
ATOM     16  H   UNL     1       4.980   2.187  18.690  0.00  0.00    +0.000 HD
ENDROOT
BRANCH   1  17
ATOM     17  C   UNL     1       4.233   3.901  17.044  0.00  0.00    +0.000 C 
BRANCH  17  18
ATOM     18  O   UNL     1       5.650   4.101  16.977  0.00  0.00    +0.000 OA
BRANCH  18  23
ATOM     19  C   UNL     1       8.744   8.583  18.450  0.00  0.00    +0.000 C 
ATOM     20  C   UNL     1       7.778   7.477  18.146  0.00  0.00    +0.000 A 
ATOM     21  C   UNL     1       7.851   6.274  18.850  0.00  0.00    +0.000 A 
ATOM     22  C   UNL     1       7.083   5.185  18.445  0.00  0.00    +0.000 A 
ATOM     23  C   UNL     1       6.217   5.274  17.350  0.00  0.00    +0.000 A 
ATOM     24  C   UNL     1       6.094   6.487  16.683  0.00  0.00    +0.000 A 
ATOM     25  C   UNL     1       6.877   7.580  17.075  0.00  0.00    +0.000 A 
ENDBRANCH  18  23
ENDBRANCH  17  18
ENDBRANCH   1  17
TORSDOF 3
ENDMDL
MODEL 4
REMARK VINA RESULT:      -7.7      2.663      5.779
REMARK  Name = 
REMARK  4 active torsions:
REMARK  status: ('A' for Active; 'I' for Inactive)
REMARK    1  A    between atoms: C_1  and  C_2
REMARK    2  A    between atoms: C_5  and  O_6
REMARK    3  A    between atoms: O_6  and  C_7
REMARK    4  A    between atoms: C_7  and  C_8
REMARK                            x       y       z     vdW  Elec       q    Type
REMARK                         _______ _______ _______ _____ _____    ______ ____
ROOT
ATOM      1  C   UNL     1       5.255   3.978  16.888  0.00  0.00    +0.000 A 
ATOM      2  C   UNL     1       5.208   3.445  15.589  0.00  0.00    +0.000 A 
ATOM      3  C   UNL     1       6.076   3.907  14.604  0.00  0.00    +0.000 A 
ATOM      4  C   UNL     1       6.919   4.974  14.890  0.00  0.00    +0.000 A 
ATOM      5  C   UNL     1       6.992   5.515  16.168  0.00  0.00    +0.000 A 
ATOM      6  N   UNL     1       7.674   6.646  16.337  0.00  0.00    +0.000 NA
ATOM      7  C   UNL     1       7.745   7.133  17.574  0.00  0.00    +0.000 A 
ATOM      8  N   UNL     1       7.800   8.508  17.744  0.00  0.00    +0.000 N 
ATOM      9  N   UNL     1       7.416   6.474  18.672  0.00  0.00    +0.000 NA
ATOM     10  C   UNL     1       6.689   5.375  18.481  0.00  0.00    +0.000 A 
ATOM     11  N   UNL     1       6.366   4.715  19.670  0.00  0.00    +0.000 N 
ATOM     12  C   UNL     1       6.288   4.914  17.212  0.00  0.00    +0.000 A 
ATOM     13  H   UNL     1       7.568   8.650  18.724  0.00  0.00    +0.000 HD
ATOM     14  H   UNL     1       7.062   8.860  17.140  0.00  0.00    +0.000 HD
ATOM     15  H   UNL     1       6.748   5.283  20.422  0.00  0.00    +0.000 HD
ATOM     16  H   UNL     1       5.355   4.655  19.743  0.00  0.00    +0.000 HD
ENDROOT
BRANCH   1  17
ATOM     17  C   UNL     1       4.101   3.661  17.835  0.00  0.00    +0.000 C 
BRANCH  17  18
ATOM     18  O   UNL     1       2.971   4.462  17.466  0.00  0.00    +0.000 OA
BRANCH  18  23
ATOM     19  C   UNL     1       1.583   8.252  21.409  0.00  0.00    +0.000 C 
ATOM     20  C   UNL     1       1.785   7.282  20.282  0.00  0.00    +0.000 A 
ATOM     21  C   UNL     1       1.672   5.911  20.513  0.00  0.00    +0.000 A 
ATOM     22  C   UNL     1       2.040   5.006  19.520  0.00  0.00    +0.000 A 
ATOM     23  C   UNL     1       2.507   5.444  18.276  0.00  0.00    +0.000 A 
ATOM     24  C   UNL     1       2.564   6.808  18.018  0.00  0.00    +0.000 A 
ATOM     25  C   UNL     1       2.212   7.722  19.020  0.00  0.00    +0.000 A 
ENDBRANCH  18  23
ENDBRANCH  17  18
ENDBRANCH   1  17
TORSDOF 3
ENDMDL
MODEL 5
REMARK VINA RESULT:      -7.7      2.832      5.638
REMARK  Name = 
REMARK  4 active torsions:
REMARK  status: ('A' for Active; 'I' for Inactive)
REMARK    1  A    between atoms: C_1  and  C_2
REMARK    2  A    between atoms: C_5  and  O_6
REMARK    3  A    between atoms: O_6  and  C_7
REMARK    4  A    between atoms: C_7  and  C_8
REMARK                            x       y       z     vdW  Elec       q    Type
REMARK                         _______ _______ _______ _____ _____    ______ ____
ROOT
ATOM      1  C   UNL     1       5.325   4.309  17.855  0.00  0.00    +0.000 A 
ATOM      2  C   UNL     1       4.858   3.700  16.679  0.00  0.00    +0.000 A 
ATOM      3  C   UNL     1       5.355   4.087  15.438  0.00  0.00    +0.000 A 
ATOM      4  C   UNL     1       6.240   5.156  15.365  0.00  0.00    +0.000 A 
ATOM      5  C   UNL     1       6.724   5.772  16.512  0.00  0.00    +0.000 A 
ATOM      6  N   UNL     1       7.419   6.900  16.379  0.00  0.00    +0.000 NA
ATOM      7  C   UNL     1       7.888   7.460  17.491  0.00  0.00    +0.000 A 
ATOM      8  N   UNL     1       7.989   8.842  17.548  0.00  0.00    +0.000 N 
ATOM      9  N   UNL     1       7.939   6.875  18.676  0.00  0.00    +0.000 NA
ATOM     10  C   UNL     1       7.194   5.778  18.802  0.00  0.00    +0.000 A 
ATOM     11  N   UNL     1       7.281   5.197  20.070  0.00  0.00    +0.000 N 
ATOM     12  C   UNL     1       6.403   5.247  17.765  0.00  0.00    +0.000 A 
ATOM     13  H   UNL     1       8.089   9.047  18.539  0.00  0.00    +0.000 HD
ATOM     14  H   UNL     1       7.092   9.169  17.197  0.00  0.00    +0.000 HD
ATOM     15  H   UNL     1       7.885   5.803  20.618  0.00  0.00    +0.000 HD
ATOM     16  H   UNL     1       6.350   5.157  20.473  0.00  0.00    +0.000 HD
ENDROOT
BRANCH   1  17
ATOM     17  C   UNL     1       4.545   4.069  19.145  0.00  0.00    +0.000 C 
BRANCH  17  18
ATOM     18  O   UNL     1       3.191   4.494  18.949  0.00  0.00    +0.000 OA
BRANCH  18  23
ATOM     19  C   UNL     1       1.137   9.748  19.071  0.00  0.00    +0.000 C 
ATOM     20  C   UNL     1       1.831   8.419  19.136  0.00  0.00    +0.000 A 
ATOM     21  C   UNL     1       2.465   7.907  18.003  0.00  0.00    +0.000 A 
ATOM     22  C   UNL     1       2.945   6.599  18.006  0.00  0.00    +0.000 A 
ATOM     23  C   UNL     1       2.821   5.784  19.136  0.00  0.00    +0.000 A 
ATOM     24  C   UNL     1       2.245   6.307  20.288  0.00  0.00    +0.000 A 
ATOM     25  C   UNL     1       1.745   7.616  20.284  0.00  0.00    +0.000 A 
ENDBRANCH  18  23
ENDBRANCH  17  18
ENDBRANCH   1  17
TORSDOF 3
ENDMDL
MODEL 6
REMARK VINA RESULT:      -7.6      3.522      6.258
REMARK  Name = 
REMARK  4 active torsions:
REMARK  status: ('A' for Active; 'I' for Inactive)
REMARK    1  A    between atoms: C_1  and  C_2
REMARK    2  A    between atoms: C_5  and  O_6
REMARK    3  A    between atoms: O_6  and  C_7
REMARK    4  A    between atoms: C_7  and  C_8
REMARK                            x       y       z     vdW  Elec       q    Type
REMARK                         _______ _______ _______ _____ _____    ______ ____
ROOT
ATOM      1  C   UNL     1       2.575   6.577  19.252  0.00  0.00    +0.000 A 
ATOM      2  C   UNL     1       3.069   7.442  18.262  0.00  0.00    +0.000 A 
ATOM      3  C   UNL     1       3.977   6.985  17.312  0.00  0.00    +0.000 A 
ATOM      4  C   UNL     1       4.472   5.690  17.416  0.00  0.00    +0.000 A 
ATOM      5  C   UNL     1       3.996   4.810  18.379  0.00  0.00    +0.000 A 
ATOM      6  N   UNL     1       4.633   3.653  18.548  0.00  0.00    +0.000 NA
ATOM      7  C   UNL     1       4.146   2.820  19.465  0.00  0.00    +0.000 A 
ATOM      8  N   UNL     1       5.029   2.006  20.159  0.00  0.00    +0.000 N 
ATOM      9  N   UNL     1       2.960   2.927  20.038  0.00  0.00    +0.000 NA
ATOM     10  C   UNL     1       2.365   4.110  19.900  0.00  0.00    +0.000 A 
ATOM     11  N   UNL     1       1.116   4.174  20.523  0.00  0.00    +0.000 N 
ATOM     12  C   UNL     1       2.928   5.191  19.194  0.00  0.00    +0.000 A 
ATOM     13  H   UNL     1       4.496   1.684  20.962  0.00  0.00    +0.000 HD
ATOM     14  H   UNL     1       5.773   2.636  20.443  0.00  0.00    +0.000 HD
ATOM     15  H   UNL     1       0.981   3.277  20.981  0.00  0.00    +0.000 HD
ATOM     16  H   UNL     1       1.131   4.927  21.204  0.00  0.00    +0.000 HD
ENDROOT
BRANCH   1  17
ATOM     17  C   UNL     1       1.830   7.190  20.433  0.00  0.00    +0.000 C 
BRANCH  17  18
ATOM     18  O   UNL     1       1.456   8.531  20.095  0.00  0.00    +0.000 OA
BRANCH  18  23
ATOM     19  C   UNL     1      -1.943  11.814  23.177  0.00  0.00    +0.000 C 
ATOM     20  C   UNL     1      -0.898  11.012  22.460  0.00  0.00    +0.000 A 
ATOM     21  C   UNL     1      -0.505  11.372  21.171  0.00  0.00    +0.000 A 
ATOM     22  C   UNL     1       0.323  10.526  20.435  0.00  0.00    +0.000 A 
ATOM     23  C   UNL     1       0.790   9.321  20.971  0.00  0.00    +0.000 A 
ATOM     24  C   UNL     1       0.451   8.986  22.276  0.00  0.00    +0.000 A 
ATOM     25  C   UNL     1      -0.395   9.825  23.014  0.00  0.00    +0.000 A 
ENDBRANCH  18  23
ENDBRANCH  17  18
ENDBRANCH   1  17
TORSDOF 3
ENDMDL
MODEL 7
REMARK VINA RESULT:      -7.6      2.684      3.749
REMARK  Name = 
REMARK  4 active torsions:
REMARK  status: ('A' for Active; 'I' for Inactive)
REMARK    1  A    between atoms: C_1  and  C_2
REMARK    2  A    between atoms: C_5  and  O_6
REMARK    3  A    between atoms: O_6  and  C_7
REMARK    4  A    between atoms: C_7  and  C_8
REMARK                            x       y       z     vdW  Elec       q    Type
REMARK                         _______ _______ _______ _____ _____    ______ ____
ROOT
ATOM      1  C   UNL     1       4.871   5.720  17.746  0.00  0.00    +0.000 A 
ATOM      2  C   UNL     1       4.490   7.045  17.475  0.00  0.00    +0.000 A 
ATOM      3  C   UNL     1       3.186   7.467  17.713  0.00  0.00    +0.000 A 
ATOM      4  C   UNL     1       2.236   6.538  18.120  0.00  0.00    +0.000 A 
ATOM      5  C   UNL     1       2.586   5.224  18.402  0.00  0.00    +0.000 A 
ATOM      6  N   UNL     1       1.611   4.340  18.607  0.00  0.00    +0.000 NA
ATOM      7  C   UNL     1       1.973   3.092  18.894  0.00  0.00    +0.000 A 
ATOM      8  N   UNL     1       1.162   2.051  18.466  0.00  0.00    +0.000 N 
ATOM      9  N   UNL     1       3.192   2.711  19.234  0.00  0.00    +0.000 NA
ATOM     10  C   UNL     1       4.157   3.590  18.971  0.00  0.00    +0.000 A 
ATOM     11  N   UNL     1       5.426   3.142  19.348  0.00  0.00    +0.000 N 
ATOM     12  C   UNL     1       3.930   4.848  18.379  0.00  0.00    +0.000 A 
ATOM     13  H   UNL     1       1.753   1.226  18.540  0.00  0.00    +0.000 HD
ATOM     14  H   UNL     1       0.969   2.274  17.493  0.00  0.00    +0.000 HD
ATOM     15  H   UNL     1       5.299   2.200  19.708  0.00  0.00    +0.000 HD
ATOM     16  H   UNL     1       6.025   3.136  18.527  0.00  0.00    +0.000 HD
ENDROOT
BRANCH   1  17
ATOM     17  C   UNL     1       6.208   5.232  17.194  0.00  0.00    +0.000 C 
BRANCH  17  18
ATOM     18  O   UNL     1       6.425   5.836  15.914  0.00  0.00    +0.000 OA
BRANCH  18  23
ATOM     19  C   UNL     1       6.505   2.525  11.346  0.00  0.00    +0.000 C 
ATOM     20  C   UNL     1       6.369   3.518  12.462  0.00  0.00    +0.000 A 
ATOM     21  C   UNL     1       7.419   4.390  12.752  0.00  0.00    +0.000 A 
ATOM     22  C   UNL     1       7.369   5.180  13.899  0.00  0.00    +0.000 A 
ATOM     23  C   UNL     1       6.272   5.134  14.765  0.00  0.00    +0.000 A 
ATOM     24  C   UNL     1       5.196   4.313  14.450  0.00  0.00    +0.000 A 
ATOM     25  C   UNL     1       5.249   3.503  13.307  0.00  0.00    +0.000 A 
ENDBRANCH  18  23
ENDBRANCH  17  18
ENDBRANCH   1  17
TORSDOF 3
ENDMDL
MODEL 8
REMARK VINA RESULT:      -7.6      1.939      2.819
REMARK  Name = 
REMARK  4 active torsions:
REMARK  status: ('A' for Active; 'I' for Inactive)
REMARK    1  A    between atoms: C_1  and  C_2
REMARK    2  A    between atoms: C_5  and  O_6
REMARK    3  A    between atoms: O_6  and  C_7
REMARK    4  A    between atoms: C_7  and  C_8
REMARK                            x       y       z     vdW  Elec       q    Type
REMARK                         _______ _______ _______ _____ _____    ______ ____
ROOT
ATOM      1  C   UNL     1       3.653   4.862  18.090  0.00  0.00    +0.000 A 
ATOM      2  C   UNL     1       3.382   6.213  17.812  0.00  0.00    +0.000 A 
ATOM      3  C   UNL     1       2.727   7.009  18.746  0.00  0.00    +0.000 A 
ATOM      4  C   UNL     1       2.249   6.428  19.915  0.00  0.00    +0.000 A 
ATOM      5  C   UNL     1       2.509   5.098  20.219  0.00  0.00    +0.000 A 
ATOM      6  N   UNL     1       1.874   4.551  21.254  0.00  0.00    +0.000 NA
ATOM      7  C   UNL     1       2.155   3.281  21.537  0.00  0.00    +0.000 A 
ATOM      8  N   UNL     1       1.153   2.482  22.067  0.00  0.00    +0.000 N 
ATOM      9  N   UNL     1       3.175   2.599  21.045  0.00  0.00    +0.000 NA
ATOM     10  C   UNL     1       3.760   3.139  19.978  0.00  0.00    +0.000 A 
ATOM     11  N   UNL     1       4.831   2.382  19.496  0.00  0.00    +0.000 N 
ATOM     12  C   UNL     1       3.352   4.354  19.393  0.00  0.00    +0.000 A 
ATOM     13  H   UNL     1       1.494   1.533  21.936  0.00  0.00    +0.000 HD
ATOM     14  H   UNL     1       0.350   2.666  21.471  0.00  0.00    +0.000 HD
ATOM     15  H   UNL     1       4.876   1.550  20.079  0.00  0.00    +0.000 HD
ATOM     16  H   UNL     1       4.644   2.134  18.529  0.00  0.00    +0.000 HD
ENDROOT
BRANCH   1  17
ATOM     17  C   UNL     1       4.094   3.968  16.935  0.00  0.00    +0.000 C 
BRANCH  17  18
ATOM     18  O   UNL     1       5.522   4.024  16.829  0.00  0.00    +0.000 OA
BRANCH  18  23
ATOM     19  C   UNL     1       7.337   4.839  11.549  0.00  0.00    +0.000 C 
ATOM     20  C   UNL     1       7.001   4.504  12.973  0.00  0.00    +0.000 A 
ATOM     21  C   UNL     1       5.929   3.657  13.255  0.00  0.00    +0.000 A 
ATOM     22  C   UNL     1       5.499   3.495  14.571  0.00  0.00    +0.000 A 
ATOM     23  C   UNL     1       6.136   4.153  15.628  0.00  0.00    +0.000 A 
ATOM     24  C   UNL     1       7.243   4.950  15.360  0.00  0.00    +0.000 A 
ATOM     25  C   UNL     1       7.667   5.130  14.037  0.00  0.00    +0.000 A 
ENDBRANCH  18  23
ENDBRANCH  17  18
ENDBRANCH   1  17
TORSDOF 3
ENDMDL
MODEL 9
REMARK VINA RESULT:      -7.6      3.338      6.161
REMARK  Name = 
REMARK  4 active torsions:
REMARK  status: ('A' for Active; 'I' for Inactive)
REMARK    1  A    between atoms: C_1  and  C_2
REMARK    2  A    between atoms: C_5  and  O_6
REMARK    3  A    between atoms: O_6  and  C_7
REMARK    4  A    between atoms: C_7  and  C_8
REMARK                            x       y       z     vdW  Elec       q    Type
REMARK                         _______ _______ _______ _____ _____    ______ ____
ROOT
ATOM      1  C   UNL     1       2.614   6.230  19.238  0.00  0.00    +0.000 A 
ATOM      2  C   UNL     1       3.104   7.060  18.216  0.00  0.00    +0.000 A 
ATOM      3  C   UNL     1       4.039   6.581  17.303  0.00  0.00    +0.000 A 
ATOM      4  C   UNL     1       4.563   5.305  17.477  0.00  0.00    +0.000 A 
ATOM      5  C   UNL     1       4.092   4.460  18.473  0.00  0.00    +0.000 A 
ATOM      6  N   UNL     1       4.754   3.329  18.707  0.00  0.00    +0.000 NA
ATOM      7  C   UNL     1       4.271   2.528  19.654  0.00  0.00    +0.000 A 
ATOM      8  N   UNL     1       5.161   1.769  20.400  0.00  0.00    +0.000 N 
ATOM      9  N   UNL     1       3.072   2.632  20.203  0.00  0.00    +0.000 NA
ATOM     10  C   UNL     1       2.452   3.792  19.999  0.00  0.00    +0.000 A 
ATOM     11  N   UNL     1       1.191   3.855  20.597  0.00  0.00    +0.000 N 
ATOM     12  C   UNL     1       3.001   4.852  19.251  0.00  0.00    +0.000 A 
ATOM     13  H   UNL     1       4.622   1.473  21.209  0.00  0.00    +0.000 HD
ATOM     14  H   UNL     1       5.884   2.431  20.667  0.00  0.00    +0.000 HD
ATOM     15  H   UNL     1       1.070   2.976  21.095  0.00  0.00    +0.000 HD
ATOM     16  H   UNL     1       1.176   4.639  21.243  0.00  0.00    +0.000 HD
ENDROOT
BRANCH   1  17
ATOM     17  C   UNL     1       1.833   6.880  20.377  0.00  0.00    +0.000 C 
BRANCH  17  18
ATOM     18  O   UNL     1       1.801   8.296  20.163  0.00  0.00    +0.000 OA
BRANCH  18  23
ATOM     19  C   UNL     1      -1.468  11.814  23.124  0.00  0.00    +0.000 C 
ATOM     20  C   UNL     1      -0.758  10.790  22.287  0.00  0.00    +0.000 A 
ATOM     21  C   UNL     1      -0.056   9.754  22.901  0.00  0.00    +0.000 A 
ATOM     22  C   UNL     1       0.754   8.916  22.138  0.00  0.00    +0.000 A 
ATOM     23  C   UNL     1       0.866   9.079  20.753  0.00  0.00    +0.000 A 
ATOM     24  C   UNL     1       0.121  10.071  20.127  0.00  0.00    +0.000 A 
ATOM     25  C   UNL     1      -0.681  10.928  20.893  0.00  0.00    +0.000 A 
ENDBRANCH  18  23
ENDBRANCH  17  18
ENDBRANCH   1  17
TORSDOF 3
ENDMDL
