MODEL 1
REMARK VINA RESULT:      -7.6      0.000      0.000
REMARK  Name = 
REMARK  3 active torsions:
REMARK  status: ('A' for Active; 'I' for Inactive)
REMARK    1  A    between atoms: N_7  and  C_8
REMARK    2  A    between atoms: C_12  and  S_13
REMARK    3  A    between atoms: S_13  and  N_16
REMARK                            x       y       z     vdW  Elec       q    Type
REMARK                         _______ _______ _______ _____ _____    ______ ____
ROOT
ATOM      1  C   UNL     1       1.200   9.006  19.956  0.00  0.00    +0.000 A 
ATOM      2  C   UNL     1       1.319   9.491  18.641  0.00  0.00    +0.000 A 
ATOM      3  C   UNL     1       2.040   8.786  17.677  0.00  0.00    +0.000 A 
ATOM      4  C   UNL     1       2.632   7.569  18.006  0.00  0.00    +0.000 A 
ATOM      5  C   UNL     1       2.483   7.050  19.296  0.00  0.00    +0.000 A 
ATOM      6  C   UNL     1       1.777   7.762  20.269  0.00  0.00    +0.000 A 
ENDROOT
BRANCH   1  13
ATOM      7  O   UNL     1      -0.740   8.143  22.025  0.00  0.00    +0.000 OA
ATOM      8  C   UNL     1      -0.380   9.301  21.845  0.00  0.00    +0.000 C 
ATOM      9  C   UNL     1      -0.911  10.434  22.670  0.00  0.00    +0.000 C 
ATOM     10  C   UNL     1      -0.187  11.655  22.159  0.00  0.00    +0.000 C 
ATOM     11  C   UNL     1       0.707  11.148  21.070  0.00  0.00    +0.000 C 
ATOM     12  O   UNL     1       1.399  11.898  20.390  0.00  0.00    +0.000 OA
ATOM     13  N   UNL     1       0.550   9.786  20.952  0.00  0.00    +0.000 N 
ENDBRANCH   1  13
BRANCH   5  14
ATOM     14  S   UNL     1       3.187   5.439  19.585  0.00  0.00    +0.000 S 
ATOM     15  O   UNL     1       4.620   5.638  19.568  0.00  0.00    +0.000 OA
ATOM     16  O   UNL     1       2.528   4.907  20.758  0.00  0.00    +0.000 OA
BRANCH  14  17
ATOM     17  N   UNL     1       2.793   4.454  18.248  0.00  0.00    +0.000 NA
ATOM     18  C   UNL     1       1.410   3.869  18.209  0.00  0.00    +0.000 C 
ATOM     19  C   UNL     1       1.279   2.640  19.124  0.00  0.00    +0.000 C 
ATOM     20  O   UNL     1       2.274   1.647  18.838  0.00  0.00    +0.000 OA
ATOM     21  C   UNL     1       3.601   2.185  18.935  0.00  0.00    +0.000 C 
ATOM     22  C   UNL     1       3.786   3.359  17.969  0.00  0.00    +0.000 C 
ENDBRANCH  14  17
ENDBRANCH   5  14
TORSDOF 3
ENDMDL
MODEL 2
REMARK VINA RESULT:      -7.5      0.067      1.619
REMARK  Name = 
REMARK  3 active torsions:
REMARK  status: ('A' for Active; 'I' for Inactive)
REMARK    1  A    between atoms: N_7  and  C_8
REMARK    2  A    between atoms: C_12  and  S_13
REMARK    3  A    between atoms: S_13  and  N_16
REMARK                            x       y       z     vdW  Elec       q    Type
REMARK                         _______ _______ _______ _____ _____    ______ ____
ROOT
ATOM      1  C   UNL     1       1.173   9.013  19.890  0.00  0.00    +0.000 A 
ATOM      2  C   UNL     1       1.354   9.504  18.584  0.00  0.00    +0.000 A 
ATOM      3  C   UNL     1       2.118   8.801  17.651  0.00  0.00    +0.000 A 
ATOM      4  C   UNL     1       2.691   7.582  18.001  0.00  0.00    +0.000 A 
ATOM      5  C   UNL     1       2.482   7.057  19.281  0.00  0.00    +0.000 A 
ATOM      6  C   UNL     1       1.732   7.766  20.223  0.00  0.00    +0.000 A 
ENDROOT
BRANCH   1  13
ATOM      7  O   UNL     1       1.346  11.925  20.407  0.00  0.00    +0.000 OA
ATOM      8  C   UNL     1       0.663  11.141  21.056  0.00  0.00    +0.000 C 
ATOM      9  C   UNL     1      -0.167  11.587  22.220  0.00  0.00    +0.000 C 
ATOM     10  C   UNL     1      -0.869  10.338  22.695  0.00  0.00    +0.000 C 
ATOM     11  C   UNL     1      -0.391   9.255  21.779  0.00  0.00    +0.000 C 
ATOM     12  O   UNL     1      -0.720   8.082  21.926  0.00  0.00    +0.000 OA
ATOM     13  N   UNL     1       0.479   9.790  20.857  0.00  0.00    +0.000 N 
ENDBRANCH   1  13
BRANCH   5  14
ATOM     14  S   UNL     1       3.169   5.443  19.595  0.00  0.00    +0.000 S 
ATOM     15  O   UNL     1       4.603   5.632  19.603  0.00  0.00    +0.000 OA
ATOM     16  O   UNL     1       2.484   4.925  20.759  0.00  0.00    +0.000 OA
BRANCH  14  17
ATOM     17  N   UNL     1       2.793   4.452  18.257  0.00  0.00    +0.000 NA
ATOM     18  C   UNL     1       1.422   3.841  18.218  0.00  0.00    +0.000 C 
ATOM     19  C   UNL     1       1.313   2.610  19.133  0.00  0.00    +0.000 C 
ATOM     20  O   UNL     1       2.327   1.635  18.846  0.00  0.00    +0.000 OA
ATOM     21  C   UNL     1       3.643   2.198  18.944  0.00  0.00    +0.000 C 
ATOM     22  C   UNL     1       3.807   3.375  17.979  0.00  0.00    +0.000 C 
ENDBRANCH  14  17
ENDBRANCH   5  14
TORSDOF 3
ENDMDL
MODEL 3
REMARK VINA RESULT:      -7.5      4.696      7.859
REMARK  Name = 
REMARK  3 active torsions:
REMARK  status: ('A' for Active; 'I' for Inactive)
REMARK    1  A    between atoms: N_7  and  C_8
REMARK    2  A    between atoms: C_12  and  S_13
REMARK    3  A    between atoms: S_13  and  N_16
REMARK                            x       y       z     vdW  Elec       q    Type
REMARK                         _______ _______ _______ _____ _____    ______ ____
ROOT
ATOM      1  C   UNL     1       5.586   5.039  15.175  0.00  0.00    +0.000 A 
ATOM      2  C   UNL     1       5.339   6.411  15.368  0.00  0.00    +0.000 A 
ATOM      3  C   UNL     1       4.658   6.867  16.497  0.00  0.00    +0.000 A 
ATOM      4  C   UNL     1       4.236   5.960  17.466  0.00  0.00    +0.000 A 
ATOM      5  C   UNL     1       4.515   4.598  17.312  0.00  0.00    +0.000 A 
ATOM      6  C   UNL     1       5.181   4.136  16.175  0.00  0.00    +0.000 A 
ENDROOT
BRANCH   1  13
ATOM      7  O   UNL     1       8.256   5.694  14.066  0.00  0.00    +0.000 OA
ATOM      8  C   UNL     1       7.425   4.984  13.512  0.00  0.00    +0.000 C 
ATOM      9  C   UNL     1       7.678   4.367  12.170  0.00  0.00    +0.000 C 
ATOM     10  C   UNL     1       6.442   3.550  11.883  0.00  0.00    +0.000 C 
ATOM     11  C   UNL     1       5.557   3.755  13.072  0.00  0.00    +0.000 C 
ATOM     12  O   UNL     1       4.429   3.278  13.138  0.00  0.00    +0.000 OA
ATOM     13  N   UNL     1       6.189   4.582  13.971  0.00  0.00    +0.000 N 
ENDBRANCH   1  13
BRANCH   5  14
ATOM     14  S   UNL     1       4.027   3.536  18.657  0.00  0.00    +0.000 S 
ATOM     15  O   UNL     1       3.475   2.355  18.030  0.00  0.00    +0.000 OA
ATOM     16  O   UNL     1       5.169   3.440  19.539  0.00  0.00    +0.000 OA
BRANCH  14  17
ATOM     17  N   UNL     1       2.757   4.310  19.494  0.00  0.00    +0.000 NA
ATOM     18  C   UNL     1       2.794   4.261  20.995  0.00  0.00    +0.000 C 
ATOM     19  C   UNL     1       2.299   2.911  21.539  0.00  0.00    +0.000 C 
ATOM     20  O   UNL     1       0.998   2.571  21.037  0.00  0.00    +0.000 OA
ATOM     21  C   UNL     1       0.973   2.555  19.603  0.00  0.00    +0.000 C 
ATOM     22  C   UNL     1       1.380   3.917  19.034  0.00  0.00    +0.000 C 
ENDBRANCH  14  17
ENDBRANCH   5  14
TORSDOF 3
ENDMDL
MODEL 4
REMARK VINA RESULT:      -7.5      2.712      3.848
REMARK  Name = 
REMARK  3 active torsions:
REMARK  status: ('A' for Active; 'I' for Inactive)
REMARK    1  A    between atoms: N_7  and  C_8
REMARK    2  A    between atoms: C_12  and  S_13
REMARK    3  A    between atoms: S_13  and  N_16
REMARK                            x       y       z     vdW  Elec       q    Type
REMARK                         _______ _______ _______ _____ _____    ______ ____
ROOT
ATOM      1  C   UNL     1       1.958   6.904  19.993  0.00  0.00    +0.000 A 
ATOM      2  C   UNL     1       1.204   6.023  20.790  0.00  0.00    +0.000 A 
ATOM      3  C   UNL     1       1.457   4.650  20.779  0.00  0.00    +0.000 A 
ATOM      4  C   UNL     1       2.486   4.140  19.992  0.00  0.00    +0.000 A 
ATOM      5  C   UNL     1       3.274   5.009  19.230  0.00  0.00    +0.000 A 
ATOM      6  C   UNL     1       3.013   6.381  19.225  0.00  0.00    +0.000 A 
ENDROOT
BRANCH   1  13
ATOM      7  O   UNL     1       1.277   8.745  22.214  0.00  0.00    +0.000 OA
ATOM      8  C   UNL     1       1.268   9.051  21.027  0.00  0.00    +0.000 C 
ATOM      9  C   UNL     1       0.889  10.424  20.564  0.00  0.00    +0.000 C 
ATOM     10  C   UNL     1       1.054  10.385  19.064  0.00  0.00    +0.000 C 
ATOM     11  C   UNL     1       1.510   8.991  18.761  0.00  0.00    +0.000 C 
ATOM     12  O   UNL     1       1.680   8.594  17.614  0.00  0.00    +0.000 OA
ATOM     13  N   UNL     1       1.620   8.284  19.937  0.00  0.00    +0.000 N 
ENDBRANCH   1  13
BRANCH   5  14
ATOM     14  S   UNL     1       4.631   4.270  18.341  0.00  0.00    +0.000 S 
ATOM     15  O   UNL     1       5.498   3.716  19.357  0.00  0.00    +0.000 OA
ATOM     16  O   UNL     1       4.043   3.422  17.327  0.00  0.00    +0.000 OA
BRANCH  14  17
ATOM     17  N   UNL     1       5.488   5.527  17.568  0.00  0.00    +0.000 NA
ATOM     18  C   UNL     1       5.397   5.602  16.071  0.00  0.00    +0.000 C 
ATOM     19  C   UNL     1       6.321   4.581  15.387  0.00  0.00    +0.000 C 
ATOM     20  O   UNL     1       7.680   4.699  15.834  0.00  0.00    +0.000 OA
ATOM     21  C   UNL     1       7.781   4.565  17.259  0.00  0.00    +0.000 C 
ATOM     22  C   UNL     1       6.935   5.628  17.968  0.00  0.00    +0.000 C 
ENDBRANCH  14  17
ENDBRANCH   5  14
TORSDOF 3
ENDMDL
MODEL 5
REMARK VINA RESULT:      -7.4      4.669      7.730
REMARK  Name = 
REMARK  3 active torsions:
REMARK  status: ('A' for Active; 'I' for Inactive)
REMARK    1  A    between atoms: N_7  and  C_8
REMARK    2  A    between atoms: C_12  and  S_13
REMARK    3  A    between atoms: S_13  and  N_16
REMARK                            x       y       z     vdW  Elec       q    Type
REMARK                         _______ _______ _______ _____ _____    ______ ____
ROOT
ATOM      1  C   UNL     1       5.542   5.093  15.137  0.00  0.00    +0.000 A 
ATOM      2  C   UNL     1       5.335   6.465  15.371  0.00  0.00    +0.000 A 
ATOM      3  C   UNL     1       4.676   6.907  16.519  0.00  0.00    +0.000 A 
ATOM      4  C   UNL     1       4.235   5.984  17.464  0.00  0.00    +0.000 A 
ATOM      5  C   UNL     1       4.473   4.620  17.268  0.00  0.00    +0.000 A 
ATOM      6  C   UNL     1       5.118   4.173  16.112  0.00  0.00    +0.000 A 
ENDROOT
BRANCH   1  13
ATOM      7  O   UNL     1       4.397   3.307  13.068  0.00  0.00    +0.000 OA
ATOM      8  C   UNL     1       5.527   3.779  13.033  0.00  0.00    +0.000 C 
ATOM      9  C   UNL     1       6.478   3.481  11.915  0.00  0.00    +0.000 C 
ATOM     10  C   UNL     1       7.715   4.284  12.236  0.00  0.00    +0.000 C 
ATOM     11  C   UNL     1       7.399   4.985  13.520  0.00  0.00    +0.000 C 
ATOM     12  O   UNL     1       8.222   5.681  14.105  0.00  0.00    +0.000 OA
ATOM     13  N   UNL     1       6.123   4.655  13.915  0.00  0.00    +0.000 N 
ENDBRANCH   1  13
BRANCH   5  14
ATOM     14  S   UNL     1       3.965   3.532  18.585  0.00  0.00    +0.000 S 
ATOM     15  O   UNL     1       3.441   2.355  17.928  0.00  0.00    +0.000 OA
ATOM     16  O   UNL     1       5.087   3.435  19.493  0.00  0.00    +0.000 OA
BRANCH  14  17
ATOM     17  N   UNL     1       2.667   4.280  19.403  0.00  0.00    +0.000 NA
ATOM     18  C   UNL     1       2.740   4.336  20.901  0.00  0.00    +0.000 C 
ATOM     19  C   UNL     1       2.346   2.997  21.547  0.00  0.00    +0.000 C 
ATOM     20  O   UNL     1       1.058   2.544  21.104  0.00  0.00    +0.000 OA
ATOM     21  C   UNL     1       1.003   2.428  19.675  0.00  0.00    +0.000 C 
ATOM     22  C   UNL     1       1.308   3.772  19.006  0.00  0.00    +0.000 C 
ENDBRANCH  14  17
ENDBRANCH   5  14
TORSDOF 3
ENDMDL
MODEL 6
REMARK VINA RESULT:      -7.4      2.651      3.975
REMARK  Name = 
REMARK  3 active torsions:
REMARK  status: ('A' for Active; 'I' for Inactive)
REMARK    1  A    between atoms: N_7  and  C_8
REMARK    2  A    between atoms: C_12  and  S_13
REMARK    3  A    between atoms: S_13  and  N_16
REMARK                            x       y       z     vdW  Elec       q    Type
REMARK                         _______ _______ _______ _____ _____    ______ ____
ROOT
ATOM      1  C   UNL     1       1.910   7.130  20.096  0.00  0.00    +0.000 A 
ATOM      2  C   UNL     1       1.212   6.157  20.835  0.00  0.00    +0.000 A 
ATOM      3  C   UNL     1       1.594   4.814  20.796  0.00  0.00    +0.000 A 
ATOM      4  C   UNL     1       2.696   4.428  20.037  0.00  0.00    +0.000 A 
ATOM      5  C   UNL     1       3.428   5.391  19.334  0.00  0.00    +0.000 A 
ATOM      6  C   UNL     1       3.038   6.732  19.357  0.00  0.00    +0.000 A 
ENDROOT
BRANCH   1  13
ATOM      7  O   UNL     1       1.413   8.873  17.751  0.00  0.00    +0.000 OA
ATOM      8  C   UNL     1       1.291   9.224  18.919  0.00  0.00    +0.000 C 
ATOM      9  C   UNL     1       0.878  10.615  19.291  0.00  0.00    +0.000 C 
ATOM     10  C   UNL     1       0.808  10.606  20.799  0.00  0.00    +0.000 C 
ATOM     11  C   UNL     1       1.191   9.214  21.196  0.00  0.00    +0.000 C 
ATOM     12  O   UNL     1       1.299   8.877  22.370  0.00  0.00    +0.000 OA
ATOM     13  N   UNL     1       1.446   8.474  20.065  0.00  0.00    +0.000 N 
ENDBRANCH   1  13
BRANCH   5  14
ATOM     14  S   UNL     1       4.881   4.811  18.481  0.00  0.00    +0.000 S 
ATOM     15  O   UNL     1       5.997   5.222  19.303  0.00  0.00    +0.000 OA
ATOM     16  O   UNL     1       4.653   3.413  18.188  0.00  0.00    +0.000 OA
BRANCH  14  17
ATOM     17  N   UNL     1       4.991   5.664  17.007  0.00  0.00    +0.000 NA
ATOM     18  C   UNL     1       5.373   4.879  15.785  0.00  0.00    +0.000 C 
ATOM     19  C   UNL     1       6.887   4.616  15.721  0.00  0.00    +0.000 C 
ATOM     20  O   UNL     1       7.649   5.828  15.822  0.00  0.00    +0.000 OA
ATOM     21  C   UNL     1       7.333   6.552  17.020  0.00  0.00    +0.000 C 
ATOM     22  C   UNL     1       5.843   6.902  17.069  0.00  0.00    +0.000 C 
ENDBRANCH  14  17
ENDBRANCH   5  14
TORSDOF 3
ENDMDL
MODEL 7
REMARK VINA RESULT:      -7.4      1.103      1.267
REMARK  Name = 
REMARK  3 active torsions:
REMARK  status: ('A' for Active; 'I' for Inactive)
REMARK    1  A    between atoms: N_7  and  C_8
REMARK    2  A    between atoms: C_12  and  S_13
REMARK    3  A    between atoms: S_13  and  N_16
REMARK                            x       y       z     vdW  Elec       q    Type
REMARK                         _______ _______ _______ _____ _____    ______ ____
ROOT
ATOM      1  C   UNL     1       1.167   9.043  19.693  0.00  0.00    +0.000 A 
ATOM      2  C   UNL     1       1.551   9.557  18.441  0.00  0.00    +0.000 A 
ATOM      3  C   UNL     1       2.424   8.851  17.612  0.00  0.00    +0.000 A 
ATOM      4  C   UNL     1       2.906   7.607  18.010  0.00  0.00    +0.000 A 
ATOM      5  C   UNL     1       2.497   7.061  19.231  0.00  0.00    +0.000 A 
ATOM      6  C   UNL     1       1.637   7.773  20.072  0.00  0.00    +0.000 A 
ENDROOT
BRANCH   1  13
ATOM      7  O   UNL     1      -1.295  10.577  19.086  0.00  0.00    +0.000 OA
ATOM      8  C   UNL     1      -0.747  10.543  20.182  0.00  0.00    +0.000 C 
ATOM      9  C   UNL     1      -1.274  11.308  21.357  0.00  0.00    +0.000 C 
ATOM     10  C   UNL     1      -0.346  10.956  22.494  0.00  0.00    +0.000 C 
ATOM     11  C   UNL     1       0.658  10.019  21.898  0.00  0.00    +0.000 C 
ATOM     12  O   UNL     1       1.608   9.585  22.541  0.00  0.00    +0.000 OA
ATOM     13  N   UNL     1       0.361   9.821  20.570  0.00  0.00    +0.000 N 
ENDBRANCH   1  13
BRANCH   5  14
ATOM     14  S   UNL     1       3.085   5.420  19.600  0.00  0.00    +0.000 S 
ATOM     15  O   UNL     1       4.526   5.532  19.654  0.00  0.00    +0.000 OA
ATOM     16  O   UNL     1       2.335   4.964  20.750  0.00  0.00    +0.000 OA
BRANCH  14  17
ATOM     17  N   UNL     1       2.700   4.421  18.270  0.00  0.00    +0.000 NA
ATOM     18  C   UNL     1       1.342   3.781  18.262  0.00  0.00    +0.000 C 
ATOM     19  C   UNL     1       1.282   2.547  19.177  0.00  0.00    +0.000 C 
ATOM     20  O   UNL     1       2.310   1.595  18.867  0.00  0.00    +0.000 OA
ATOM     21  C   UNL     1       3.615   2.186  18.935  0.00  0.00    +0.000 C 
ATOM     22  C   UNL     1       3.730   3.368  17.967  0.00  0.00    +0.000 C 
ENDBRANCH  14  17
ENDBRANCH   5  14
TORSDOF 3
ENDMDL
MODEL 8
REMARK VINA RESULT:      -7.4      1.111      1.111
REMARK  Name = 
REMARK  3 active torsions:
REMARK  status: ('A' for Active; 'I' for Inactive)
REMARK    1  A    between atoms: N_7  and  C_8
REMARK    2  A    between atoms: C_12  and  S_13
REMARK    3  A    between atoms: S_13  and  N_16
REMARK                            x       y       z     vdW  Elec       q    Type
REMARK                         _______ _______ _______ _____ _____    ______ ____
ROOT
ATOM      1  C   UNL     1       1.077   9.223  19.796  0.00  0.00    +0.000 A 
ATOM      2  C   UNL     1       1.476   9.705  18.536  0.00  0.00    +0.000 A 
ATOM      3  C   UNL     1       2.301   8.946  17.704  0.00  0.00    +0.000 A 
ATOM      4  C   UNL     1       2.719   7.681  18.109  0.00  0.00    +0.000 A 
ATOM      5  C   UNL     1       2.293   7.168  19.338  0.00  0.00    +0.000 A 
ATOM      6  C   UNL     1       1.481   7.932  20.181  0.00  0.00    +0.000 A 
ENDROOT
BRANCH   1  13
ATOM      7  O   UNL     1       1.364   9.578  22.724  0.00  0.00    +0.000 OA
ATOM      8  C   UNL     1       0.500  10.112  22.039  0.00  0.00    +0.000 C 
ATOM      9  C   UNL     1      -0.537  11.015  22.631  0.00  0.00    +0.000 C 
ATOM     10  C   UNL     1      -1.358  11.484  21.455  0.00  0.00    +0.000 C 
ATOM     11  C   UNL     1      -0.744  10.815  20.264  0.00  0.00    +0.000 C 
ATOM     12  O   UNL     1      -1.214  10.929  19.137  0.00  0.00    +0.000 OA
ATOM     13  N   UNL     1       0.323  10.050  20.673  0.00  0.00    +0.000 N 
ENDBRANCH   1  13
BRANCH   5  14
ATOM     14  S   UNL     1       2.795   5.500  19.715  0.00  0.00    +0.000 S 
ATOM     15  O   UNL     1       4.240   5.514  19.662  0.00  0.00    +0.000 OA
ATOM     16  O   UNL     1       2.102   5.128  20.929  0.00  0.00    +0.000 OA
BRANCH  14  17
ATOM     17  N   UNL     1       2.248   4.496  18.448  0.00  0.00    +0.000 NA
ATOM     18  C   UNL     1       1.203   3.471  18.786  0.00  0.00    +0.000 C 
ATOM     19  C   UNL     1       1.810   2.236  19.472  0.00  0.00    +0.000 C 
ATOM     20  O   UNL     1       2.877   1.661  18.703  0.00  0.00    +0.000 OA
ATOM     21  C   UNL     1       3.908   2.621  18.431  0.00  0.00    +0.000 C 
ATOM     22  C   UNL     1       3.346   3.825  17.670  0.00  0.00    +0.000 C 
ENDBRANCH  14  17
ENDBRANCH   5  14
TORSDOF 3
ENDMDL
MODEL 9
REMARK VINA RESULT:      -7.2      4.827      6.069
REMARK  Name = 
REMARK  3 active torsions:
REMARK  status: ('A' for Active; 'I' for Inactive)
REMARK    1  A    between atoms: N_7  and  C_8
REMARK    2  A    between atoms: C_12  and  S_13
REMARK    3  A    between atoms: S_13  and  N_16
REMARK                            x       y       z     vdW  Elec       q    Type
REMARK                         _______ _______ _______ _____ _____    ______ ____
ROOT
ATOM      1  C   UNL     1       5.857   5.395  17.434  0.00  0.00    +0.000 A 
ATOM      2  C   UNL     1       6.113   4.519  16.364  0.00  0.00    +0.000 A 
ATOM      3  C   UNL     1       5.177   3.557  15.983  0.00  0.00    +0.000 A 
ATOM      4  C   UNL     1       3.957   3.473  16.650  0.00  0.00    +0.000 A 
ATOM      5  C   UNL     1       3.668   4.367  17.686  0.00  0.00    +0.000 A 
ATOM      6  C   UNL     1       4.610   5.320  18.081  0.00  0.00    +0.000 A 
ENDROOT
BRANCH   1  13
ATOM      7  O   UNL     1       7.873   5.035  19.577  0.00  0.00    +0.000 OA
ATOM      8  C   UNL     1       7.729   6.060  18.920  0.00  0.00    +0.000 C 
ATOM      9  C   UNL     1       8.573   7.275  19.151  0.00  0.00    +0.000 C 
ATOM     10  C   UNL     1       8.105   8.272  18.119  0.00  0.00    +0.000 C 
ATOM     11  C   UNL     1       7.018   7.568  17.367  0.00  0.00    +0.000 C 
ATOM     12  O   UNL     1       6.368   8.123  16.487  0.00  0.00    +0.000 OA
ATOM     13  N   UNL     1       6.862   6.300  17.876  0.00  0.00    +0.000 N 
ENDBRANCH   1  13
BRANCH   5  14
ATOM     14  S   UNL     1       2.042   4.246  18.403  0.00  0.00    +0.000 S 
ATOM     15  O   UNL     1       2.019   5.225  19.468  0.00  0.00    +0.000 OA
ATOM     16  O   UNL     1       1.103   4.325  17.305  0.00  0.00    +0.000 OA
BRANCH  14  17
ATOM     17  N   UNL     1       1.907   2.705  19.123  0.00  0.00    +0.000 NA
ATOM     18  C   UNL     1       1.008   2.582  20.320  0.00  0.00    +0.000 C 
ATOM     19  C   UNL     1       1.684   3.098  21.602  0.00  0.00    +0.000 C 
ATOM     20  O   UNL     1       2.952   2.467  21.835  0.00  0.00    +0.000 OA
ATOM     21  C   UNL     1       3.837   2.635  20.718  0.00  0.00    +0.000 C 
ATOM     22  C   UNL     1       3.224   2.052  19.442  0.00  0.00    +0.000 C 
ENDBRANCH  14  17
ENDBRANCH   5  14
TORSDOF 3
ENDMDL
