MODEL 1
REMARK VINA RESULT:      -7.7      0.000      0.000
REMARK  Name = 
REMARK  11 active torsions:
REMARK  status: ('A' for Active; 'I' for Inactive)
REMARK    1  A    between atoms: C_1  and  O_2
REMARK    2  A    between atoms: O_2  and  C_3
REMARK    3  A    between atoms: C_7  and  C_8
REMARK    4  A    between atoms: N_10  and  C_11
REMARK    5  A    between atoms: N_10  and  C_24
REMARK    6  A    between atoms: C_11  and  C_12
REMARK    7  A    between atoms: C_12  and  N_13
REMARK    8  A    between atoms: C_16  and  O_17
REMARK    9  A    between atoms: O_17  and  C_18
REMARK   10  A    between atoms: C_18  and  C_19
REMARK   11  A    between atoms: C_19  and  O_21
REMARK                            x       y       z     vdW  Elec       q    Type
REMARK                         _______ _______ _______ _____ _____    ______ ____
ROOT
ATOM      1  C   UNL     1       2.248   6.601  19.767  0.00  0.00    +0.000 C 
ATOM      2  O   UNL     1       1.714   7.381  20.561  0.00  0.00    +0.000 OA
ATOM      3  N   UNL     1       2.839   7.085  18.574  0.00  0.00    +0.000 N 
ENDROOT
BRANCH   3   4
ATOM      4  C   UNL     1       3.577   6.290  17.670  0.00  0.00    +0.000 A 
ATOM      5  C   UNL     1       3.279   4.933  17.528  0.00  0.00    +0.000 A 
ATOM      6  C   UNL     1       4.077   4.125  16.724  0.00  0.00    +0.000 A 
ATOM      7  C   UNL     1       5.155   4.680  16.038  0.00  0.00    +0.000 A 
ATOM      8 CL   UNL     1       6.201   3.658  15.131  0.00  0.00    +0.000 Cl
ATOM      9  C   UNL     1       5.417   6.047  16.114  0.00  0.00    +0.000 A 
ATOM     10  C   UNL     1       4.619   6.858  16.923  0.00  0.00    +0.000 A 
ENDBRANCH   3   4
BRANCH   1  15
ATOM     11  C   UNL     1       2.928   2.993  21.012  0.00  0.00    +0.000 A 
ATOM     12  C   UNL     1       1.652   2.453  20.873  0.00  0.00    +0.000 A 
ATOM     13  C   UNL     1       0.614   3.246  20.410  0.00  0.00    +0.000 A 
ATOM     14  C   UNL     1       0.870   4.571  20.060  0.00  0.00    +0.000 A 
ATOM     15  C   UNL     1       2.151   5.155  20.198  0.00  0.00    +0.000 A 
ATOM     16  C   UNL     1       3.161   4.351  20.735  0.00  0.00    +0.000 A 
BRANCH  11  18
ATOM     17  C   UNL     1       4.862   1.740  20.520  0.00  0.00    +0.000 C 
ATOM     18  O   UNL     1       3.875   2.119  21.474  0.00  0.00    +0.000 OA
ENDBRANCH  11  18
ENDBRANCH   1  15
BRANCH   3  19
ATOM     19  C   UNL     1       2.730   8.527  18.150  0.00  0.00    +0.000 C 
BRANCH  19  20
ATOM     20  C   UNL     1       1.327   8.999  17.705  0.00  0.00    +0.000 C 
BRANCH  20  21
ATOM     21  N   UNL     1       0.744  10.275  18.190  0.00  0.00    +0.000 NA
ATOM     22  C   UNL     1      -0.381   9.897  19.082  0.00  0.00    +0.000 C 
ATOM     23  C   UNL     1      -1.095  11.096  19.695  0.00  0.00    +0.000 C 
ATOM     24  C   UNL     1      -0.098  11.993  20.429  0.00  0.00    +0.000 C 
ATOM     25  C   UNL     1       0.995  12.387  19.431  0.00  0.00    +0.000 C 
ATOM     26  C   UNL     1       1.706  11.140  18.877  0.00  0.00    +0.000 C 
BRANCH  24  27
ATOM     27  O   UNL     1       0.422  11.255  21.551  0.00  0.00    +0.000 OA
BRANCH  27  28
ATOM     28  C   UNL     1      -0.553  11.004  22.573  0.00  0.00    +0.000 C 
BRANCH  28  29
ATOM     29  C   UNL     1      -0.242   9.677  23.248  0.00  0.00    +0.000 C 
ATOM     30  O   UNL     1       0.547   9.541  24.170  0.00  0.00    +0.000 OA
BRANCH  29  31
ATOM     31  O   UNL     1      -0.920   8.643  22.690  0.00  0.00    +0.000 OA
ATOM     32  H   UNL     1      -0.641   7.816  23.150  0.00  0.00    +0.000 HD
ENDBRANCH  29  31
ENDBRANCH  28  29
ENDBRANCH  27  28
ENDBRANCH  24  27
ENDBRANCH  20  21
ENDBRANCH  19  20
ENDBRANCH   3  19
TORSDOF 10
ENDMDL
MODEL 2
REMARK VINA RESULT:      -7.4      2.348      3.885
REMARK  Name = 
REMARK  11 active torsions:
REMARK  status: ('A' for Active; 'I' for Inactive)
REMARK    1  A    between atoms: C_1  and  O_2
REMARK    2  A    between atoms: O_2  and  C_3
REMARK    3  A    between atoms: C_7  and  C_8
REMARK    4  A    between atoms: N_10  and  C_11
REMARK    5  A    between atoms: N_10  and  C_24
REMARK    6  A    between atoms: C_11  and  C_12
REMARK    7  A    between atoms: C_12  and  N_13
REMARK    8  A    between atoms: C_16  and  O_17
REMARK    9  A    between atoms: O_17  and  C_18
REMARK   10  A    between atoms: C_18  and  C_19
REMARK   11  A    between atoms: C_19  and  O_21
REMARK                            x       y       z     vdW  Elec       q    Type
REMARK                         _______ _______ _______ _____ _____    ______ ____
ROOT
ATOM      1  C   UNL     1       3.870   7.066  16.936  0.00  0.00    +0.000 C 
ATOM      2  O   UNL     1       4.042   7.988  16.131  0.00  0.00    +0.000 OA
ATOM      3  N   UNL     1       2.695   7.016  17.727  0.00  0.00    +0.000 N 
ENDROOT
BRANCH   3   4
ATOM      4  C   UNL     1       2.354   5.944  18.580  0.00  0.00    +0.000 A 
ATOM      5  C   UNL     1       2.450   6.095  19.965  0.00  0.00    +0.000 A 
ATOM      6  C   UNL     1       2.223   5.007  20.801  0.00  0.00    +0.000 A 
ATOM      7  C   UNL     1       1.871   3.774  20.255  0.00  0.00    +0.000 A 
ATOM      8 CL   UNL     1       1.697   2.407  21.286  0.00  0.00    +0.000 Cl
ATOM      9  C   UNL     1       1.701   3.631  18.879  0.00  0.00    +0.000 A 
ATOM     10  C   UNL     1       1.931   4.722  18.038  0.00  0.00    +0.000 A 
ENDBRANCH   3   4
BRANCH   1  15
ATOM     11  C   UNL     1       7.019   5.011  17.874  0.00  0.00    +0.000 A 
ATOM     12  C   UNL     1       7.113   4.198  16.747  0.00  0.00    +0.000 A 
ATOM     13  C   UNL     1       6.170   4.308  15.736  0.00  0.00    +0.000 A 
ATOM     14  C   UNL     1       5.155   5.258  15.849  0.00  0.00    +0.000 A 
ATOM     15  C   UNL     1       5.025   6.093  16.984  0.00  0.00    +0.000 A 
ATOM     16  C   UNL     1       5.948   5.909  18.018  0.00  0.00    +0.000 A 
BRANCH  11  18
ATOM     17  C   UNL     1       7.934   5.671  19.942  0.00  0.00    +0.000 C 
ATOM     18  O   UNL     1       8.005   4.817  18.804  0.00  0.00    +0.000 OA
ENDBRANCH  11  18
ENDBRANCH   1  15
BRANCH   3  19
ATOM     19  C   UNL     1       1.680   8.130  17.732  0.00  0.00    +0.000 C 
BRANCH  19  20
ATOM     20  C   UNL     1       2.126   9.452  18.397  0.00  0.00    +0.000 C 
BRANCH  20  21
ATOM     21  N   UNL     1       1.168  10.555  18.659  0.00  0.00    +0.000 NA
ATOM     22  C   UNL     1       0.071   9.960  19.462  0.00  0.00    +0.000 C 
ATOM     23  C   UNL     1      -1.010  10.965  19.847  0.00  0.00    +0.000 C 
ATOM     24  C   UNL     1      -0.394  12.161  20.571  0.00  0.00    +0.000 C 
ATOM     25  C   UNL     1       0.684  12.753  19.658  0.00  0.00    +0.000 C 
ATOM     26  C   UNL     1       1.766  11.707  19.338  0.00  0.00    +0.000 C 
BRANCH  24  27
ATOM     27  O   UNL     1       0.143  11.693  21.823  0.00  0.00    +0.000 OA
BRANCH  27  28
ATOM     28  C   UNL     1      -0.823  11.025  22.646  0.00  0.00    +0.000 C 
BRANCH  28  29
ATOM     29  C   UNL     1      -0.213   9.743  23.194  0.00  0.00    +0.000 C 
ATOM     30  O   UNL     1       0.901   9.667  23.689  0.00  0.00    +0.000 OA
BRANCH  29  31
ATOM     31  O   UNL     1      -1.037   8.676  23.048  0.00  0.00    +0.000 OA
ATOM     32  H   UNL     1      -1.896   9.005  22.693  0.00  0.00    +0.000 HD
ENDBRANCH  29  31
ENDBRANCH  28  29
ENDBRANCH  27  28
ENDBRANCH  24  27
ENDBRANCH  20  21
ENDBRANCH  19  20
ENDBRANCH   3  19
TORSDOF 10
ENDMDL
MODEL 3
REMARK VINA RESULT:      -7.2      3.056      4.772
REMARK  Name = 
REMARK  11 active torsions:
REMARK  status: ('A' for Active; 'I' for Inactive)
REMARK    1  A    between atoms: C_1  and  O_2
REMARK    2  A    between atoms: O_2  and  C_3
REMARK    3  A    between atoms: C_7  and  C_8
REMARK    4  A    between atoms: N_10  and  C_11
REMARK    5  A    between atoms: N_10  and  C_24
REMARK    6  A    between atoms: C_11  and  C_12
REMARK    7  A    between atoms: C_12  and  N_13
REMARK    8  A    between atoms: C_16  and  O_17
REMARK    9  A    between atoms: O_17  and  C_18
REMARK   10  A    between atoms: C_18  and  C_19
REMARK   11  A    between atoms: C_19  and  O_21
REMARK                            x       y       z     vdW  Elec       q    Type
REMARK                         _______ _______ _______ _____ _____    ______ ____
ROOT
ATOM      1  C   UNL     1       3.840   7.103  17.306  0.00  0.00    +0.000 C 
ATOM      2  O   UNL     1       3.947   8.113  16.602  0.00  0.00    +0.000 OA
ATOM      3  N   UNL     1       2.736   6.955  18.182  0.00  0.00    +0.000 N 
ENDROOT
BRANCH   3   4
ATOM      4  C   UNL     1       2.463   5.789  18.931  0.00  0.00    +0.000 A 
ATOM      5  C   UNL     1       1.692   4.766  18.375  0.00  0.00    +0.000 A 
ATOM      6  C   UNL     1       1.328   3.669  19.150  0.00  0.00    +0.000 A 
ATOM      7  C   UNL     1       1.760   3.581  20.472  0.00  0.00    +0.000 A 
ATOM      8 CL   UNL     1       1.219   2.277  21.457  0.00  0.00    +0.000 Cl
ATOM      9  C   UNL     1       2.591   4.561  21.014  0.00  0.00    +0.000 A 
ATOM     10  C   UNL     1       2.954   5.664  20.238  0.00  0.00    +0.000 A 
ENDBRANCH   3   4
BRANCH   1  15
ATOM     11  C   UNL     1       7.033   4.951  17.745  0.00  0.00    +0.000 A 
ATOM     12  C   UNL     1       7.051   4.304  16.512  0.00  0.00    +0.000 A 
ATOM     13  C   UNL     1       6.047   4.551  15.589  0.00  0.00    +0.000 A 
ATOM     14  C   UNL     1       5.046   5.471  15.898  0.00  0.00    +0.000 A 
ATOM     15  C   UNL     1       4.992   6.139  17.144  0.00  0.00    +0.000 A 
ATOM     16  C   UNL     1       5.978   5.815  18.081  0.00  0.00    +0.000 A 
BRANCH  11  18
ATOM     17  C   UNL     1       8.221   5.482  19.710  0.00  0.00    +0.000 C 
ATOM     18  O   UNL     1       8.075   4.633  18.575  0.00  0.00    +0.000 OA
ENDBRANCH  11  18
ENDBRANCH   1  15
BRANCH   3  19
ATOM     19  C   UNL     1       1.729   8.055  18.401  0.00  0.00    +0.000 C 
BRANCH  19  20
ATOM     20  C   UNL     1       1.516   8.499  19.866  0.00  0.00    +0.000 C 
BRANCH  20  21
ATOM     21  N   UNL     1       1.010   9.852  20.205  0.00  0.00    +0.000 NA
ATOM     22  C   UNL     1       0.789  10.542  18.909  0.00  0.00    +0.000 C 
ATOM     23  C   UNL     1       0.244  11.957  19.063  0.00  0.00    +0.000 C 
ATOM     24  C   UNL     1      -1.036  11.948  19.897  0.00  0.00    +0.000 C 
ATOM     25  C   UNL     1      -0.713  11.277  21.236  0.00  0.00    +0.000 C 
ATOM     26  C   UNL     1      -0.207   9.840  21.020  0.00  0.00    +0.000 C 
BRANCH  24  27
ATOM     27  O   UNL     1      -2.045  11.238  19.155  0.00  0.00    +0.000 OA
BRANCH  27  28
ATOM     28  C   UNL     1      -2.430  11.895  17.939  0.00  0.00    +0.000 C 
BRANCH  28  29
ATOM     29  C   UNL     1      -2.421  10.886  16.801  0.00  0.00    +0.000 C 
ATOM     30  O   UNL     1      -2.224   9.689  16.942  0.00  0.00    +0.000 OA
BRANCH  29  31
ATOM     31  O   UNL     1      -2.627  11.468  15.594  0.00  0.00    +0.000 OA
ATOM     32  H   UNL     1      -1.775  11.872  15.304  0.00  0.00    +0.000 HD
ENDBRANCH  29  31
ENDBRANCH  28  29
ENDBRANCH  27  28
ENDBRANCH  24  27
ENDBRANCH  20  21
ENDBRANCH  19  20
ENDBRANCH   3  19
TORSDOF 10
ENDMDL
MODEL 4
REMARK VINA RESULT:      -7.1      2.348      4.061
REMARK  Name = 
REMARK  11 active torsions:
REMARK  status: ('A' for Active; 'I' for Inactive)
REMARK    1  A    between atoms: C_1  and  O_2
REMARK    2  A    between atoms: O_2  and  C_3
REMARK    3  A    between atoms: C_7  and  C_8
REMARK    4  A    between atoms: N_10  and  C_11
REMARK    5  A    between atoms: N_10  and  C_24
REMARK    6  A    between atoms: C_11  and  C_12
REMARK    7  A    between atoms: C_12  and  N_13
REMARK    8  A    between atoms: C_16  and  O_17
REMARK    9  A    between atoms: O_17  and  C_18
REMARK   10  A    between atoms: C_18  and  C_19
REMARK   11  A    between atoms: C_19  and  O_21
REMARK                            x       y       z     vdW  Elec       q    Type
REMARK                         _______ _______ _______ _____ _____    ______ ____
ROOT
ATOM      1  C   UNL     1       4.152   7.256  17.605  0.00  0.00    +0.000 C 
ATOM      2  O   UNL     1       4.432   8.402  17.241  0.00  0.00    +0.000 OA
ATOM      3  N   UNL     1       2.973   7.008  18.352  0.00  0.00    +0.000 N 
ENDROOT
BRANCH   3   4
ATOM      4  C   UNL     1       2.508   5.723  18.705  0.00  0.00    +0.000 A 
ATOM      5  C   UNL     1       2.754   5.218  19.984  0.00  0.00    +0.000 A 
ATOM      6  C   UNL     1       2.396   3.910  20.296  0.00  0.00    +0.000 A 
ATOM      7  C   UNL     1       1.765   3.117  19.340  0.00  0.00    +0.000 A 
ATOM      8 CL   UNL     1       1.423   1.468  19.696  0.00  0.00    +0.000 Cl
ATOM      9  C   UNL     1       1.449   3.635  18.085  0.00  0.00    +0.000 A 
ATOM     10  C   UNL     1       1.811   4.946  17.769  0.00  0.00    +0.000 A 
ENDBRANCH   3   4
BRANCH   1  15
ATOM     11  C   UNL     1       6.180   4.411  15.927  0.00  0.00    +0.000 A 
ATOM     12  C   UNL     1       7.299   4.400  16.757  0.00  0.00    +0.000 A 
ATOM     13  C   UNL     1       7.389   5.301  17.806  0.00  0.00    +0.000 A 
ATOM     14  C   UNL     1       6.338   6.189  18.036  0.00  0.00    +0.000 A 
ATOM     15  C   UNL     1       5.192   6.234  17.207  0.00  0.00    +0.000 A 
ATOM     16  C   UNL     1       5.164   5.362  16.115  0.00  0.00    +0.000 A 
BRANCH  11  18
ATOM     17  C   UNL     1       6.282   4.007  13.608  0.00  0.00    +0.000 C 
ATOM     18  O   UNL     1       6.199   3.476  14.927  0.00  0.00    +0.000 OA
ENDBRANCH  11  18
ENDBRANCH   1  15
BRANCH   3  19
ATOM     19  C   UNL     1       2.088   8.122  18.850  0.00  0.00    +0.000 C 
BRANCH  19  20
ATOM     20  C   UNL     1       1.299   8.897  17.771  0.00  0.00    +0.000 C 
BRANCH  20  21
ATOM     21  N   UNL     1       0.720  10.237  18.039  0.00  0.00    +0.000 NA
ATOM     22  C   UNL     1      -0.746  10.033  18.149  0.00  0.00    +0.000 C 
ATOM     23  C   UNL     1      -1.514  11.317  18.447  0.00  0.00    +0.000 C 
ATOM     24  C   UNL     1      -0.964  11.987  19.705  0.00  0.00    +0.000 C 
ATOM     25  C   UNL     1       0.536  12.216  19.492  0.00  0.00    +0.000 C 
ATOM     26  C   UNL     1       1.262  10.884  19.236  0.00  0.00    +0.000 C 
BRANCH  24  27
ATOM     27  O   UNL     1      -1.234  11.122  20.824  0.00  0.00    +0.000 OA
BRANCH  27  28
ATOM     28  C   UNL     1      -0.333  11.312  21.924  0.00  0.00    +0.000 C 
BRANCH  28  29
ATOM     29  C   UNL     1      -0.109   9.979  22.624  0.00  0.00    +0.000 C 
ATOM     30  O   UNL     1       0.120   9.858  23.817  0.00  0.00    +0.000 OA
BRANCH  29  31
ATOM     31  O   UNL     1      -0.164   8.931  21.766  0.00  0.00    +0.000 OA
ATOM     32  H   UNL     1      -0.229   8.106  22.302  0.00  0.00    +0.000 HD
ENDBRANCH  29  31
ENDBRANCH  28  29
ENDBRANCH  27  28
ENDBRANCH  24  27
ENDBRANCH  20  21
ENDBRANCH  19  20
ENDBRANCH   3  19
TORSDOF 10
ENDMDL
MODEL 5
REMARK VINA RESULT:      -7.1      0.931      1.315
REMARK  Name = 
REMARK  11 active torsions:
REMARK  status: ('A' for Active; 'I' for Inactive)
REMARK    1  A    between atoms: C_1  and  O_2
REMARK    2  A    between atoms: O_2  and  C_3
REMARK    3  A    between atoms: C_7  and  C_8
REMARK    4  A    between atoms: N_10  and  C_11
REMARK    5  A    between atoms: N_10  and  C_24
REMARK    6  A    between atoms: C_11  and  C_12
REMARK    7  A    between atoms: C_12  and  N_13
REMARK    8  A    between atoms: C_16  and  O_17
REMARK    9  A    between atoms: O_17  and  C_18
REMARK   10  A    between atoms: C_18  and  C_19
REMARK   11  A    between atoms: C_19  and  O_21
REMARK                            x       y       z     vdW  Elec       q    Type
REMARK                         _______ _______ _______ _____ _____    ______ ____
ROOT
ATOM      1  C   UNL     1       2.221   6.471  19.789  0.00  0.00    +0.000 C 
ATOM      2  O   UNL     1       1.605   7.231  20.543  0.00  0.00    +0.000 OA
ATOM      3  N   UNL     1       2.833   6.970  18.613  0.00  0.00    +0.000 N 
ENDROOT
BRANCH   3   4
ATOM      4  C   UNL     1       3.658   6.207  17.757  0.00  0.00    +0.000 A 
ATOM      5  C   UNL     1       4.775   6.793  17.157  0.00  0.00    +0.000 A 
ATOM      6  C   UNL     1       5.521   6.076  16.228  0.00  0.00    +0.000 A 
ATOM      7  C   UNL     1       5.170   4.764  15.920  0.00  0.00    +0.000 A 
ATOM      8 CL   UNL     1       6.031   3.920  14.692  0.00  0.00    +0.000 Cl
ATOM      9  C   UNL     1       4.102   4.145  16.568  0.00  0.00    +0.000 A 
ATOM     10  C   UNL     1       3.349   4.864  17.498  0.00  0.00    +0.000 A 
ENDBRANCH   3   4
BRANCH   1  15
ATOM     11  C   UNL     1       3.088   2.892  20.999  0.00  0.00    +0.000 A 
ATOM     12  C   UNL     1       1.814   2.329  20.997  0.00  0.00    +0.000 A 
ATOM     13  C   UNL     1       0.721   3.099  20.634  0.00  0.00    +0.000 A 
ATOM     14  C   UNL     1       0.916   4.424  20.244  0.00  0.00    +0.000 A 
ATOM     15  C   UNL     1       2.194   5.030  20.244  0.00  0.00    +0.000 A 
ATOM     16  C   UNL     1       3.268   4.250  20.684  0.00  0.00    +0.000 A 
BRANCH  11  18
ATOM     17  C   UNL     1       4.937   1.603  20.312  0.00  0.00    +0.000 C 
ATOM     18  O   UNL     1       4.093   2.040  21.372  0.00  0.00    +0.000 OA
ENDBRANCH  11  18
ENDBRANCH   1  15
BRANCH   3  19
ATOM     19  C   UNL     1       2.654   8.395  18.155  0.00  0.00    +0.000 C 
BRANCH  19  20
ATOM     20  C   UNL     1       1.199   8.850  17.903  0.00  0.00    +0.000 C 
BRANCH  20  21
ATOM     21  N   UNL     1       0.802  10.277  17.988  0.00  0.00    +0.000 NA
ATOM     22  C   UNL     1      -0.683  10.289  17.968  0.00  0.00    +0.000 C 
ATOM     23  C   UNL     1      -1.277  11.690  18.069  0.00  0.00    +0.000 C 
ATOM     24  C   UNL     1      -0.745  12.407  19.309  0.00  0.00    +0.000 C 
ATOM     25  C   UNL     1       0.785  12.404  19.228  0.00  0.00    +0.000 C 
ATOM     26  C   UNL     1       1.328  10.966  19.169  0.00  0.00    +0.000 C 
BRANCH  24  27
ATOM     27  O   UNL     1      -1.235  11.709  20.470  0.00  0.00    +0.000 OA
BRANCH  27  28
ATOM     28  C   UNL     1      -0.879  12.340  21.709  0.00  0.00    +0.000 C 
BRANCH  28  29
ATOM     29  C   UNL     1      -1.029  11.337  22.843  0.00  0.00    +0.000 C 
ATOM     30  O   UNL     1      -0.148  10.574  23.209  0.00  0.00    +0.000 OA
BRANCH  29  31
ATOM     31  O   UNL     1      -2.268  11.360  23.392  0.00  0.00    +0.000 OA
ATOM     32  H   UNL     1      -2.909  11.600  22.681  0.00  0.00    +0.000 HD
ENDBRANCH  29  31
ENDBRANCH  28  29
ENDBRANCH  27  28
ENDBRANCH  24  27
ENDBRANCH  20  21
ENDBRANCH  19  20
ENDBRANCH   3  19
TORSDOF 10
ENDMDL
MODEL 6
REMARK VINA RESULT:      -7.0      2.909      4.867
REMARK  Name = 
REMARK  11 active torsions:
REMARK  status: ('A' for Active; 'I' for Inactive)
REMARK    1  A    between atoms: C_1  and  O_2
REMARK    2  A    between atoms: O_2  and  C_3
REMARK    3  A    between atoms: C_7  and  C_8
REMARK    4  A    between atoms: N_10  and  C_11
REMARK    5  A    between atoms: N_10  and  C_24
REMARK    6  A    between atoms: C_11  and  C_12
REMARK    7  A    between atoms: C_12  and  N_13
REMARK    8  A    between atoms: C_16  and  O_17
REMARK    9  A    between atoms: O_17  and  C_18
REMARK   10  A    between atoms: C_18  and  C_19
REMARK   11  A    between atoms: C_19  and  O_21
REMARK                            x       y       z     vdW  Elec       q    Type
REMARK                         _______ _______ _______ _____ _____    ______ ____
ROOT
ATOM      1  C   UNL     1       3.889   7.226  17.372  0.00  0.00    +0.000 C 
ATOM      2  O   UNL     1       3.995   8.289  16.751  0.00  0.00    +0.000 OA
ATOM      3  N   UNL     1       2.831   7.038  18.296  0.00  0.00    +0.000 N 
ENDROOT
BRANCH   3   4
ATOM      4  C   UNL     1       2.558   5.821  18.958  0.00  0.00    +0.000 A 
ATOM      5  C   UNL     1       1.677   4.899  18.390  0.00  0.00    +0.000 A 
ATOM      6  C   UNL     1       1.319   3.753  19.093  0.00  0.00    +0.000 A 
ATOM      7  C   UNL     1       1.866   3.514  20.353  0.00  0.00    +0.000 A 
ATOM      8 CL   UNL     1       1.339   2.152  21.263  0.00  0.00    +0.000 Cl
ATOM      9  C   UNL     1       2.802   4.392  20.898  0.00  0.00    +0.000 A 
ATOM     10  C   UNL     1       3.159   5.544  20.194  0.00  0.00    +0.000 A 
ENDBRANCH   3   4
BRANCH   1  15
ATOM     11  C   UNL     1       6.117   4.410  15.913  0.00  0.00    +0.000 A 
ATOM     12  C   UNL     1       7.208   4.504  16.774  0.00  0.00    +0.000 A 
ATOM     13  C   UNL     1       7.216   5.464  17.774  0.00  0.00    +0.000 A 
ATOM     14  C   UNL     1       6.113   6.305  17.924  0.00  0.00    +0.000 A 
ATOM     15  C   UNL     1       4.994   6.243  17.062  0.00  0.00    +0.000 A 
ATOM     16  C   UNL     1       5.046   5.313  16.018  0.00  0.00    +0.000 A 
BRANCH  11  18
ATOM     17  C   UNL     1       6.288   3.889  13.622  0.00  0.00    +0.000 C 
ATOM     18  O   UNL     1       6.216   3.426  14.966  0.00  0.00    +0.000 OA
ENDBRANCH  11  18
ENDBRANCH   1  15
BRANCH   3  19
ATOM     19  C   UNL     1       1.879   8.147  18.666  0.00  0.00    +0.000 C 
BRANCH  19  20
ATOM     20  C   UNL     1       1.516   8.258  20.164  0.00  0.00    +0.000 C 
BRANCH  20  21
ATOM     21  N   UNL     1       1.096   9.546  20.770  0.00  0.00    +0.000 NA
ATOM     22  C   UNL     1       0.975  10.507  19.645  0.00  0.00    +0.000 C 
ATOM     23  C   UNL     1       0.526  11.896  20.083  0.00  0.00    +0.000 C 
ATOM     24  C   UNL     1      -0.782  11.813  20.868  0.00  0.00    +0.000 C 
ATOM     25  C   UNL     1      -0.560  10.852  22.041  0.00  0.00    +0.000 C 
ATOM     26  C   UNL     1      -0.150   9.457  21.536  0.00  0.00    +0.000 C 
BRANCH  24  27
ATOM     27  O   UNL     1      -1.811  11.355  19.970  0.00  0.00    +0.000 OA
BRANCH  27  28
ATOM     28  C   UNL     1      -2.011  12.218  18.841  0.00  0.00    +0.000 C 
BRANCH  28  29
ATOM     29  C   UNL     1      -2.341  11.375  17.618  0.00  0.00    +0.000 C 
ATOM     30  O   UNL     1      -1.719  10.380  17.279  0.00  0.00    +0.000 OA
BRANCH  29  31
ATOM     31  O   UNL     1      -3.393  11.869  16.921  0.00  0.00    +0.000 OA
ATOM     32  H   UNL     1      -4.070  12.173  17.570  0.00  0.00    +0.000 HD
ENDBRANCH  29  31
ENDBRANCH  28  29
ENDBRANCH  27  28
ENDBRANCH  24  27
ENDBRANCH  20  21
ENDBRANCH  19  20
ENDBRANCH   3  19
TORSDOF 10
ENDMDL
MODEL 7
REMARK VINA RESULT:      -7.0      1.689      2.964
REMARK  Name = 
REMARK  11 active torsions:
REMARK  status: ('A' for Active; 'I' for Inactive)
REMARK    1  A    between atoms: C_1  and  O_2
REMARK    2  A    between atoms: O_2  and  C_3
REMARK    3  A    between atoms: C_7  and  C_8
REMARK    4  A    between atoms: N_10  and  C_11
REMARK    5  A    between atoms: N_10  and  C_24
REMARK    6  A    between atoms: C_11  and  C_12
REMARK    7  A    between atoms: C_12  and  N_13
REMARK    8  A    between atoms: C_16  and  O_17
REMARK    9  A    between atoms: O_17  and  C_18
REMARK   10  A    between atoms: C_18  and  C_19
REMARK   11  A    between atoms: C_19  and  O_21
REMARK                            x       y       z     vdW  Elec       q    Type
REMARK                         _______ _______ _______ _____ _____    ______ ____
ROOT
ATOM      1  C   UNL     1       2.244   6.500  19.791  0.00  0.00    +0.000 C 
ATOM      2  O   UNL     1       1.639   7.271  20.543  0.00  0.00    +0.000 OA
ATOM      3  N   UNL     1       2.885   6.991  18.626  0.00  0.00    +0.000 N 
ENDROOT
BRANCH   3   4
ATOM      4  C   UNL     1       3.700   6.212  17.776  0.00  0.00    +0.000 A 
ATOM      5  C   UNL     1       4.853   6.765  17.213  0.00  0.00    +0.000 A 
ATOM      6  C   UNL     1       5.593   6.036  16.288  0.00  0.00    +0.000 A 
ATOM      7  C   UNL     1       5.200   4.744  15.948  0.00  0.00    +0.000 A 
ATOM      8 CL   UNL     1       6.057   3.889  14.725  0.00  0.00    +0.000 Cl
ATOM      9  C   UNL     1       4.093   4.155  16.559  0.00  0.00    +0.000 A 
ATOM     10  C   UNL     1       3.347   4.887  17.485  0.00  0.00    +0.000 A 
ENDBRANCH   3   4
BRANCH   1  15
ATOM     11  C   UNL     1       2.992   2.912  21.053  0.00  0.00    +0.000 A 
ATOM     12  C   UNL     1       1.720   2.355  20.942  0.00  0.00    +0.000 A 
ATOM     13  C   UNL     1       0.664   3.131  20.492  0.00  0.00    +0.000 A 
ATOM     14  C   UNL     1       0.897   4.457  20.126  0.00  0.00    +0.000 A 
ATOM     15  C   UNL     1       2.173   5.057  20.235  0.00  0.00    +0.000 A 
ATOM     16  C   UNL     1       3.203   4.270  20.760  0.00  0.00    +0.000 A 
BRANCH  11  18
ATOM     17  C   UNL     1       4.905   1.643  20.523  0.00  0.00    +0.000 C 
ATOM     18  O   UNL     1       3.958   2.053  21.504  0.00  0.00    +0.000 OA
ENDBRANCH  11  18
ENDBRANCH   1  15
BRANCH   3  19
ATOM     19  C   UNL     1       2.750   8.423  18.176  0.00  0.00    +0.000 C 
BRANCH  19  20
ATOM     20  C   UNL     1       1.340   8.861  17.719  0.00  0.00    +0.000 C 
BRANCH  20  21
ATOM     21  N   UNL     1       0.453   9.669  18.593  0.00  0.00    +0.000 NA
ATOM     22  C   UNL     1       1.343  10.607  19.323  0.00  0.00    +0.000 C 
ATOM     23  C   UNL     1       0.594  11.541  20.266  0.00  0.00    +0.000 C 
ATOM     24  C   UNL     1      -0.493  12.304  19.509  0.00  0.00    +0.000 C 
ATOM     25  C   UNL     1      -1.401  11.271  18.834  0.00  0.00    +0.000 C 
ATOM     26  C   UNL     1      -0.598  10.384  17.866  0.00  0.00    +0.000 C 
BRANCH  24  27
ATOM     27  O   UNL     1       0.153  13.172  18.558  0.00  0.00    +0.000 OA
BRANCH  27  28
ATOM     28  C   UNL     1       0.910  14.226  19.169  0.00  0.00    +0.000 C 
BRANCH  28  29
ATOM     29  C   UNL     1       2.161  14.487  18.343  0.00  0.00    +0.000 C 
ATOM     30  O   UNL     1       2.723  15.569  18.267  0.00  0.00    +0.000 OA
BRANCH  29  31
ATOM     31  O   UNL     1       2.574  13.385  17.670  0.00  0.00    +0.000 OA
ATOM     32  H   UNL     1       2.777  12.684  18.334  0.00  0.00    +0.000 HD
ENDBRANCH  29  31
ENDBRANCH  28  29
ENDBRANCH  27  28
ENDBRANCH  24  27
ENDBRANCH  20  21
ENDBRANCH  19  20
ENDBRANCH   3  19
TORSDOF 10
ENDMDL
MODEL 8
REMARK VINA RESULT:      -7.0      2.813      4.532
REMARK  Name = 
REMARK  11 active torsions:
REMARK  status: ('A' for Active; 'I' for Inactive)
REMARK    1  A    between atoms: C_1  and  O_2
REMARK    2  A    between atoms: O_2  and  C_3
REMARK    3  A    between atoms: C_7  and  C_8
REMARK    4  A    between atoms: N_10  and  C_11
REMARK    5  A    between atoms: N_10  and  C_24
REMARK    6  A    between atoms: C_11  and  C_12
REMARK    7  A    between atoms: C_12  and  N_13
REMARK    8  A    between atoms: C_16  and  O_17
REMARK    9  A    between atoms: O_17  and  C_18
REMARK   10  A    between atoms: C_18  and  C_19
REMARK   11  A    between atoms: C_19  and  O_21
REMARK                            x       y       z     vdW  Elec       q    Type
REMARK                         _______ _______ _______ _____ _____    ______ ____
ROOT
ATOM      1  C   UNL     1       3.864   6.944  16.994  0.00  0.00    +0.000 C 
ATOM      2  O   UNL     1       3.968   7.874  16.187  0.00  0.00    +0.000 OA
ATOM      3  N   UNL     1       2.724   6.843  17.829  0.00  0.00    +0.000 N 
ENDROOT
BRANCH   3   4
ATOM      4  C   UNL     1       2.459   5.756  18.689  0.00  0.00    +0.000 A 
ATOM      5  C   UNL     1       1.829   4.611  18.196  0.00  0.00    +0.000 A 
ATOM      6  C   UNL     1       1.466   3.587  19.065  0.00  0.00    +0.000 A 
ATOM      7  C   UNL     1       1.760   3.693  20.422  0.00  0.00    +0.000 A 
ATOM      8 CL   UNL     1       1.214   2.474  21.507  0.00  0.00    +0.000 Cl
ATOM      9  C   UNL     1       2.454   4.798  20.914  0.00  0.00    +0.000 A 
ATOM     10  C   UNL     1       2.816   5.828  20.043  0.00  0.00    +0.000 A 
ENDBRANCH   3   4
BRANCH   1  15
ATOM     11  C   UNL     1       7.114   4.997  17.815  0.00  0.00    +0.000 A 
ATOM     12  C   UNL     1       7.218   4.219  16.664  0.00  0.00    +0.000 A 
ATOM     13  C   UNL     1       6.252   4.317  15.675  0.00  0.00    +0.000 A 
ATOM     14  C   UNL     1       5.201   5.221  15.833  0.00  0.00    +0.000 A 
ATOM     15  C   UNL     1       5.060   6.019  16.993  0.00  0.00    +0.000 A 
ATOM     16  C   UNL     1       6.010   5.845  18.004  0.00  0.00    +0.000 A 
BRANCH  11  18
ATOM     17  C   UNL     1       8.029   5.621  19.894  0.00  0.00    +0.000 C 
ATOM     18  O   UNL     1       8.125   4.820  18.721  0.00  0.00    +0.000 OA
ENDBRANCH  11  18
ENDBRANCH   1  15
BRANCH   3  19
ATOM     19  C   UNL     1       1.666   7.915  17.878  0.00  0.00    +0.000 C 
BRANCH  19  20
ATOM     20  C   UNL     1       1.823   8.975  18.991  0.00  0.00    +0.000 C 
BRANCH  20  21
ATOM     21  N   UNL     1       0.846  10.079  19.161  0.00  0.00    +0.000 NA
ATOM     22  C   UNL     1       0.428  10.039  20.584  0.00  0.00    +0.000 C 
ATOM     23  C   UNL     1      -0.573  11.128  20.951  0.00  0.00    +0.000 C 
ATOM     24  C   UNL     1      -0.020  12.506  20.588  0.00  0.00    +0.000 C 
ATOM     25  C   UNL     1       0.332  12.486  19.097  0.00  0.00    +0.000 C 
ATOM     26  C   UNL     1       1.374  11.395  18.794  0.00  0.00    +0.000 C 
BRANCH  24  27
ATOM     27  O   UNL     1       1.128  12.758  21.420  0.00  0.00    +0.000 OA
BRANCH  27  28
ATOM     28  C   UNL     1       1.576  14.120  21.379  0.00  0.00    +0.000 C 
BRANCH  28  29
ATOM     29  C   UNL     1       3.058  14.149  21.036  0.00  0.00    +0.000 C 
ATOM     30  O   UNL     1       3.501  14.201  19.898  0.00  0.00    +0.000 OA
BRANCH  29  31
ATOM     31  O   UNL     1       3.844  14.081  22.138  0.00  0.00    +0.000 OA
ATOM     32  H   UNL     1       3.885  14.983  22.535  0.00  0.00    +0.000 HD
ENDBRANCH  29  31
ENDBRANCH  28  29
ENDBRANCH  27  28
ENDBRANCH  24  27
ENDBRANCH  20  21
ENDBRANCH  19  20
ENDBRANCH   3  19
TORSDOF 10
ENDMDL
MODEL 9
REMARK VINA RESULT:      -7.0      3.025      4.771
REMARK  Name = 
REMARK  11 active torsions:
REMARK  status: ('A' for Active; 'I' for Inactive)
REMARK    1  A    between atoms: C_1  and  O_2
REMARK    2  A    between atoms: O_2  and  C_3
REMARK    3  A    between atoms: C_7  and  C_8
REMARK    4  A    between atoms: N_10  and  C_11
REMARK    5  A    between atoms: N_10  and  C_24
REMARK    6  A    between atoms: C_11  and  C_12
REMARK    7  A    between atoms: C_12  and  N_13
REMARK    8  A    between atoms: C_16  and  O_17
REMARK    9  A    between atoms: O_17  and  C_18
REMARK   10  A    between atoms: C_18  and  C_19
REMARK   11  A    between atoms: C_19  and  O_21
REMARK                            x       y       z     vdW  Elec       q    Type
REMARK                         _______ _______ _______ _____ _____    ______ ____
ROOT
ATOM      1  C   UNL     1       3.865   7.053  17.031  0.00  0.00    +0.000 C 
ATOM      2  O   UNL     1       3.976   7.998  16.243  0.00  0.00    +0.000 OA
ATOM      3  N   UNL     1       2.726   6.948  17.867  0.00  0.00    +0.000 N 
ENDROOT
BRANCH   3   4
ATOM      4  C   UNL     1       2.452   5.845  18.706  0.00  0.00    +0.000 A 
ATOM      5  C   UNL     1       1.796   4.724  18.195  0.00  0.00    +0.000 A 
ATOM      6  C   UNL     1       1.425   3.687  19.045  0.00  0.00    +0.000 A 
ATOM      7  C   UNL     1       1.737   3.757  20.401  0.00  0.00    +0.000 A 
ATOM      8 CL   UNL     1       1.182   2.523  21.465  0.00  0.00    +0.000 Cl
ATOM      9  C   UNL     1       2.456   4.837  20.909  0.00  0.00    +0.000 A 
ATOM     10  C   UNL     1       2.826   5.881  20.057  0.00  0.00    +0.000 A 
ENDBRANCH   3   4
BRANCH   1  15
ATOM     11  C   UNL     1       7.044   4.988  17.839  0.00  0.00    +0.000 A 
ATOM     12  C   UNL     1       7.207   4.324  16.626  0.00  0.00    +0.000 A 
ATOM     13  C   UNL     1       6.301   4.533  15.598  0.00  0.00    +0.000 A 
ATOM     14  C   UNL     1       5.251   5.432  15.785  0.00  0.00    +0.000 A 
ATOM     15  C   UNL     1       5.050   6.115  17.007  0.00  0.00    +0.000 A 
ATOM     16  C   UNL     1       5.938   5.830  18.048  0.00  0.00    +0.000 A 
BRANCH  11  18
ATOM     17  C   UNL     1       8.116   5.670  19.823  0.00  0.00    +0.000 C 
ATOM     18  O   UNL     1       7.999   4.708  18.780  0.00  0.00    +0.000 OA
ENDBRANCH  11  18
ENDBRANCH   1  15
BRANCH   3  19
ATOM     19  C   UNL     1       1.680   8.029  17.942  0.00  0.00    +0.000 C 
BRANCH  19  20
ATOM     20  C   UNL     1       1.570   8.777  19.290  0.00  0.00    +0.000 C 
BRANCH  20  21
ATOM     21  N   UNL     1       0.481   9.749  19.557  0.00  0.00    +0.000 NA
ATOM     22  C   UNL     1       1.128  10.921  20.199  0.00  0.00    +0.000 C 
ATOM     23  C   UNL     1       0.152  12.043  20.531  0.00  0.00    +0.000 C 
ATOM     24  C   UNL     1      -0.619  12.467  19.282  0.00  0.00    +0.000 C 
ATOM     25  C   UNL     1      -1.304  11.220  18.713  0.00  0.00    +0.000 C 
ATOM     26  C   UNL     1      -0.267  10.139  18.360  0.00  0.00    +0.000 C 
BRANCH  24  27
ATOM     27  O   UNL     1       0.318  13.050  18.357  0.00  0.00    +0.000 OA
BRANCH  27  28
ATOM     28  C   UNL     1       0.917  14.262  18.837  0.00  0.00    +0.000 C 
BRANCH  28  29
ATOM     29  C   UNL     1       2.429  14.160  18.704  0.00  0.00    +0.000 C 
ATOM     30  O   UNL     1       3.224  14.627  19.506  0.00  0.00    +0.000 OA
BRANCH  29  31
ATOM     31  O   UNL     1       2.806  13.514  17.574  0.00  0.00    +0.000 OA
ATOM     32  H   UNL     1       3.788  13.575  17.504  0.00  0.00    +0.000 HD
ENDBRANCH  29  31
ENDBRANCH  28  29
ENDBRANCH  27  28
ENDBRANCH  24  27
ENDBRANCH  20  21
ENDBRANCH  19  20
ENDBRANCH   3  19
TORSDOF 10
ENDMDL
