MODEL 1
REMARK VINA RESULT:      -7.8      0.000      0.000
REMARK  Name = 
REMARK  4 active torsions:
REMARK  status: ('A' for Active; 'I' for Inactive)
REMARK    1  A    between atoms: C_5  and  N_6
REMARK    2  A    between atoms: N_12  and  C_13
REMARK    3  A    between atoms: C_13  and  C_14
REMARK    4  A    between atoms: C_14  and  C_15
REMARK                            x       y       z     vdW  Elec       q    Type
REMARK                         _______ _______ _______ _____ _____    ______ ____
ROOT
ATOM      1  O   UNL     1       3.512   3.047  16.710  0.00  0.00    +0.000 OA
ATOM      2  S   UNL     1       4.582   3.876  17.237  0.00  0.00    +0.000 S 
ATOM      3  O   UNL     1       5.136   3.671  18.549  0.00  0.00    +0.000 OA
ATOM      4  C   UNL     1       5.889   3.909  16.036  0.00  0.00    +0.000 C 
ATOM      5  C   UNL     1       6.336   5.367  15.913  0.00  0.00    +0.000 C 
ATOM      6  C   UNL     1       5.025   6.188  16.076  0.00  0.00    +0.000 C 
ATOM      7  N   UNL     1       4.124   5.511  17.045  0.00  0.00    +0.000 NA
ENDROOT
BRANCH   5   8
ATOM      8  N   UNL     1       7.446   5.778  16.811  0.00  0.00    +0.000 NA
ATOM      9  C   UNL     1       7.290   7.130  17.367  0.00  0.00    +0.000 C 
ATOM     10  C   UNL     1       8.140   7.146  18.619  0.00  0.00    +0.000 C 
ATOM     11  C   UNL     1       7.979   5.746  19.169  0.00  0.00    +0.000 C 
ATOM     12  C   UNL     1       7.666   4.872  17.955  0.00  0.00    +0.000 C 
ENDBRANCH   5   8
BRANCH   7  13
ATOM     13  C   UNL     1       3.817   6.283  18.274  0.00  0.00    +0.000 C 
BRANCH  13  14
ATOM     14  C   UNL     1       2.309   6.223  18.584  0.00  0.00    +0.000 C 
BRANCH  14  15
ATOM     15  C   UNL     1       1.960   5.027  19.431  0.00  0.00    +0.000 A 
ATOM     16  C   UNL     1       2.431   4.930  20.748  0.00  0.00    +0.000 A 
ATOM     17  C   UNL     1       2.136   3.806  21.519  0.00  0.00    +0.000 A 
ATOM     18  C   UNL     1       1.374   2.771  20.979  0.00  0.00    +0.000 A 
ATOM     19  C   UNL     1       0.901   2.861  19.672  0.00  0.00    +0.000 A 
ATOM     20  C   UNL     1       1.193   3.985  18.899  0.00  0.00    +0.000 A 
ENDBRANCH  14  15
ENDBRANCH  13  14
ENDBRANCH   7  13
TORSDOF 4
ENDMDL
MODEL 2
REMARK VINA RESULT:      -7.8      2.164      3.459
REMARK  Name = 
REMARK  4 active torsions:
REMARK  status: ('A' for Active; 'I' for Inactive)
REMARK    1  A    between atoms: C_5  and  N_6
REMARK    2  A    between atoms: N_12  and  C_13
REMARK    3  A    between atoms: C_13  and  C_14
REMARK    4  A    between atoms: C_14  and  C_15
REMARK                            x       y       z     vdW  Elec       q    Type
REMARK                         _______ _______ _______ _____ _____    ______ ____
ROOT
ATOM      1  O   UNL     1       6.989   5.812  19.049  0.00  0.00    +0.000 OA
ATOM      2  S   UNL     1       6.634   5.925  17.645  0.00  0.00    +0.000 S 
ATOM      3  O   UNL     1       6.823   7.142  16.902  0.00  0.00    +0.000 OA
ATOM      4  C   UNL     1       7.395   4.573  16.781  0.00  0.00    +0.000 C 
ATOM      5  C   UNL     1       6.330   3.994  15.847  0.00  0.00    +0.000 C 
ATOM      6  C   UNL     1       5.002   4.128  16.646  0.00  0.00    +0.000 C 
ATOM      7  N   UNL     1       5.028   5.370  17.461  0.00  0.00    +0.000 NA
ENDROOT
BRANCH   5   8
ATOM      8  N   UNL     1       6.295   4.566  14.476  0.00  0.00    +0.000 NA
ATOM      9  C   UNL     1       7.597   5.063  14.008  0.00  0.00    +0.000 C 
ATOM     10  C   UNL     1       7.502   5.065  12.498  0.00  0.00    +0.000 C 
ATOM     11  C   UNL     1       6.662   3.844  12.198  0.00  0.00    +0.000 C 
ATOM     12  C   UNL     1       5.801   3.634  13.444  0.00  0.00    +0.000 C 
ENDBRANCH   5   8
BRANCH   7  13
ATOM     13  C   UNL     1       3.994   6.378  17.120  0.00  0.00    +0.000 C 
BRANCH  13  14
ATOM     14  C   UNL     1       3.130   6.700  18.354  0.00  0.00    +0.000 C 
BRANCH  14  15
ATOM     15  C   UNL     1       2.396   5.483  18.855  0.00  0.00    +0.000 A 
ATOM     16  C   UNL     1       1.791   4.599  17.952  0.00  0.00    +0.000 A 
ATOM     17  C   UNL     1       1.083   3.492  18.420  0.00  0.00    +0.000 A 
ATOM     18  C   UNL     1       0.971   3.264  19.790  0.00  0.00    +0.000 A 
ATOM     19  C   UNL     1       1.571   4.138  20.694  0.00  0.00    +0.000 A 
ATOM     20  C   UNL     1       2.282   5.245  20.229  0.00  0.00    +0.000 A 
ENDBRANCH  14  15
ENDBRANCH  13  14
ENDBRANCH   7  13
TORSDOF 4
ENDMDL
MODEL 3
REMARK VINA RESULT:      -7.8      0.112      1.086
REMARK  Name = 
REMARK  4 active torsions:
REMARK  status: ('A' for Active; 'I' for Inactive)
REMARK    1  A    between atoms: C_5  and  N_6
REMARK    2  A    between atoms: N_12  and  C_13
REMARK    3  A    between atoms: C_13  and  C_14
REMARK    4  A    between atoms: C_14  and  C_15
REMARK                            x       y       z     vdW  Elec       q    Type
REMARK                         _______ _______ _______ _____ _____    ______ ____
ROOT
ATOM      1  O   UNL     1       3.394   3.173  16.671  0.00  0.00    +0.000 OA
ATOM      2  S   UNL     1       4.493   3.954  17.210  0.00  0.00    +0.000 S 
ATOM      3  O   UNL     1       5.070   3.680  18.499  0.00  0.00    +0.000 OA
ATOM      4  C   UNL     1       5.775   4.011  15.982  0.00  0.00    +0.000 C 
ATOM      5  C   UNL     1       6.253   5.463  15.912  0.00  0.00    +0.000 C 
ATOM      6  C   UNL     1       4.964   6.305  16.140  0.00  0.00    +0.000 C 
ATOM      7  N   UNL     1       4.069   5.606  17.099  0.00  0.00    +0.000 NA
ENDROOT
BRANCH   5   8
ATOM      8  N   UNL     1       7.391   5.809  16.803  0.00  0.00    +0.000 NA
ATOM      9  C   UNL     1       7.281   7.141  17.416  0.00  0.00    +0.000 C 
ATOM     10  C   UNL     1       8.156   7.085  18.649  0.00  0.00    +0.000 C 
ATOM     11  C   UNL     1       7.971   5.668  19.145  0.00  0.00    +0.000 C 
ATOM     12  C   UNL     1       7.611   4.852  17.904  0.00  0.00    +0.000 C 
ENDBRANCH   5   8
BRANCH   7  13
ATOM     13  C   UNL     1       3.806   6.330  18.367  0.00  0.00    +0.000 C 
BRANCH  13  14
ATOM     14  C   UNL     1       2.311   6.254  18.729  0.00  0.00    +0.000 C 
BRANCH  14  15
ATOM     15  C   UNL     1       1.993   5.021  19.534  0.00  0.00    +0.000 A 
ATOM     16  C   UNL     1       1.178   4.014  18.997  0.00  0.00    +0.000 A 
ATOM     17  C   UNL     1       0.857   2.890  19.757  0.00  0.00    +0.000 A 
ATOM     18  C   UNL     1       1.343   2.765  21.057  0.00  0.00    +0.000 A 
ATOM     19  C   UNL     1       2.156   3.760  21.597  0.00  0.00    +0.000 A 
ATOM     20  C   UNL     1       2.480   4.885  20.839  0.00  0.00    +0.000 A 
ENDBRANCH  14  15
ENDBRANCH  13  14
ENDBRANCH   7  13
TORSDOF 4
ENDMDL
MODEL 4
REMARK VINA RESULT:      -7.7      2.042      3.180
REMARK  Name = 
REMARK  4 active torsions:
REMARK  status: ('A' for Active; 'I' for Inactive)
REMARK    1  A    between atoms: C_5  and  N_6
REMARK    2  A    between atoms: N_12  and  C_13
REMARK    3  A    between atoms: C_13  and  C_14
REMARK    4  A    between atoms: C_14  and  C_15
REMARK                            x       y       z     vdW  Elec       q    Type
REMARK                         _______ _______ _______ _____ _____    ______ ____
ROOT
ATOM      1  O   UNL     1       6.780   5.669  19.325  0.00  0.00    +0.000 OA
ATOM      2  S   UNL     1       6.484   5.832  17.912  0.00  0.00    +0.000 S 
ATOM      3  O   UNL     1       6.664   7.085  17.230  0.00  0.00    +0.000 OA
ATOM      4  C   UNL     1       7.325   4.543  17.026  0.00  0.00    +0.000 C 
ATOM      5  C   UNL     1       6.322   3.972  16.023  0.00  0.00    +0.000 C 
ATOM      6  C   UNL     1       4.957   4.030  16.766  0.00  0.00    +0.000 C 
ATOM      7  N   UNL     1       4.906   5.236  17.633  0.00  0.00    +0.000 NA
ENDROOT
BRANCH   5   8
ATOM      8  N   UNL     1       6.329   4.602  14.677  0.00  0.00    +0.000 NA
ATOM      9  C   UNL     1       7.655   5.064  14.244  0.00  0.00    +0.000 C 
ATOM     10  C   UNL     1       7.580   5.133  12.734  0.00  0.00    +0.000 C 
ATOM     11  C   UNL     1       6.694   3.961  12.374  0.00  0.00    +0.000 C 
ATOM     12  C   UNL     1       5.810   3.736  13.601  0.00  0.00    +0.000 C 
ENDBRANCH   5   8
BRANCH   7  13
ATOM     13  C   UNL     1       3.855   6.224  17.288  0.00  0.00    +0.000 C 
BRANCH  13  14
ATOM     14  C   UNL     1       2.966   6.513  18.513  0.00  0.00    +0.000 C 
BRANCH  14  15
ATOM     15  C   UNL     1       2.227   5.283  18.969  0.00  0.00    +0.000 A 
ATOM     16  C   UNL     1       2.104   4.995  20.335  0.00  0.00    +0.000 A 
ATOM     17  C   UNL     1       1.449   3.837  20.753  0.00  0.00    +0.000 A 
ATOM     18  C   UNL     1       0.918   2.957  19.812  0.00  0.00    +0.000 A 
ATOM     19  C   UNL     1       1.035   3.237  18.452  0.00  0.00    +0.000 A 
ATOM     20  C   UNL     1       1.688   4.395  18.030  0.00  0.00    +0.000 A 
ENDBRANCH  14  15
ENDBRANCH  13  14
ENDBRANCH   7  13
TORSDOF 4
ENDMDL
MODEL 5
REMARK VINA RESULT:      -7.3      2.815      6.183
REMARK  Name = 
REMARK  4 active torsions:
REMARK  status: ('A' for Active; 'I' for Inactive)
REMARK    1  A    between atoms: C_5  and  N_6
REMARK    2  A    between atoms: N_12  and  C_13
REMARK    3  A    between atoms: C_13  and  C_14
REMARK    4  A    between atoms: C_14  and  C_15
REMARK                            x       y       z     vdW  Elec       q    Type
REMARK                         _______ _______ _______ _____ _____    ______ ____
ROOT
ATOM      1  O   UNL     1       7.904   7.056  18.369  0.00  0.00    +0.000 OA
ATOM      2  S   UNL     1       7.093   5.929  17.941  0.00  0.00    +0.000 S 
ATOM      3  O   UNL     1       7.634   4.845  17.167  0.00  0.00    +0.000 OA
ATOM      4  C   UNL     1       6.258   5.285  19.369  0.00  0.00    +0.000 C 
ATOM      5  C   UNL     1       4.804   5.047  18.959  0.00  0.00    +0.000 C 
ATOM      6  C   UNL     1       4.484   6.214  17.980  0.00  0.00    +0.000 C 
ATOM      7  N   UNL     1       5.692   6.547  17.182  0.00  0.00    +0.000 NA
ENDROOT
BRANCH   5   8
ATOM      8  N   UNL     1       4.495   3.691  18.436  0.00  0.00    +0.000 NA
ATOM      9  C   UNL     1       4.397   2.661  19.481  0.00  0.00    +0.000 C 
ATOM     10  C   UNL     1       3.561   1.556  18.872  0.00  0.00    +0.000 C 
ATOM     11  C   UNL     1       2.560   2.303  18.020  0.00  0.00    +0.000 C 
ATOM     12  C   UNL     1       3.251   3.615  17.647  0.00  0.00    +0.000 C 
ENDBRANCH   5   8
BRANCH   7  13
ATOM     13  C   UNL     1       5.564   6.343  15.718  0.00  0.00    +0.000 C 
BRANCH  13  14
ATOM     14  C   UNL     1       5.266   4.864  15.405  0.00  0.00    +0.000 C 
BRANCH  14  15
ATOM     15  C   UNL     1       5.878   4.437  14.096  0.00  0.00    +0.000 A 
ATOM     16  C   UNL     1       7.117   4.952  13.691  0.00  0.00    +0.000 A 
ATOM     17  C   UNL     1       7.665   4.581  12.463  0.00  0.00    +0.000 A 
ATOM     18  C   UNL     1       6.977   3.700  11.631  0.00  0.00    +0.000 A 
ATOM     19  C   UNL     1       5.746   3.183  12.026  0.00  0.00    +0.000 A 
ATOM     20  C   UNL     1       5.196   3.550  13.255  0.00  0.00    +0.000 A 
ENDBRANCH  14  15
ENDBRANCH  13  14
ENDBRANCH   7  13
TORSDOF 4
ENDMDL
MODEL 6
REMARK VINA RESULT:      -7.3      3.148      6.537
REMARK  Name = 
REMARK  4 active torsions:
REMARK  status: ('A' for Active; 'I' for Inactive)
REMARK    1  A    between atoms: C_5  and  N_6
REMARK    2  A    between atoms: N_12  and  C_13
REMARK    3  A    between atoms: C_13  and  C_14
REMARK    4  A    between atoms: C_14  and  C_15
REMARK                            x       y       z     vdW  Elec       q    Type
REMARK                         _______ _______ _______ _____ _____    ______ ____
ROOT
ATOM      1  O   UNL     1       7.792   6.900  17.758  0.00  0.00    +0.000 OA
ATOM      2  S   UNL     1       7.088   5.637  17.618  0.00  0.00    +0.000 S 
ATOM      3  O   UNL     1       7.671   4.385  18.019  0.00  0.00    +0.000 OA
ATOM      4  C   UNL     1       5.489   5.819  18.369  0.00  0.00    +0.000 C 
ATOM      5  C   UNL     1       4.476   5.207  17.400  0.00  0.00    +0.000 C 
ATOM      6  C   UNL     1       5.031   5.557  15.990  0.00  0.00    +0.000 C 
ATOM      7  N   UNL     1       6.516   5.528  16.011  0.00  0.00    +0.000 NA
ENDROOT
BRANCH   5   8
ATOM      8  N   UNL     1       4.171   3.768  17.612  0.00  0.00    +0.000 NA
ATOM      9  C   UNL     1       4.342   3.323  19.003  0.00  0.00    +0.000 C 
ATOM     10  C   UNL     1       3.486   2.082  19.132  0.00  0.00    +0.000 C 
ATOM     11  C   UNL     1       2.294   2.386  18.253  0.00  0.00    +0.000 C 
ATOM     12  C   UNL     1       2.809   3.372  17.205  0.00  0.00    +0.000 C 
ENDBRANCH   5   8
BRANCH   7  13
ATOM     13  C   UNL     1       7.146   4.514  15.131  0.00  0.00    +0.000 C 
BRANCH  13  14
ATOM     14  C   UNL     1       7.141   4.995  13.667  0.00  0.00    +0.000 C 
BRANCH  14  15
ATOM     15  C   UNL     1       6.523   3.975  12.747  0.00  0.00    +0.000 A 
ATOM     16  C   UNL     1       5.132   3.922  12.579  0.00  0.00    +0.000 A 
ATOM     17  C   UNL     1       4.560   2.954  11.754  0.00  0.00    +0.000 A 
ATOM     18  C   UNL     1       5.371   2.031  11.096  0.00  0.00    +0.000 A 
ATOM     19  C   UNL     1       6.755   2.078  11.256  0.00  0.00    +0.000 A 
ATOM     20  C   UNL     1       7.330   3.046  12.080  0.00  0.00    +0.000 A 
ENDBRANCH  14  15
ENDBRANCH  13  14
ENDBRANCH   7  13
TORSDOF 4
ENDMDL
MODEL 7
REMARK VINA RESULT:      -7.2      2.357      6.062
REMARK  Name = 
REMARK  4 active torsions:
REMARK  status: ('A' for Active; 'I' for Inactive)
REMARK    1  A    between atoms: C_5  and  N_6
REMARK    2  A    between atoms: N_12  and  C_13
REMARK    3  A    between atoms: C_13  and  C_14
REMARK    4  A    between atoms: C_14  and  C_15
REMARK                            x       y       z     vdW  Elec       q    Type
REMARK                         _______ _______ _______ _____ _____    ______ ____
ROOT
ATOM      1  O   UNL     1       3.762   1.344  18.727  0.00  0.00    +0.000 OA
ATOM      2  S   UNL     1       3.283   2.646  18.297  0.00  0.00    +0.000 S 
ATOM      3  O   UNL     1       2.125   2.799  17.458  0.00  0.00    +0.000 OA
ATOM      4  C   UNL     1       3.115   3.669  19.739  0.00  0.00    +0.000 C 
ATOM      5  C   UNL     1       3.730   5.025  19.391  0.00  0.00    +0.000 C 
ATOM      6  C   UNL     1       4.937   4.677  18.473  0.00  0.00    +0.000 C 
ATOM      7  N   UNL     1       4.606   3.499  17.630  0.00  0.00    +0.000 NA
ENDROOT
BRANCH   5   8
ATOM      8  N   UNL     1       2.791   6.034  18.833  0.00  0.00    +0.000 NA
ATOM      9  C   UNL     1       2.353   7.040  19.811  0.00  0.00    +0.000 C 
ATOM     10  C   UNL     1       1.909   8.229  18.987  0.00  0.00    +0.000 C 
ATOM     11  C   UNL     1       2.876   8.229  17.824  0.00  0.00    +0.000 C 
ATOM     12  C   UNL     1       3.319   6.774  17.671  0.00  0.00    +0.000 C 
ENDBRANCH   5   8
BRANCH   7  13
ATOM     13  C   UNL     1       4.589   3.747  16.168  0.00  0.00    +0.000 C 
BRANCH  13  14
ATOM     14  C   UNL     1       5.594   4.855  15.799  0.00  0.00    +0.000 C 
BRANCH  14  15
ATOM     15  C   UNL     1       6.210   4.621  14.444  0.00  0.00    +0.000 A 
ATOM     16  C   UNL     1       7.336   5.353  14.042  0.00  0.00    +0.000 A 
ATOM     17  C   UNL     1       7.884   5.158  12.774  0.00  0.00    +0.000 A 
ATOM     18  C   UNL     1       7.309   4.238  11.900  0.00  0.00    +0.000 A 
ATOM     19  C   UNL     1       6.190   3.506  12.292  0.00  0.00    +0.000 A 
ATOM     20  C   UNL     1       5.641   3.697  13.561  0.00  0.00    +0.000 A 
ENDBRANCH  14  15
ENDBRANCH  13  14
ENDBRANCH   7  13
TORSDOF 4
ENDMDL
MODEL 8
REMARK VINA RESULT:      -7.2      2.966      6.747
REMARK  Name = 
REMARK  4 active torsions:
REMARK  status: ('A' for Active; 'I' for Inactive)
REMARK    1  A    between atoms: C_5  and  N_6
REMARK    2  A    between atoms: N_12  and  C_13
REMARK    3  A    between atoms: C_13  and  C_14
REMARK    4  A    between atoms: C_14  and  C_15
REMARK                            x       y       z     vdW  Elec       q    Type
REMARK                         _______ _______ _______ _____ _____    ______ ____
ROOT
ATOM      1  O   UNL     1       7.556   5.399  14.608  0.00  0.00    +0.000 OA
ATOM      2  S   UNL     1       6.604   5.844  15.611  0.00  0.00    +0.000 S 
ATOM      3  O   UNL     1       5.551   6.775  15.309  0.00  0.00    +0.000 OA
ATOM      4  C   UNL     1       5.921   4.402  16.391  0.00  0.00    +0.000 C 
ATOM      5  C   UNL     1       5.930   4.672  17.897  0.00  0.00    +0.000 C 
ATOM      6  C   UNL     1       7.231   5.490  18.135  0.00  0.00    +0.000 C 
ATOM      7  N   UNL     1       7.487   6.380  16.973  0.00  0.00    +0.000 NA
ENDROOT
BRANCH   5   8
ATOM      8  N   UNL     1       4.695   5.288  18.448  0.00  0.00    +0.000 NA
ATOM      9  C   UNL     1       3.510   5.105  17.597  0.00  0.00    +0.000 C 
ATOM     10  C   UNL     1       2.325   5.268  18.524  0.00  0.00    +0.000 C 
ATOM     11  C   UNL     1       2.807   4.655  19.820  0.00  0.00    +0.000 C 
ATOM     12  C   UNL     1       4.328   4.808  19.795  0.00  0.00    +0.000 C 
ENDBRANCH   5   8
BRANCH   7  13
ATOM     13  C   UNL     1       7.468   7.834  17.268  0.00  0.00    +0.000 C 
BRANCH  13  14
ATOM     14  C   UNL     1       8.349   8.145  18.493  0.00  0.00    +0.000 C 
BRANCH  14  15
ATOM     15  C   UNL     1       8.700   9.608  18.570  0.00  0.00    +0.000 A 
ATOM     16  C   UNL     1       9.461  10.099  19.640  0.00  0.00    +0.000 A 
ATOM     17  C   UNL     1       9.755  11.460  19.727  0.00  0.00    +0.000 A 
ATOM     18  C   UNL     1       9.288  12.338  18.752  0.00  0.00    +0.000 A 
ATOM     19  C   UNL     1       8.532  11.858  17.684  0.00  0.00    +0.000 A 
ATOM     20  C   UNL     1       8.238  10.497  17.593  0.00  0.00    +0.000 A 
ENDBRANCH  14  15
ENDBRANCH  13  14
ENDBRANCH   7  13
TORSDOF 4
ENDMDL
MODEL 9
REMARK VINA RESULT:      -7.2      2.966      4.324
REMARK  Name = 
REMARK  4 active torsions:
REMARK  status: ('A' for Active; 'I' for Inactive)
REMARK    1  A    between atoms: C_5  and  N_6
REMARK    2  A    between atoms: N_12  and  C_13
REMARK    3  A    between atoms: C_13  and  C_14
REMARK    4  A    between atoms: C_14  and  C_15
REMARK                            x       y       z     vdW  Elec       q    Type
REMARK                         _______ _______ _______ _____ _____    ______ ____
ROOT
ATOM      1  O   UNL     1       7.601   6.116  19.038  0.00  0.00    +0.000 OA
ATOM      2  S   UNL     1       7.093   6.160  17.678  0.00  0.00    +0.000 S 
ATOM      3  O   UNL     1       7.319   7.286  16.811  0.00  0.00    +0.000 OA
ATOM      4  C   UNL     1       7.595   4.667  16.859  0.00  0.00    +0.000 C 
ATOM      5  C   UNL     1       6.369   4.145  16.107  0.00  0.00    +0.000 C 
ATOM      6  C   UNL     1       5.170   4.494  17.034  0.00  0.00    +0.000 C 
ATOM      7  N   UNL     1       5.427   5.784  17.726  0.00  0.00    +0.000 NA
ENDROOT
BRANCH   5   8
ATOM      8  N   UNL     1       6.229   4.609  14.702  0.00  0.00    +0.000 NA
ATOM      9  C   UNL     1       7.501   4.998  14.076  0.00  0.00    +0.000 C 
ATOM     10  C   UNL     1       7.262   4.886  12.586  0.00  0.00    +0.000 C 
ATOM     11  C   UNL     1       6.341   3.693  12.468  0.00  0.00    +0.000 C 
ATOM     12  C   UNL     1       5.595   3.628  13.801  0.00  0.00    +0.000 C 
ENDBRANCH   5   8
BRANCH   7  13
ATOM     13  C   UNL     1       4.472   6.875  17.412  0.00  0.00    +0.000 C 
BRANCH  13  14
ATOM     14  C   UNL     1       3.037   6.459  17.790  0.00  0.00    +0.000 C 
BRANCH  14  15
ATOM     15  C   UNL     1       2.323   7.546  18.551  0.00  0.00    +0.000 A 
ATOM     16  C   UNL     1       2.044   7.390  19.916  0.00  0.00    +0.000 A 
ATOM     17  C   UNL     1       1.352   8.383  20.609  0.00  0.00    +0.000 A 
ATOM     18  C   UNL     1       0.932   9.534  19.945  0.00  0.00    +0.000 A 
ATOM     19  C   UNL     1       1.207   9.697  18.589  0.00  0.00    +0.000 A 
ATOM     20  C   UNL     1       1.901   8.707  17.893  0.00  0.00    +0.000 A 
ENDBRANCH  14  15
ENDBRANCH  13  14
ENDBRANCH   7  13
TORSDOF 4
ENDMDL
