MODEL 1
REMARK VINA RESULT:      -7.7      0.000      0.000
REMARK  Name = 
REMARK  5 active torsions:
REMARK  status: ('A' for Active; 'I' for Inactive)
REMARK    1  A    between atoms: C_4  and  N_5
REMARK    2  A    between atoms: N_5  and  N_6
REMARK    3  A    between atoms: N_6  and  C_7
REMARK    4  A    between atoms: N_6  and  C_14
REMARK    5  A    between atoms: C_7  and  C_8
REMARK                            x       y       z     vdW  Elec       q    Type
REMARK                         _______ _______ _______ _____ _____    ______ ____
ROOT
ATOM      1  N   UNL     1       3.283   5.521  17.809  0.00  0.00    +0.000 N 
ENDROOT
BRANCH   1   2
ATOM      2  C   UNL     1       4.510   5.285  17.111  0.00  0.00    +0.000 A 
ATOM      3  C   UNL     1       4.700   4.116  16.348  0.00  0.00    +0.000 A 
ATOM      4  C   UNL     1       5.909   3.834  15.702  0.00  0.00    +0.000 A 
ATOM      5  C   UNL     1       6.968   4.727  15.788  0.00  0.00    +0.000 A 
ATOM      6  C   UNL     1       6.814   5.896  16.521  0.00  0.00    +0.000 A 
ATOM      7  C   UNL     1       5.605   6.163  17.177  0.00  0.00    +0.000 A 
ENDBRANCH   1   2
BRANCH   1   8
ATOM      8  N   UNL     1       3.225   6.392  18.904  0.00  0.00    +0.000 N 
ATOM      9  H   UNL     1       4.133   6.561  19.337  0.00  0.00    +0.000 HD
BRANCH   8  13
ATOM     10  C   UNL     1       0.747   9.813  19.263  0.00  0.00    +0.000 A 
ATOM     11  C   UNL     1       1.302   9.490  18.027  0.00  0.00    +0.000 A 
ATOM     12  C   UNL     1       2.110   8.354  17.890  0.00  0.00    +0.000 A 
ATOM     13  C   UNL     1       2.387   7.536  18.990  0.00  0.00    +0.000 A 
ATOM     14  C   UNL     1       1.789   7.856  20.220  0.00  0.00    +0.000 A 
ATOM     15  C   UNL     1       0.988   8.993  20.361  0.00  0.00    +0.000 A 
ENDBRANCH   8  13
ENDBRANCH   1   8
BRANCH   1  16
ATOM     16  C   UNL     1       2.351   4.360  17.903  0.00  0.00    +0.000 C 
BRANCH  16  17
ATOM     17  C   UNL     1       2.322   3.687  19.263  0.00  0.00    +0.000 A 
ATOM     18  C   UNL     1       3.450   3.011  19.749  0.00  0.00    +0.000 A 
ATOM     19  C   UNL     1       3.402   2.451  21.017  0.00  0.00    +0.000 A 
ATOM     20  N   UNL     1       2.328   2.525  21.828  0.00  0.00    +0.000 NA
ATOM     21  C   UNL     1       1.255   3.190  21.349  0.00  0.00    +0.000 A 
ATOM     22  C   UNL     1       1.205   3.781  20.096  0.00  0.00    +0.000 A 
ENDBRANCH  16  17
ENDBRANCH   1  16
TORSDOF 5
ENDMDL
MODEL 2
REMARK VINA RESULT:      -7.7      1.263      4.753
REMARK  Name = 
REMARK  5 active torsions:
REMARK  status: ('A' for Active; 'I' for Inactive)
REMARK    1  A    between atoms: C_4  and  N_5
REMARK    2  A    between atoms: N_5  and  N_6
REMARK    3  A    between atoms: N_6  and  C_7
REMARK    4  A    between atoms: N_6  and  C_14
REMARK    5  A    between atoms: C_7  and  C_8
REMARK                            x       y       z     vdW  Elec       q    Type
REMARK                         _______ _______ _______ _____ _____    ______ ____
ROOT
ATOM      1  N   UNL     1       3.061   5.902  18.347  0.00  0.00    +0.000 N 
ENDROOT
BRANCH   1   2
ATOM      2  C   UNL     1       2.419   7.146  18.644  0.00  0.00    +0.000 A 
ATOM      3  C   UNL     1       2.271   8.142  17.658  0.00  0.00    +0.000 A 
ATOM      4  C   UNL     1       1.698   9.388  17.935  0.00  0.00    +0.000 A 
ATOM      5  C   UNL     1       1.240   9.673  19.214  0.00  0.00    +0.000 A 
ATOM      6  C   UNL     1       1.357   8.712  20.209  0.00  0.00    +0.000 A 
ATOM      7  C   UNL     1       1.946   7.472  19.926  0.00  0.00    +0.000 A 
ENDBRANCH   1   2
BRANCH   1   8
ATOM      8  N   UNL     1       4.166   5.839  17.490  0.00  0.00    +0.000 N 
ATOM      9  H   UNL     1       3.969   6.172  16.547  0.00  0.00    +0.000 HD
BRANCH   8  13
ATOM     10  C   UNL     1       8.154   6.772  18.585  0.00  0.00    +0.000 A 
ATOM     11  C   UNL     1       7.479   5.750  19.247  0.00  0.00    +0.000 A 
ATOM     12  C   UNL     1       6.166   5.420  18.886  0.00  0.00    +0.000 A 
ATOM     13  C   UNL     1       5.507   6.119  17.870  0.00  0.00    +0.000 A 
ATOM     14  C   UNL     1       6.216   7.122  17.188  0.00  0.00    +0.000 A 
ATOM     15  C   UNL     1       7.523   7.458  17.552  0.00  0.00    +0.000 A 
ENDBRANCH   8  13
ENDBRANCH   1   8
BRANCH   1  16
ATOM     16  C   UNL     1       2.169   4.707  18.280  0.00  0.00    +0.000 C 
BRANCH  16  17
ATOM     17  C   UNL     1       2.201   3.830  19.519  0.00  0.00    +0.000 A 
ATOM     18  C   UNL     1       3.392   3.209  19.923  0.00  0.00    +0.000 A 
ATOM     19  C   UNL     1       3.393   2.456  21.088  0.00  0.00    +0.000 A 
ATOM     20  N   UNL     1       2.309   2.289  21.873  0.00  0.00    +0.000 NA
ATOM     21  C   UNL     1       1.175   2.904  21.475  0.00  0.00    +0.000 A 
ATOM     22  C   UNL     1       1.073   3.675  20.328  0.00  0.00    +0.000 A 
ENDBRANCH  16  17
ENDBRANCH   1  16
TORSDOF 5
ENDMDL
MODEL 3
REMARK VINA RESULT:      -7.7      0.053      1.026
REMARK  Name = 
REMARK  5 active torsions:
REMARK  status: ('A' for Active; 'I' for Inactive)
REMARK    1  A    between atoms: C_4  and  N_5
REMARK    2  A    between atoms: N_5  and  N_6
REMARK    3  A    between atoms: N_6  and  C_7
REMARK    4  A    between atoms: N_6  and  C_14
REMARK    5  A    between atoms: C_7  and  C_8
REMARK                            x       y       z     vdW  Elec       q    Type
REMARK                         _______ _______ _______ _____ _____    ______ ____
ROOT
ATOM      1  N   UNL     1       3.308   5.560  17.798  0.00  0.00    +0.000 N 
ENDROOT
BRANCH   1   2
ATOM      2  C   UNL     1       4.522   5.303  17.086  0.00  0.00    +0.000 A 
ATOM      3  C   UNL     1       4.682   4.134  16.316  0.00  0.00    +0.000 A 
ATOM      4  C   UNL     1       5.878   3.832  15.655  0.00  0.00    +0.000 A 
ATOM      5  C   UNL     1       6.955   4.704  15.734  0.00  0.00    +0.000 A 
ATOM      6  C   UNL     1       6.831   5.872  16.473  0.00  0.00    +0.000 A 
ATOM      7  C   UNL     1       5.634   6.160  17.143  0.00  0.00    +0.000 A 
ENDBRANCH   1   2
BRANCH   1   8
ATOM      8  N   UNL     1       3.271   6.454  18.875  0.00  0.00    +0.000 N 
ATOM      9  H   UNL     1       4.191   6.662  19.262  0.00  0.00    +0.000 HD
BRANCH   8  13
ATOM     10  C   UNL     1       0.696   9.797  19.275  0.00  0.00    +0.000 A 
ATOM     11  C   UNL     1       1.250   9.499  18.033  0.00  0.00    +0.000 A 
ATOM     12  C   UNL     1       2.091   8.388  17.882  0.00  0.00    +0.000 A 
ATOM     13  C   UNL     1       2.401   7.572  18.975  0.00  0.00    +0.000 A 
ATOM     14  C   UNL     1       1.804   7.867  20.211  0.00  0.00    +0.000 A 
ATOM     15  C   UNL     1       0.971   8.979  20.366  0.00  0.00    +0.000 A 
ENDBRANCH   8  13
ENDBRANCH   1   8
BRANCH   1  16
ATOM     16  C   UNL     1       2.372   4.405  17.931  0.00  0.00    +0.000 C 
BRANCH  16  17
ATOM     17  C   UNL     1       2.356   3.767  19.308  0.00  0.00    +0.000 A 
ATOM     18  C   UNL     1       1.207   3.828  20.110  0.00  0.00    +0.000 A 
ATOM     19  C   UNL     1       1.214   3.190  21.341  0.00  0.00    +0.000 A 
ATOM     20  N   UNL     1       2.266   2.495  21.819  0.00  0.00    +0.000 NA
ATOM     21  C   UNL     1       3.359   2.437  21.029  0.00  0.00    +0.000 A 
ATOM     22  C   UNL     1       3.450   3.042  19.785  0.00  0.00    +0.000 A 
ENDBRANCH  16  17
ENDBRANCH   1  16
TORSDOF 5
ENDMDL
MODEL 4
REMARK VINA RESULT:      -7.7      0.071      1.464
REMARK  Name = 
REMARK  5 active torsions:
REMARK  status: ('A' for Active; 'I' for Inactive)
REMARK    1  A    between atoms: C_4  and  N_5
REMARK    2  A    between atoms: N_5  and  N_6
REMARK    3  A    between atoms: N_6  and  C_7
REMARK    4  A    between atoms: N_6  and  C_14
REMARK    5  A    between atoms: C_7  and  C_8
REMARK                            x       y       z     vdW  Elec       q    Type
REMARK                         _______ _______ _______ _____ _____    ______ ____
ROOT
ATOM      1  N   UNL     1       3.333   5.571  17.808  0.00  0.00    +0.000 N 
ENDROOT
BRANCH   1   2
ATOM      2  C   UNL     1       4.552   5.260  17.125  0.00  0.00    +0.000 A 
ATOM      3  C   UNL     1       5.658   6.129  17.177  0.00  0.00    +0.000 A 
ATOM      4  C   UNL     1       6.842   5.877  16.474  0.00  0.00    +0.000 A 
ATOM      5  C   UNL     1       6.960   4.730  15.702  0.00  0.00    +0.000 A 
ATOM      6  C   UNL     1       5.894   3.842  15.636  0.00  0.00    +0.000 A 
ATOM      7  C   UNL     1       4.708   4.111  16.332  0.00  0.00    +0.000 A 
ENDBRANCH   1   2
BRANCH   1   8
ATOM      8  N   UNL     1       3.306   6.489  18.865  0.00  0.00    +0.000 N 
ATOM      9  H   UNL     1       4.232   6.725  19.223  0.00  0.00    +0.000 HD
BRANCH   8  13
ATOM     10  C   UNL     1       0.673   9.789  19.253  0.00  0.00    +0.000 A 
ATOM     11  C   UNL     1       1.230   9.494  18.011  0.00  0.00    +0.000 A 
ATOM     12  C   UNL     1       2.090   8.397  17.864  0.00  0.00    +0.000 A 
ATOM     13  C   UNL     1       2.416   7.593  18.960  0.00  0.00    +0.000 A 
ATOM     14  C   UNL     1       1.816   7.882  20.197  0.00  0.00    +0.000 A 
ATOM     15  C   UNL     1       0.963   8.980  20.347  0.00  0.00    +0.000 A 
ENDBRANCH   8  13
ENDBRANCH   1   8
BRANCH   1  16
ATOM     16  C   UNL     1       2.359   4.450  17.949  0.00  0.00    +0.000 C 
BRANCH  16  17
ATOM     17  C   UNL     1       2.352   3.793  19.317  0.00  0.00    +0.000 A 
ATOM     18  C   UNL     1       1.206   3.835  20.124  0.00  0.00    +0.000 A 
ATOM     19  C   UNL     1       1.222   3.181  21.347  0.00  0.00    +0.000 A 
ATOM     20  N   UNL     1       2.281   2.487  21.811  0.00  0.00    +0.000 NA
ATOM     21  C   UNL     1       3.371   2.446  21.016  0.00  0.00    +0.000 A 
ATOM     22  C   UNL     1       3.453   3.069  19.781  0.00  0.00    +0.000 A 
ENDBRANCH  16  17
ENDBRANCH   1  16
TORSDOF 5
ENDMDL
MODEL 5
REMARK VINA RESULT:      -7.6      1.287      4.839
REMARK  Name = 
REMARK  5 active torsions:
REMARK  status: ('A' for Active; 'I' for Inactive)
REMARK    1  A    between atoms: C_4  and  N_5
REMARK    2  A    between atoms: N_5  and  N_6
REMARK    3  A    between atoms: N_6  and  C_7
REMARK    4  A    between atoms: N_6  and  C_14
REMARK    5  A    between atoms: C_7  and  C_8
REMARK                            x       y       z     vdW  Elec       q    Type
REMARK                         _______ _______ _______ _____ _____    ______ ____
ROOT
ATOM      1  N   UNL     1       3.007   6.086  18.381  0.00  0.00    +0.000 N 
ENDROOT
BRANCH   1   2
ATOM      2  C   UNL     1       2.368   7.331  18.681  0.00  0.00    +0.000 A 
ATOM      3  C   UNL     1       1.913   7.620  19.981  0.00  0.00    +0.000 A 
ATOM      4  C   UNL     1       1.235   8.806  20.290  0.00  0.00    +0.000 A 
ATOM      5  C   UNL     1       1.004   9.751  19.300  0.00  0.00    +0.000 A 
ATOM      6  C   UNL     1       1.450   9.506  18.009  0.00  0.00    +0.000 A 
ATOM      7  C   UNL     1       2.114   8.310  17.706  0.00  0.00    +0.000 A 
ENDBRANCH   1   2
BRANCH   1   8
ATOM      8  N   UNL     1       4.092   6.019  17.498  0.00  0.00    +0.000 N 
ATOM      9  H   UNL     1       3.885   6.390  16.571  0.00  0.00    +0.000 HD
BRANCH   8  13
ATOM     10  C   UNL     1       8.143   6.596  18.608  0.00  0.00    +0.000 A 
ATOM     11  C   UNL     1       7.593   7.364  17.585  0.00  0.00    +0.000 A 
ATOM     12  C   UNL     1       6.250   7.196  17.218  0.00  0.00    +0.000 A 
ATOM     13  C   UNL     1       5.448   6.245  17.857  0.00  0.00    +0.000 A 
ATOM     14  C   UNL     1       6.010   5.505  18.910  0.00  0.00    +0.000 A 
ATOM     15  C   UNL     1       7.350   5.666  19.274  0.00  0.00    +0.000 A 
ENDBRANCH   8  13
ENDBRANCH   1   8
BRANCH   1  16
ATOM     16  C   UNL     1       2.120   4.887  18.348  0.00  0.00    +0.000 C 
BRANCH  16  17
ATOM     17  C   UNL     1       2.209   4.006  19.581  0.00  0.00    +0.000 A 
ATOM     18  C   UNL     1       1.097   3.832  20.417  0.00  0.00    +0.000 A 
ATOM     19  C   UNL     1       1.204   2.980  21.506  0.00  0.00    +0.000 A 
ATOM     20  N   UNL     1       2.321   2.290  21.811  0.00  0.00    +0.000 NA
ATOM     21  C   UNL     1       3.378   2.460  20.988  0.00  0.00    +0.000 A 
ATOM     22  C   UNL     1       3.371   3.289  19.878  0.00  0.00    +0.000 A 
ENDBRANCH  16  17
ENDBRANCH   1  16
TORSDOF 5
ENDMDL
MODEL 6
REMARK VINA RESULT:      -7.6      0.109      1.803
REMARK  Name = 
REMARK  5 active torsions:
REMARK  status: ('A' for Active; 'I' for Inactive)
REMARK    1  A    between atoms: C_4  and  N_5
REMARK    2  A    between atoms: N_5  and  N_6
REMARK    3  A    between atoms: N_6  and  C_7
REMARK    4  A    between atoms: N_6  and  C_14
REMARK    5  A    between atoms: C_7  and  C_8
REMARK                            x       y       z     vdW  Elec       q    Type
REMARK                         _______ _______ _______ _____ _____    ______ ____
ROOT
ATOM      1  N   UNL     1       3.334   5.504  17.804  0.00  0.00    +0.000 N 
ENDROOT
BRANCH   1   2
ATOM      2  C   UNL     1       4.541   5.230  17.085  0.00  0.00    +0.000 A 
ATOM      3  C   UNL     1       5.618   6.136  17.098  0.00  0.00    +0.000 A 
ATOM      4  C   UNL     1       6.788   5.919  16.360  0.00  0.00    +0.000 A 
ATOM      5  C   UNL     1       6.920   4.771  15.591  0.00  0.00    +0.000 A 
ATOM      6  C   UNL     1       5.884   3.848  15.563  0.00  0.00    +0.000 A 
ATOM      7  C   UNL     1       4.711   4.082  16.293  0.00  0.00    +0.000 A 
ENDBRANCH   1   2
BRANCH   1   8
ATOM      8  N   UNL     1       3.317   6.400  18.880  0.00  0.00    +0.000 N 
ATOM      9  H   UNL     1       4.243   6.600  19.257  0.00  0.00    +0.000 HD
BRANCH   8  13
ATOM     10  C   UNL     1       0.734   9.754  19.095  0.00  0.00    +0.000 A 
ATOM     11  C   UNL     1       0.962   8.986  20.234  0.00  0.00    +0.000 A 
ATOM     12  C   UNL     1       1.825   7.884  20.182  0.00  0.00    +0.000 A 
ATOM     13  C   UNL     1       2.457   7.526  18.987  0.00  0.00    +0.000 A 
ATOM     14  C   UNL     1       2.245   8.334  17.858  0.00  0.00    +0.000 A 
ATOM     15  C   UNL     1       1.378   9.430  17.905  0.00  0.00    +0.000 A 
ENDBRANCH   8  13
ENDBRANCH   1   8
BRANCH   1  16
ATOM     16  C   UNL     1       2.383   4.362  17.945  0.00  0.00    +0.000 C 
BRANCH  16  17
ATOM     17  C   UNL     1       2.370   3.723  19.321  0.00  0.00    +0.000 A 
ATOM     18  C   UNL     1       1.223   3.782  20.124  0.00  0.00    +0.000 A 
ATOM     19  C   UNL     1       1.233   3.143  21.356  0.00  0.00    +0.000 A 
ATOM     20  N   UNL     1       2.287   2.449  21.831  0.00  0.00    +0.000 NA
ATOM     21  C   UNL     1       3.378   2.393  21.039  0.00  0.00    +0.000 A 
ATOM     22  C   UNL     1       3.466   3.000  19.796  0.00  0.00    +0.000 A 
ENDBRANCH  16  17
ENDBRANCH   1  16
TORSDOF 5
ENDMDL
MODEL 7
REMARK VINA RESULT:      -7.6      1.288      4.903
REMARK  Name = 
REMARK  5 active torsions:
REMARK  status: ('A' for Active; 'I' for Inactive)
REMARK    1  A    between atoms: C_4  and  N_5
REMARK    2  A    between atoms: N_5  and  N_6
REMARK    3  A    between atoms: N_6  and  C_7
REMARK    4  A    between atoms: N_6  and  C_14
REMARK    5  A    between atoms: C_7  and  C_8
REMARK                            x       y       z     vdW  Elec       q    Type
REMARK                         _______ _______ _______ _____ _____    ______ ____
ROOT
ATOM      1  N   UNL     1       3.027   6.045  18.420  0.00  0.00    +0.000 N 
ENDROOT
BRANCH   1   2
ATOM      2  C   UNL     1       2.375   7.291  18.685  0.00  0.00    +0.000 A 
ATOM      3  C   UNL     1       2.247   8.272  17.683  0.00  0.00    +0.000 A 
ATOM      4  C   UNL     1       1.663   9.521  17.929  0.00  0.00    +0.000 A 
ATOM      5  C   UNL     1       1.173   9.821  19.193  0.00  0.00    +0.000 A 
ATOM      6  C   UNL     1       1.270   8.874  20.202  0.00  0.00    +0.000 A 
ATOM      7  C   UNL     1       1.870   7.632  19.950  0.00  0.00    +0.000 A 
ENDBRANCH   1   2
BRANCH   1   8
ATOM      8  N   UNL     1       4.111   5.964  17.538  0.00  0.00    +0.000 N 
ATOM      9  H   UNL     1       3.906   6.328  16.607  0.00  0.00    +0.000 HD
BRANCH   8  13
ATOM     10  C   UNL     1       8.153   6.725  18.564  0.00  0.00    +0.000 A 
ATOM     11  C   UNL     1       7.448   5.729  19.235  0.00  0.00    +0.000 A 
ATOM     12  C   UNL     1       6.116   5.455  18.896  0.00  0.00    +0.000 A 
ATOM     13  C   UNL     1       5.469   6.186  17.894  0.00  0.00    +0.000 A 
ATOM     14  C   UNL     1       6.207   7.161  17.203  0.00  0.00    +0.000 A 
ATOM     15  C   UNL     1       7.533   7.440  17.545  0.00  0.00    +0.000 A 
ENDBRANCH   8  13
ENDBRANCH   1   8
BRANCH   1  16
ATOM     16  C   UNL     1       2.152   4.836  18.424  0.00  0.00    +0.000 C 
BRANCH  16  17
ATOM     17  C   UNL     1       2.285   3.970  19.664  0.00  0.00    +0.000 A 
ATOM     18  C   UNL     1       1.208   3.821  20.549  0.00  0.00    +0.000 A 
ATOM     19  C   UNL     1       1.351   2.981  21.644  0.00  0.00    +0.000 A 
ATOM     20  N   UNL     1       2.472   2.281  21.909  0.00  0.00    +0.000 NA
ATOM     21  C   UNL     1       3.494   2.427  21.040  0.00  0.00    +0.000 A 
ATOM     22  C   UNL     1       3.449   3.242  19.920  0.00  0.00    +0.000 A 
ENDBRANCH  16  17
ENDBRANCH   1  16
TORSDOF 5
ENDMDL
MODEL 8
REMARK VINA RESULT:      -7.6      1.292      4.787
REMARK  Name = 
REMARK  5 active torsions:
REMARK  status: ('A' for Active; 'I' for Inactive)
REMARK    1  A    between atoms: C_4  and  N_5
REMARK    2  A    between atoms: N_5  and  N_6
REMARK    3  A    between atoms: N_6  and  C_7
REMARK    4  A    between atoms: N_6  and  C_14
REMARK    5  A    between atoms: C_7  and  C_8
REMARK                            x       y       z     vdW  Elec       q    Type
REMARK                         _______ _______ _______ _____ _____    ______ ____
ROOT
ATOM      1  N   UNL     1       3.053   6.000  18.360  0.00  0.00    +0.000 N 
ENDROOT
BRANCH   1   2
ATOM      2  C   UNL     1       2.407   7.242  18.657  0.00  0.00    +0.000 A 
ATOM      3  C   UNL     1       2.251   8.236  17.671  0.00  0.00    +0.000 A 
ATOM      4  C   UNL     1       1.673   9.480  17.948  0.00  0.00    +0.000 A 
ATOM      5  C   UNL     1       1.216   9.764  19.228  0.00  0.00    +0.000 A 
ATOM      6  C   UNL     1       1.340   8.804  20.223  0.00  0.00    +0.000 A 
ATOM      7  C   UNL     1       1.934   7.567  19.939  0.00  0.00    +0.000 A 
ENDBRANCH   1   2
BRANCH   1   8
ATOM      8  N   UNL     1       4.142   5.939  17.481  0.00  0.00    +0.000 N 
ATOM      9  H   UNL     1       3.921   6.255  16.537  0.00  0.00    +0.000 HD
BRANCH   8  13
ATOM     10  C   UNL     1       8.163   6.743  18.555  0.00  0.00    +0.000 A 
ATOM     11  C   UNL     1       7.545   7.514  17.574  0.00  0.00    +0.000 A 
ATOM     12  C   UNL     1       6.211   7.270  17.220  0.00  0.00    +0.000 A 
ATOM     13  C   UNL     1       5.486   6.242  17.829  0.00  0.00    +0.000 A 
ATOM     14  C   UNL     1       6.114   5.498  18.842  0.00  0.00    +0.000 A 
ATOM     15  C   UNL     1       7.447   5.735  19.192  0.00  0.00    +0.000 A 
ENDBRANCH   8  13
ENDBRANCH   1   8
BRANCH   1  16
ATOM     16  C   UNL     1       2.171   4.797  18.323  0.00  0.00    +0.000 C 
BRANCH  16  17
ATOM     17  C   UNL     1       2.219   3.946  19.578  0.00  0.00    +0.000 A 
ATOM     18  C   UNL     1       1.076   3.782  20.374  0.00  0.00    +0.000 A 
ATOM     19  C   UNL     1       1.146   2.957  21.487  0.00  0.00    +0.000 A 
ATOM     20  N   UNL     1       2.256   2.283  21.850  0.00  0.00    +0.000 NA
ATOM     21  C   UNL     1       3.342   2.442  21.066  0.00  0.00    +0.000 A 
ATOM     22  C   UNL     1       3.373   3.245  19.937  0.00  0.00    +0.000 A 
ENDBRANCH  16  17
ENDBRANCH   1  16
TORSDOF 5
ENDMDL
MODEL 9
REMARK VINA RESULT:      -7.6      1.280      4.692
REMARK  Name = 
REMARK  5 active torsions:
REMARK  status: ('A' for Active; 'I' for Inactive)
REMARK    1  A    between atoms: C_4  and  N_5
REMARK    2  A    between atoms: N_5  and  N_6
REMARK    3  A    between atoms: N_6  and  C_7
REMARK    4  A    between atoms: N_6  and  C_14
REMARK    5  A    between atoms: C_7  and  C_8
REMARK                            x       y       z     vdW  Elec       q    Type
REMARK                         _______ _______ _______ _____ _____    ______ ____
ROOT
ATOM      1  N   UNL     1       2.946   6.060  18.370  0.00  0.00    +0.000 N 
ENDROOT
BRANCH   1   2
ATOM      2  C   UNL     1       2.317   7.314  18.650  0.00  0.00    +0.000 A 
ATOM      3  C   UNL     1       2.169   8.294  17.649  0.00  0.00    +0.000 A 
ATOM      4  C   UNL     1       1.607   9.550  17.908  0.00  0.00    +0.000 A 
ATOM      5  C   UNL     1       1.161   9.860  19.185  0.00  0.00    +0.000 A 
ATOM      6  C   UNL     1       1.278   8.915  20.195  0.00  0.00    +0.000 A 
ATOM      7  C   UNL     1       1.856   7.666  19.929  0.00  0.00    +0.000 A 
ENDBRANCH   1   2
BRANCH   1   8
ATOM      8  N   UNL     1       4.053   5.976  17.516  0.00  0.00    +0.000 N 
ATOM      9  H   UNL     1       3.874   6.343  16.582  0.00  0.00    +0.000 HD
BRANCH   8  13
ATOM     10  C   UNL     1       8.078   6.516  18.731  0.00  0.00    +0.000 A 
ATOM     11  C   UNL     1       7.574   7.260  17.667  0.00  0.00    +0.000 A 
ATOM     12  C   UNL     1       6.240   7.104  17.264  0.00  0.00    +0.000 A 
ATOM     13  C   UNL     1       5.402   6.190  17.909  0.00  0.00    +0.000 A 
ATOM     14  C   UNL     1       5.916   5.475  19.003  0.00  0.00    +0.000 A 
ATOM     15  C   UNL     1       7.248   5.624  19.402  0.00  0.00    +0.000 A 
ENDBRANCH   8  13
ENDBRANCH   1   8
BRANCH   1  16
ATOM     16  C   UNL     1       2.043   4.873  18.317  0.00  0.00    +0.000 C 
BRANCH  16  17
ATOM     17  C   UNL     1       2.151   3.948  19.515  0.00  0.00    +0.000 A 
ATOM     18  C   UNL     1       3.340   3.253  19.776  0.00  0.00    +0.000 A 
ATOM     19  C   UNL     1       3.417   2.456  20.908  0.00  0.00    +0.000 A 
ATOM     20  N   UNL     1       2.409   2.313  21.793  0.00  0.00    +0.000 NA
ATOM     21  C   UNL     1       1.276   2.999  21.532  0.00  0.00    +0.000 A 
ATOM     22  C   UNL     1       1.102   3.818  20.429  0.00  0.00    +0.000 A 
ENDBRANCH  16  17
ENDBRANCH   1  16
TORSDOF 5
ENDMDL
