MODEL 1
REMARK VINA RESULT:      -8.1      0.000      0.000
REMARK  Name = 
REMARK  5 active torsions:
REMARK  status: ('A' for Active; 'I' for Inactive)
REMARK    1  A    between atoms: C_1  and  S_2
REMARK    2  A    between atoms: S_2  and  C_3
REMARK    3  A    between atoms: N_6  and  C_7
REMARK    4  A    between atoms: C_11  and  C_12
REMARK    5  A    between atoms: N_21  and  C_22
REMARK                            x       y       z     vdW  Elec       q    Type
REMARK                         _______ _______ _______ _____ _____    ______ ____
ROOT
ATOM      1  C   UNL     1       3.009   5.855  18.397  0.00  0.00    +0.000 A 
ATOM      2  N   UNL     1       3.795   5.266  17.474  0.00  0.00    +0.000 NA
ATOM      3  C   UNL     1       4.001   3.927  17.517  0.00  0.00    +0.000 A 
ATOM      4  N   UNL     1       4.739   3.279  16.513  0.00  0.00    +0.000 N 
ATOM      5  C   UNL     1       3.411   3.213  18.562  0.00  0.00    +0.000 A 
ATOM      6  C   UNL     1       3.356   1.878  19.026  0.00  0.00    +0.000 A 
ATOM      7  N   UNL     1       3.982   0.841  18.442  0.00  0.00    +0.000 N 
ATOM      8  N   UNL     1       2.630   1.754  20.133  0.00  0.00    +0.000 NA
ATOM      9  N   UNL     1       2.225   3.018  20.392  0.00  0.00    +0.000 N 
ATOM     10  C   UNL     1       1.417   3.294  21.552  0.00  0.00    +0.000 C 
ATOM     11  C   UNL     1       2.661   3.933  19.472  0.00  0.00    +0.000 A 
ATOM     12  N   UNL     1       2.412   5.250  19.441  0.00  0.00    +0.000 NA
ATOM     13  H   UNL     1       4.195   2.522  16.113  0.00  0.00    +0.000 HD
ATOM     14  H   UNL     1       4.856   1.014  17.959  0.00  0.00    +0.000 HD
ATOM     15  H   UNL     1       4.020  -0.005  19.007  0.00  0.00    +0.000 HD
ENDROOT
BRANCH   4  16
ATOM     16  C   UNL     1       5.706   3.833  15.662  0.00  0.00    +0.000 A 
ATOM     17  C   UNL     1       6.632   4.755  16.164  0.00  0.00    +0.000 A 
ATOM     18  C   UNL     1       7.575   5.351  15.326  0.00  0.00    +0.000 A 
ATOM     19  C   UNL     1       7.593   5.049  13.966  0.00  0.00    +0.000 A 
ATOM     20  C   UNL     1       6.663   4.149  13.430  0.00  0.00    +0.000 A 
ATOM     21  C   UNL     1       5.729   3.548  14.290  0.00  0.00    +0.000 A 
BRANCH  20  22
ATOM     22  C   UNL     1       6.640   3.822  11.959  0.00  0.00    +0.000 C 
ATOM     23  F   UNL     1       7.247   2.641  11.655  0.00  0.00    +0.000 F 
ATOM     24  F   UNL     1       5.373   3.725  11.465  0.00  0.00    +0.000 F 
ATOM     25  F   UNL     1       7.265   4.766  11.204  0.00  0.00    +0.000 F 
ENDBRANCH  20  22
ENDBRANCH   4  16
BRANCH   1  27
ATOM     26  C   UNL     1       1.890   7.961  19.777  0.00  0.00    +0.000 C 
ATOM     27  S   UNL     1       2.623   7.578  18.164  0.00  0.00    +0.000 S 
ENDBRANCH   1  27
TORSDOF 3
ENDMDL
MODEL 2
REMARK VINA RESULT:      -7.3      5.547      7.685
REMARK  Name = 
REMARK  5 active torsions:
REMARK  status: ('A' for Active; 'I' for Inactive)
REMARK    1  A    between atoms: C_1  and  S_2
REMARK    2  A    between atoms: S_2  and  C_3
REMARK    3  A    between atoms: N_6  and  C_7
REMARK    4  A    between atoms: C_11  and  C_12
REMARK    5  A    between atoms: N_21  and  C_22
REMARK                            x       y       z     vdW  Elec       q    Type
REMARK                         _______ _______ _______ _____ _____    ______ ____
ROOT
ATOM      1  C   UNL     1       4.874   5.400  18.098  0.00  0.00    +0.000 A 
ATOM      2  N   UNL     1       3.952   6.261  18.575  0.00  0.00    +0.000 NA
ATOM      3  C   UNL     1       2.854   5.789  19.214  0.00  0.00    +0.000 A 
ATOM      4  N   UNL     1       1.929   6.667  19.801  0.00  0.00    +0.000 N 
ATOM      5  C   UNL     1       2.706   4.404  19.312  0.00  0.00    +0.000 A 
ATOM      6  C   UNL     1       1.771   3.480  19.835  0.00  0.00    +0.000 A 
ATOM      7  N   UNL     1       0.626   3.819  20.453  0.00  0.00    +0.000 N 
ATOM      8  N   UNL     1       2.134   2.217  19.628  0.00  0.00    +0.000 NA
ATOM      9  N   UNL     1       3.303   2.328  18.956  0.00  0.00    +0.000 N 
ATOM     10  C   UNL     1       4.005   1.144  18.528  0.00  0.00    +0.000 C 
ATOM     11  C   UNL     1       3.695   3.622  18.748  0.00  0.00    +0.000 A 
ATOM     12  N   UNL     1       4.808   4.056  18.138  0.00  0.00    +0.000 NA
ATOM     13  H   UNL     1       1.794   6.431  20.778  0.00  0.00    +0.000 HD
ATOM     14  H   UNL     1       0.161   4.674  20.173  0.00  0.00    +0.000 HD
ATOM     15  H   UNL     1      -0.031   3.052  20.579  0.00  0.00    +0.000 HD
ENDROOT
BRANCH   4  16
ATOM     16  C   UNL     1       1.689   8.010  19.472  0.00  0.00    +0.000 A 
ATOM     17  C   UNL     1       2.117   8.514  18.239  0.00  0.00    +0.000 A 
ATOM     18  C   UNL     1       1.927   9.857  17.910  0.00  0.00    +0.000 A 
ATOM     19  C   UNL     1       1.323  10.722  18.821  0.00  0.00    +0.000 A 
ATOM     20  C   UNL     1       0.907  10.252  20.072  0.00  0.00    +0.000 A 
ATOM     21  C   UNL     1       1.094   8.895  20.383  0.00  0.00    +0.000 A 
BRANCH  20  22
ATOM     22  C   UNL     1       0.276  11.168  21.088  0.00  0.00    +0.000 C 
ATOM     23  F   UNL     1       0.950  12.340  21.255  0.00  0.00    +0.000 F 
ATOM     24  F   UNL     1      -1.000  11.516  20.758  0.00  0.00    +0.000 F 
ATOM     25  F   UNL     1       0.201  10.604  22.325  0.00  0.00    +0.000 F 
ENDBRANCH  20  22
ENDBRANCH   4  16
BRANCH   1  27
ATOM     26  C   UNL     1       7.439   4.621  17.463  0.00  0.00    +0.000 C 
ATOM     27  S   UNL     1       6.381   6.092  17.449  0.00  0.00    +0.000 S 
ENDBRANCH   1  27
TORSDOF 3
ENDMDL
MODEL 3
REMARK VINA RESULT:      -7.2      4.171      7.170
REMARK  Name = 
REMARK  5 active torsions:
REMARK  status: ('A' for Active; 'I' for Inactive)
REMARK    1  A    between atoms: C_1  and  S_2
REMARK    2  A    between atoms: S_2  and  C_3
REMARK    3  A    between atoms: N_6  and  C_7
REMARK    4  A    between atoms: C_11  and  C_12
REMARK    5  A    between atoms: N_21  and  C_22
REMARK                            x       y       z     vdW  Elec       q    Type
REMARK                         _______ _______ _______ _____ _____    ______ ____
ROOT
ATOM      1  C   UNL     1       4.142   5.734  18.057  0.00  0.00    +0.000 A 
ATOM      2  N   UNL     1       3.390   6.409  18.949  0.00  0.00    +0.000 NA
ATOM      3  C   UNL     1       2.587   5.732  19.805  0.00  0.00    +0.000 A 
ATOM      4  N   UNL     1       1.867   6.407  20.804  0.00  0.00    +0.000 N 
ATOM      5  C   UNL     1       2.544   4.341  19.691  0.00  0.00    +0.000 A 
ATOM      6  C   UNL     1       1.878   3.255  20.305  0.00  0.00    +0.000 A 
ATOM      7  N   UNL     1       0.985   3.373  21.304  0.00  0.00    +0.000 N 
ATOM      8  N   UNL     1       2.210   2.085  19.768  0.00  0.00    +0.000 NA
ATOM      9  N   UNL     1       3.086   2.420  18.793  0.00  0.00    +0.000 N 
ATOM     10  C   UNL     1       3.662   1.397  17.957  0.00  0.00    +0.000 C 
ATOM     11  C   UNL     1       3.327   3.764  18.711  0.00  0.00    +0.000 A 
ATOM     12  N   UNL     1       4.156   4.401  17.870  0.00  0.00    +0.000 NA
ATOM     13  H   UNL     1       2.072   6.008  21.714  0.00  0.00    +0.000 HD
ATOM     14  H   UNL     1       0.415   4.209  21.346  0.00  0.00    +0.000 HD
ATOM     15  H   UNL     1       0.442   2.532  21.490  0.00  0.00    +0.000 HD
ENDROOT
BRANCH   4  16
ATOM     16  C   UNL     1       1.470   7.753  20.819  0.00  0.00    +0.000 A 
ATOM     17  C   UNL     1       1.093   8.355  22.025  0.00  0.00    +0.000 A 
ATOM     18  C   UNL     1       0.653   9.679  22.056  0.00  0.00    +0.000 A 
ATOM     19  C   UNL     1       0.563  10.415  20.876  0.00  0.00    +0.000 A 
ATOM     20  C   UNL     1       0.911   9.831  19.651  0.00  0.00    +0.000 A 
ATOM     21  C   UNL     1       1.364   8.502  19.639  0.00  0.00    +0.000 A 
BRANCH  20  22
ATOM     22  C   UNL     1       0.799  10.592  18.355  0.00  0.00    +0.000 C 
ATOM     23  F   UNL     1       0.589  11.927  18.525  0.00  0.00    +0.000 F 
ATOM     24  F   UNL     1       1.922  10.487  17.589  0.00  0.00    +0.000 F 
ATOM     25  F   UNL     1      -0.227  10.151  17.577  0.00  0.00    +0.000 F 
ENDBRANCH  20  22
ENDBRANCH   4  16
BRANCH   1  27
ATOM     26  C   UNL     1       5.486   5.591  15.656  0.00  0.00    +0.000 C 
ATOM     27  S   UNL     1       5.317   6.671  17.102  0.00  0.00    +0.000 S 
ENDBRANCH   1  27
TORSDOF 3
ENDMDL
MODEL 4
REMARK VINA RESULT:      -7.2      5.323      7.700
REMARK  Name = 
REMARK  5 active torsions:
REMARK  status: ('A' for Active; 'I' for Inactive)
REMARK    1  A    between atoms: C_1  and  S_2
REMARK    2  A    between atoms: S_2  and  C_3
REMARK    3  A    between atoms: N_6  and  C_7
REMARK    4  A    between atoms: C_11  and  C_12
REMARK    5  A    between atoms: N_21  and  C_22
REMARK                            x       y       z     vdW  Elec       q    Type
REMARK                         _______ _______ _______ _____ _____    ______ ____
ROOT
ATOM      1  C   UNL     1       4.424   5.273  17.305  0.00  0.00    +0.000 A 
ATOM      2  N   UNL     1       3.715   6.159  18.031  0.00  0.00    +0.000 NA
ATOM      3  C   UNL     1       3.034   5.743  19.127  0.00  0.00    +0.000 A 
ATOM      4  N   UNL     1       2.365   6.663  19.951  0.00  0.00    +0.000 N 
ATOM      5  C   UNL     1       3.065   4.381  19.432  0.00  0.00    +0.000 A 
ATOM      6  C   UNL     1       2.524   3.507  20.403  0.00  0.00    +0.000 A 
ATOM      7  N   UNL     1       1.718   3.889  21.410  0.00  0.00    +0.000 N 
ATOM      8  N   UNL     1       2.878   2.242  20.202  0.00  0.00    +0.000 NA
ATOM      9  N   UNL     1       3.642   2.298  19.087  0.00  0.00    +0.000 N 
ATOM     10  C   UNL     1       4.202   1.091  18.534  0.00  0.00    +0.000 C 
ATOM     11  C   UNL     1       3.793   3.564  18.589  0.00  0.00    +0.000 A 
ATOM     12  N   UNL     1       4.502   3.946  17.517  0.00  0.00    +0.000 NA
ATOM     13  H   UNL     1       2.675   6.560  20.912  0.00  0.00    +0.000 HD
ATOM     14  H   UNL     1       1.104   4.682  21.263  0.00  0.00    +0.000 HD
ATOM     15  H   UNL     1       1.246   3.126  21.889  0.00  0.00    +0.000 HD
ENDROOT
BRANCH   4  16
ATOM     16  C   UNL     1       1.890   7.938  19.611  0.00  0.00    +0.000 A 
ATOM     17  C   UNL     1       2.123   8.451  18.330  0.00  0.00    +0.000 A 
ATOM     18  C   UNL     1       1.697   9.734  17.984  0.00  0.00    +0.000 A 
ATOM     19  C   UNL     1       1.049  10.533  18.924  0.00  0.00    +0.000 A 
ATOM     20  C   UNL     1       0.823  10.056  20.221  0.00  0.00    +0.000 A 
ATOM     21  C   UNL     1       1.246   8.758  20.549  0.00  0.00    +0.000 A 
BRANCH  20  22
ATOM     22  C   UNL     1       0.148  10.905  21.266  0.00  0.00    +0.000 C 
ATOM     23  F   UNL     1      -1.171  11.135  21.012  0.00  0.00    +0.000 F 
ATOM     24  F   UNL     1       0.194  10.342  22.507  0.00  0.00    +0.000 F 
ATOM     25  F   UNL     1       0.721  12.133  21.392  0.00  0.00    +0.000 F 
ENDBRANCH  20  22
ENDBRANCH   4  16
BRANCH   1  27
ATOM     26  C   UNL     1       6.585   4.525  15.767  0.00  0.00    +0.000 C 
ATOM     27  S   UNL     1       5.450   5.919  16.001  0.00  0.00    +0.000 S 
ENDBRANCH   1  27
TORSDOF 3
ENDMDL
MODEL 5
REMARK VINA RESULT:      -6.9      4.401      7.217
REMARK  Name = 
REMARK  5 active torsions:
REMARK  status: ('A' for Active; 'I' for Inactive)
REMARK    1  A    between atoms: C_1  and  S_2
REMARK    2  A    between atoms: S_2  and  C_3
REMARK    3  A    between atoms: N_6  and  C_7
REMARK    4  A    between atoms: C_11  and  C_12
REMARK    5  A    between atoms: N_21  and  C_22
REMARK                            x       y       z     vdW  Elec       q    Type
REMARK                         _______ _______ _______ _____ _____    ______ ____
ROOT
ATOM      1  C   UNL     1       6.938   5.863  16.970  0.00  0.00    +0.000 A 
ATOM      2  N   UNL     1       5.848   5.097  17.174  0.00  0.00    +0.000 NA
ATOM      3  C   UNL     1       5.379   4.311  16.174  0.00  0.00    +0.000 A 
ATOM      4  N   UNL     1       4.303   3.436  16.392  0.00  0.00    +0.000 N 
ATOM      5  C   UNL     1       6.035   4.366  14.943  0.00  0.00    +0.000 A 
ATOM      6  C   UNL     1       5.914   3.787  13.659  0.00  0.00    +0.000 A 
ATOM      7  N   UNL     1       4.961   2.906  13.305  0.00  0.00    +0.000 N 
ATOM      8  N   UNL     1       6.839   4.228  12.812  0.00  0.00    +0.000 NA
ATOM      9  N   UNL     1       7.553   5.108  13.551  0.00  0.00    +0.000 N 
ATOM     10  C   UNL     1       8.654   5.822  12.957  0.00  0.00    +0.000 C 
ATOM     11  C   UNL     1       7.116   5.221  14.842  0.00  0.00    +0.000 A 
ATOM     12  N   UNL     1       7.625   5.987  15.819  0.00  0.00    +0.000 NA
ATOM     13  H   UNL     1       4.562   2.491  16.127  0.00  0.00    +0.000 HD
ATOM     14  H   UNL     1       4.055   2.969  13.754  0.00  0.00    +0.000 HD
ATOM     15  H   UNL     1       4.880   2.747  12.304  0.00  0.00    +0.000 HD
ENDROOT
BRANCH   4  16
ATOM     16  C   UNL     1       3.301   3.528  17.369  0.00  0.00    +0.000 A 
ATOM     17  C   UNL     1       2.087   4.156  17.066  0.00  0.00    +0.000 A 
ATOM     18  C   UNL     1       1.094   4.298  18.036  0.00  0.00    +0.000 A 
ATOM     19  C   UNL     1       1.309   3.831  19.332  0.00  0.00    +0.000 A 
ATOM     20  C   UNL     1       2.522   3.221  19.670  0.00  0.00    +0.000 A 
ATOM     21  C   UNL     1       3.507   3.075  18.679  0.00  0.00    +0.000 A 
BRANCH  20  22
ATOM     22  C   UNL     1       2.795   2.730  21.069  0.00  0.00    +0.000 C 
ATOM     23  F   UNL     1       2.751   3.716  22.008  0.00  0.00    +0.000 F 
ATOM     24  F   UNL     1       1.898   1.788  21.477  0.00  0.00    +0.000 F 
ATOM     25  F   UNL     1       4.023   2.156  21.191  0.00  0.00    +0.000 F 
ENDBRANCH  20  22
ENDBRANCH   4  16
BRANCH   1  27
ATOM     26  C   UNL     1       7.854   8.366  17.671  0.00  0.00    +0.000 C 
ATOM     27  S   UNL     1       7.615   6.715  18.380  0.00  0.00    +0.000 S 
ENDBRANCH   1  27
TORSDOF 3
ENDMDL
MODEL 6
REMARK VINA RESULT:      -6.8      5.686      8.099
REMARK  Name = 
REMARK  5 active torsions:
REMARK  status: ('A' for Active; 'I' for Inactive)
REMARK    1  A    between atoms: C_1  and  S_2
REMARK    2  A    between atoms: S_2  and  C_3
REMARK    3  A    between atoms: N_6  and  C_7
REMARK    4  A    between atoms: C_11  and  C_12
REMARK    5  A    between atoms: N_21  and  C_22
REMARK                            x       y       z     vdW  Elec       q    Type
REMARK                         _______ _______ _______ _____ _____    ______ ____
ROOT
ATOM      1  C   UNL     1       4.535   5.478  18.187  0.00  0.00    +0.000 A 
ATOM      2  N   UNL     1       3.649   6.194  18.907  0.00  0.00    +0.000 NA
ATOM      3  C   UNL     1       2.700   5.557  19.636  0.00  0.00    +0.000 A 
ATOM      4  N   UNL     1       1.826   6.277  20.467  0.00  0.00    +0.000 N 
ATOM      5  C   UNL     1       2.657   4.163  19.569  0.00  0.00    +0.000 A 
ATOM      6  C   UNL     1       1.879   3.107  20.098  0.00  0.00    +0.000 A 
ATOM      7  N   UNL     1       0.828   3.271  20.920  0.00  0.00    +0.000 N 
ATOM      8  N   UNL     1       2.284   1.914  19.671  0.00  0.00    +0.000 NA
ATOM      9  N   UNL     1       3.321   2.204  18.853  0.00  0.00    +0.000 N 
ATOM     10  C   UNL     1       4.019   1.144  18.170  0.00  0.00    +0.000 C 
ATOM     11  C   UNL     1       3.592   3.542  18.763  0.00  0.00    +0.000 A 
ATOM     12  N   UNL     1       4.563   4.138  18.056  0.00  0.00    +0.000 NA
ATOM     13  H   UNL     1       1.864   5.913  21.413  0.00  0.00    +0.000 HD
ATOM     14  H   UNL     1       0.271   4.113  20.830  0.00  0.00    +0.000 HD
ATOM     15  H   UNL     1       0.249   2.442  21.040  0.00  0.00    +0.000 HD
ENDROOT
BRANCH   4  16
ATOM     16  C   UNL     1       1.451   7.624  20.361  0.00  0.00    +0.000 A 
ATOM     17  C   UNL     1       1.772   8.349  19.206  0.00  0.00    +0.000 A 
ATOM     18  C   UNL     1       1.447   9.702  19.098  0.00  0.00    +0.000 A 
ATOM     19  C   UNL     1       0.815  10.357  20.153  0.00  0.00    +0.000 A 
ATOM     20  C   UNL     1       0.504   9.664  21.330  0.00  0.00    +0.000 A 
ATOM     21  C   UNL     1       0.826   8.299  21.418  0.00  0.00    +0.000 A 
BRANCH  20  22
ATOM     22  C   UNL     1      -0.156  10.350  22.498  0.00  0.00    +0.000 C 
ATOM     23  F   UNL     1       0.306   9.927  23.708  0.00  0.00    +0.000 F 
ATOM     24  F   UNL     1       0.028  11.701  22.483  0.00  0.00    +0.000 F 
ATOM     25  F   UNL     1      -1.502  10.156  22.526  0.00  0.00    +0.000 F 
ENDBRANCH  20  22
ENDBRANCH   4  16
BRANCH   1  27
ATOM     26  C   UNL     1       6.771   4.993  16.651  0.00  0.00    +0.000 C 
ATOM     27  S   UNL     1       5.872   6.368  17.417  0.00  0.00    +0.000 S 
ENDBRANCH   1  27
TORSDOF 3
ENDMDL
MODEL 7
REMARK VINA RESULT:      -6.8      5.705      8.378
REMARK  Name = 
REMARK  5 active torsions:
REMARK  status: ('A' for Active; 'I' for Inactive)
REMARK    1  A    between atoms: C_1  and  S_2
REMARK    2  A    between atoms: S_2  and  C_3
REMARK    3  A    between atoms: N_6  and  C_7
REMARK    4  A    between atoms: C_11  and  C_12
REMARK    5  A    between atoms: N_21  and  C_22
REMARK                            x       y       z     vdW  Elec       q    Type
REMARK                         _______ _______ _______ _____ _____    ______ ____
ROOT
ATOM      1  C   UNL     1       0.958  12.559  19.675  0.00  0.00    +0.000 A 
ATOM      2  N   UNL     1       1.145  11.232  19.527  0.00  0.00    +0.000 NA
ATOM      3  C   UNL     1       0.631  10.371  20.439  0.00  0.00    +0.000 A 
ATOM      4  N   UNL     1       0.733   8.983  20.256  0.00  0.00    +0.000 N 
ATOM      5  C   UNL     1      -0.046  10.913  21.533  0.00  0.00    +0.000 A 
ATOM      6  C   UNL     1      -0.701  10.453  22.699  0.00  0.00    +0.000 A 
ATOM      7  N   UNL     1      -0.820   9.160  23.048  0.00  0.00    +0.000 N 
ATOM      8  N   UNL     1      -1.175  11.449  23.442  0.00  0.00    +0.000 NA
ATOM      9  N   UNL     1      -0.812  12.558  22.758  0.00  0.00    +0.000 N 
ATOM     10  C   UNL     1      -1.138  13.863  23.274  0.00  0.00    +0.000 C 
ATOM     11  C   UNL     1      -0.138  12.290  21.598  0.00  0.00    +0.000 A 
ATOM     12  N   UNL     1       0.331  13.168  20.699  0.00  0.00    +0.000 NA
ATOM     13  H   UNL     1      -0.186   8.555  20.305  0.00  0.00    +0.000 HD
ATOM     14  H   UNL     1      -0.085   8.517  22.776  0.00  0.00    +0.000 HD
ATOM     15  H   UNL     1      -1.125   9.005  24.006  0.00  0.00    +0.000 HD
ENDROOT
BRANCH   4  16
ATOM     16  C   UNL     1       1.678   8.282  19.492  0.00  0.00    +0.000 A 
ATOM     17  C   UNL     1       2.063   8.772  18.238  0.00  0.00    +0.000 A 
ATOM     18  C   UNL     1       2.968   8.068  17.442  0.00  0.00    +0.000 A 
ATOM     19  C   UNL     1       3.486   6.850  17.881  0.00  0.00    +0.000 A 
ATOM     20  C   UNL     1       3.100   6.324  19.120  0.00  0.00    +0.000 A 
ATOM     21  C   UNL     1       2.198   7.051  19.914  0.00  0.00    +0.000 A 
BRANCH  20  22
ATOM     22  C   UNL     1       3.622   4.998  19.609  0.00  0.00    +0.000 C 
ATOM     23  F   UNL     1       3.067   4.597  20.787  0.00  0.00    +0.000 F 
ATOM     24  F   UNL     1       3.390   3.986  18.726  0.00  0.00    +0.000 F 
ATOM     25  F   UNL     1       4.967   5.010  19.818  0.00  0.00    +0.000 F 
ENDBRANCH  20  22
ENDBRANCH   4  16
BRANCH   1  27
ATOM     26  C   UNL     1       0.999  15.230  19.001  0.00  0.00    +0.000 C 
ATOM     27  S   UNL     1       1.487  13.614  18.342  0.00  0.00    +0.000 S 
ENDBRANCH   1  27
TORSDOF 3
ENDMDL
MODEL 8
REMARK VINA RESULT:      -6.8      4.231      7.122
REMARK  Name = 
REMARK  5 active torsions:
REMARK  status: ('A' for Active; 'I' for Inactive)
REMARK    1  A    between atoms: C_1  and  S_2
REMARK    2  A    between atoms: S_2  and  C_3
REMARK    3  A    between atoms: N_6  and  C_7
REMARK    4  A    between atoms: C_11  and  C_12
REMARK    5  A    between atoms: N_21  and  C_22
REMARK                            x       y       z     vdW  Elec       q    Type
REMARK                         _______ _______ _______ _____ _____    ______ ____
ROOT
ATOM      1  C   UNL     1       6.993   5.721  17.019  0.00  0.00    +0.000 A 
ATOM      2  N   UNL     1       5.953   4.890  17.228  0.00  0.00    +0.000 NA
ATOM      3  C   UNL     1       5.488   4.122  16.213  0.00  0.00    +0.000 A 
ATOM      4  N   UNL     1       4.468   3.182  16.431  0.00  0.00    +0.000 N 
ATOM      5  C   UNL     1       6.092   4.264  14.962  0.00  0.00    +0.000 A 
ATOM      6  C   UNL     1       5.952   3.732  13.659  0.00  0.00    +0.000 A 
ATOM      7  N   UNL     1       5.034   2.817  13.302  0.00  0.00    +0.000 N 
ATOM      8  N   UNL     1       6.820   4.258  12.800  0.00  0.00    +0.000 NA
ATOM      9  N   UNL     1       7.515   5.143  13.550  0.00  0.00    +0.000 N 
ATOM     10  C   UNL     1       8.553   5.941  12.949  0.00  0.00    +0.000 C 
ATOM     11  C   UNL     1       7.122   5.179  14.860  0.00  0.00    +0.000 A 
ATOM     12  N   UNL     1       7.627   5.930  15.850  0.00  0.00    +0.000 NA
ATOM     13  H   UNL     1       4.765   2.264  16.116  0.00  0.00    +0.000 HD
ATOM     14  H   UNL     1       4.143   2.812  13.786  0.00  0.00    +0.000 HD
ATOM     15  H   UNL     1       4.922   2.696  12.298  0.00  0.00    +0.000 HD
ENDROOT
BRANCH   4  16
ATOM     16  C   UNL     1       3.501   3.179  17.447  0.00  0.00    +0.000 A 
ATOM     17  C   UNL     1       2.573   2.134  17.524  0.00  0.00    +0.000 A 
ATOM     18  C   UNL     1       1.575   2.134  18.500  0.00  0.00    +0.000 A 
ATOM     19  C   UNL     1       1.478   3.192  19.402  0.00  0.00    +0.000 A 
ATOM     20  C   UNL     1       2.377   4.263  19.333  0.00  0.00    +0.000 A 
ATOM     21  C   UNL     1       3.383   4.242  18.353  0.00  0.00    +0.000 A 
BRANCH  20  22
ATOM     22  C   UNL     1       2.282   5.434  20.277  0.00  0.00    +0.000 C 
ATOM     23  F   UNL     1       1.036   5.982  20.339  0.00  0.00    +0.000 F 
ATOM     24  F   UNL     1       2.606   5.101  21.558  0.00  0.00    +0.000 F 
ATOM     25  F   UNL     1       3.118   6.452  19.933  0.00  0.00    +0.000 F 
ENDBRANCH  20  22
ENDBRANCH   4  16
BRANCH   1  27
ATOM     26  C   UNL     1       7.920   8.210  17.755  0.00  0.00    +0.000 C 
ATOM     27  S   UNL     1       7.678   6.549  18.440  0.00  0.00    +0.000 S 
ENDBRANCH   1  27
TORSDOF 3
ENDMDL
MODEL 9
REMARK VINA RESULT:      -6.8      5.572      8.238
REMARK  Name = 
REMARK  5 active torsions:
REMARK  status: ('A' for Active; 'I' for Inactive)
REMARK    1  A    between atoms: C_1  and  S_2
REMARK    2  A    between atoms: S_2  and  C_3
REMARK    3  A    between atoms: N_6  and  C_7
REMARK    4  A    between atoms: C_11  and  C_12
REMARK    5  A    between atoms: N_21  and  C_22
REMARK                            x       y       z     vdW  Elec       q    Type
REMARK                         _______ _______ _______ _____ _____    ______ ____
ROOT
ATOM      1  C   UNL     1      -1.339  11.248  19.058  0.00  0.00    +0.000 A 
ATOM      2  N   UNL     1      -0.480  10.221  19.212  0.00  0.00    +0.000 NA
ATOM      3  C   UNL     1      -0.159   9.788  20.455  0.00  0.00    +0.000 A 
ATOM      4  N   UNL     1       0.660   8.662  20.637  0.00  0.00    +0.000 N 
ATOM      5  C   UNL     1      -0.712  10.469  21.542  0.00  0.00    +0.000 A 
ATOM      6  C   UNL     1      -0.662  10.414  22.954  0.00  0.00    +0.000 A 
ATOM      7  N   UNL     1       0.068   9.532  23.659  0.00  0.00    +0.000 N 
ATOM      8  N   UNL     1      -1.404  11.358  23.526  0.00  0.00    +0.000 NA
ATOM      9  N   UNL     1      -1.925  12.033  22.476  0.00  0.00    +0.000 N 
ATOM     10  C   UNL     1      -2.786  13.166  22.703  0.00  0.00    +0.000 C 
ATOM     11  C   UNL     1      -1.546  11.533  21.260  0.00  0.00    +0.000 A 
ATOM     12  N   UNL     1      -1.909  11.967  20.044  0.00  0.00    +0.000 NA
ATOM     13  H   UNL     1       0.196   7.985  21.233  0.00  0.00    +0.000 HD
ATOM     14  H   UNL     1       0.936   9.194  23.259  0.00  0.00    +0.000 HD
ATOM     15  H   UNL     1       0.164   9.754  24.647  0.00  0.00    +0.000 HD
ENDROOT
BRANCH   4  16
ATOM     16  C   UNL     1       1.598   8.126  19.743  0.00  0.00    +0.000 A 
ATOM     17  C   UNL     1       1.869   8.784  18.538  0.00  0.00    +0.000 A 
ATOM     18  C   UNL     1       2.766   8.246  17.614  0.00  0.00    +0.000 A 
ATOM     19  C   UNL     1       3.391   7.028  17.874  0.00  0.00    +0.000 A 
ATOM     20  C   UNL     1       3.121   6.334  19.060  0.00  0.00    +0.000 A 
ATOM     21  C   UNL     1       2.226   6.896  19.985  0.00  0.00    +0.000 A 
BRANCH  20  22
ATOM     22  C   UNL     1       3.761   5.002  19.357  0.00  0.00    +0.000 C 
ATOM     23  F   UNL     1       3.218   4.368  20.434  0.00  0.00    +0.000 F 
ATOM     24  F   UNL     1       3.653   4.127  18.318  0.00  0.00    +0.000 F 
ATOM     25  F   UNL     1       5.091   5.109  19.621  0.00  0.00    +0.000 F 
ENDBRANCH  20  22
ENDBRANCH   4  16
BRANCH   1  27
ATOM     26  C   UNL     1      -2.178   9.963  16.770  0.00  0.00    +0.000 C 
ATOM     27  S   UNL     1      -1.868  11.633  17.402  0.00  0.00    +0.000 S 
ENDBRANCH   1  27
TORSDOF 3
ENDMDL
