MODEL 1
REMARK VINA RESULT:      -8.4      0.000      0.000
REMARK  Name = 
REMARK  5 active torsions:
REMARK  status: ('A' for Active; 'I' for Inactive)
REMARK    1  A    between atoms: C_1  and  S_2
REMARK    2  A    between atoms: S_2  and  C_5
REMARK    3  A    between atoms: C_10  and  C_11
REMARK    4  A    between atoms: N_13  and  C_14
REMARK    5  A    between atoms: C_17  and  C_18
REMARK                            x       y       z     vdW  Elec       q    Type
REMARK                         _______ _______ _______ _____ _____    ______ ____
ROOT
ATOM      1  C   UNL     1       1.603   8.453  19.924  0.00  0.00    +0.000 A 
ATOM      2  C   UNL     1       1.273   9.632  19.245  0.00  0.00    +0.000 A 
ATOM      3  C   UNL     1       0.403  10.582  19.803  0.00  0.00    +0.000 A 
ATOM      4  C   UNL     1      -0.165  10.366  21.059  0.00  0.00    +0.000 A 
ATOM      5  C   UNL     1       0.181   9.194  21.748  0.00  0.00    +0.000 A 
ATOM      6  C   UNL     1       1.056   8.251  21.193  0.00  0.00    +0.000 A 
ENDROOT
BRANCH   4   7
ATOM      7  C   UNL     1      -1.187  11.247  21.628  0.00  0.00    +0.000 A 
ATOM      8  N   UNL     1      -1.544  11.243  22.898  0.00  0.00    +0.000 NA
ATOM      9  C   UNL     1      -2.630  12.067  22.993  0.00  0.00    +0.000 A 
ATOM     10  C   UNL     1      -3.435  12.341  24.104  0.00  0.00    +0.000 A 
ATOM     11  C   UNL     1      -4.531  13.197  23.942  0.00  0.00    +0.000 A 
ATOM     12  C   UNL     1      -4.803  13.778  22.699  0.00  0.00    +0.000 A 
ATOM     13  C   UNL     1      -3.994  13.530  21.583  0.00  0.00    +0.000 A 
ATOM     14  C   UNL     1      -2.918  12.658  21.769  0.00  0.00    +0.000 A 
ATOM     15  N   UNL     1      -1.947  12.160  20.928  0.00  0.00    +0.000 N 
ATOM     16  H   UNL     1      -1.842  12.394  19.952  0.00  0.00    +0.000 HD
ENDBRANCH   4   7
BRANCH   1  19
ATOM     17  C   UNL     1       2.859   7.337  18.081  0.00  0.00    +0.000 C 
ATOM     18  O   UNL     1       2.562   8.120  17.180  0.00  0.00    +0.000 OA
ATOM     19  N   UNL     1       2.448   7.444  19.395  0.00  0.00    +0.000 N 
ATOM     20  H   UNL     1       2.733   6.724  20.063  0.00  0.00    +0.000 HD
BRANCH  17  26
ATOM     21  C   UNL     1       3.420   4.835  17.644  0.00  0.00    +0.000 A 
ATOM     22  C   UNL     1       4.353   3.909  17.131  0.00  0.00    +0.000 A 
ATOM     23  C   UNL     1       5.575   4.338  16.610  0.00  0.00    +0.000 A 
ATOM     24  C   UNL     1       5.885   5.690  16.604  0.00  0.00    +0.000 A 
ATOM     25  C   UNL     1       4.978   6.606  17.133  0.00  0.00    +0.000 A 
ATOM     26  C   UNL     1       3.735   6.201  17.671  0.00  0.00    +0.000 A 
BRANCH  21  28
ATOM     27  C   UNL     1       2.093   2.427  18.351  0.00  0.00    +0.000 C 
ATOM     28  S   UNL     1       1.880   4.185  18.232  0.00  0.00    +0.000 S 
ATOM     29  O   UNL     1       0.905   4.485  17.202  0.00  0.00    +0.000 OA
ATOM     30  O   UNL     1       1.678   4.675  19.585  0.00  0.00    +0.000 OA
ENDBRANCH  21  28
ENDBRANCH  17  26
ENDBRANCH   1  19
TORSDOF 4
ENDMDL
MODEL 2
REMARK VINA RESULT:      -8.3      1.113      1.626
REMARK  Name = 
REMARK  5 active torsions:
REMARK  status: ('A' for Active; 'I' for Inactive)
REMARK    1  A    between atoms: C_1  and  S_2
REMARK    2  A    between atoms: S_2  and  C_5
REMARK    3  A    between atoms: C_10  and  C_11
REMARK    4  A    between atoms: N_13  and  C_14
REMARK    5  A    between atoms: C_17  and  C_18
REMARK                            x       y       z     vdW  Elec       q    Type
REMARK                         _______ _______ _______ _____ _____    ______ ____
ROOT
ATOM      1  C   UNL     1       1.541   8.374  20.376  0.00  0.00    +0.000 A 
ATOM      2  C   UNL     1       0.958   8.184  21.635  0.00  0.00    +0.000 A 
ATOM      3  C   UNL     1       0.144   9.165  22.222  0.00  0.00    +0.000 A 
ATOM      4  C   UNL     1      -0.098  10.370  21.560  0.00  0.00    +0.000 A 
ATOM      5  C   UNL     1       0.470  10.552  20.291  0.00  0.00    +0.000 A 
ATOM      6  C   UNL     1       1.276   9.568  19.702  0.00  0.00    +0.000 A 
ENDROOT
BRANCH   4   7
ATOM      7  C   UNL     1      -0.817  11.484  22.182  0.00  0.00    +0.000 A 
ATOM      8  N   UNL     1      -0.291  12.676  22.396  0.00  0.00    +0.000 NA
ATOM      9  C   UNL     1      -1.203  13.367  23.142  0.00  0.00    +0.000 A 
ATOM     10  C   UNL     1      -1.097  14.645  23.704  0.00  0.00    +0.000 A 
ATOM     11  C   UNL     1      -2.160  15.127  24.475  0.00  0.00    +0.000 A 
ATOM     12  C   UNL     1      -3.311  14.355  24.665  0.00  0.00    +0.000 A 
ATOM     13  C   UNL     1      -3.440  13.084  24.092  0.00  0.00    +0.000 A 
ATOM     14  C   UNL     1      -2.357  12.619  23.343  0.00  0.00    +0.000 A 
ATOM     15  N   UNL     1      -2.105  11.442  22.672  0.00  0.00    +0.000 N 
ATOM     16  H   UNL     1      -2.743  10.665  22.593  0.00  0.00    +0.000 HD
ENDBRANCH   4   7
BRANCH   1  19
ATOM     17  C   UNL     1       2.583   7.284  18.390  0.00  0.00    +0.000 C 
ATOM     18  O   UNL     1       2.038   7.964  17.522  0.00  0.00    +0.000 OA
ATOM     19  N   UNL     1       2.399   7.433  19.750  0.00  0.00    +0.000 N 
ATOM     20  H   UNL     1       2.883   6.797  20.388  0.00  0.00    +0.000 HD
BRANCH  17  26
ATOM     21  C   UNL     1       3.254   4.856  17.737  0.00  0.00    +0.000 A 
ATOM     22  C   UNL     1       4.225   4.022  17.144  0.00  0.00    +0.000 A 
ATOM     23  C   UNL     1       5.423   4.549  16.658  0.00  0.00    +0.000 A 
ATOM     24  C   UNL     1       5.671   5.909  16.767  0.00  0.00    +0.000 A 
ATOM     25  C   UNL     1       4.726   6.735  17.376  0.00  0.00    +0.000 A 
ATOM     26  C   UNL     1       3.507   6.228  17.881  0.00  0.00    +0.000 A 
BRANCH  21  28
ATOM     27  C   UNL     1       2.094   2.352  18.400  0.00  0.00    +0.000 C 
ATOM     28  S   UNL     1       1.750   4.088  18.272  0.00  0.00    +0.000 S 
ATOM     29  O   UNL     1       0.791   4.314  17.208  0.00  0.00    +0.000 OA
ATOM     30  O   UNL     1       1.463   4.559  19.617  0.00  0.00    +0.000 OA
ENDBRANCH  21  28
ENDBRANCH  17  26
ENDBRANCH   1  19
TORSDOF 4
ENDMDL
MODEL 3
REMARK VINA RESULT:      -8.3      1.310      1.678
REMARK  Name = 
REMARK  5 active torsions:
REMARK  status: ('A' for Active; 'I' for Inactive)
REMARK    1  A    between atoms: C_1  and  S_2
REMARK    2  A    between atoms: S_2  and  C_5
REMARK    3  A    between atoms: C_10  and  C_11
REMARK    4  A    between atoms: N_13  and  C_14
REMARK    5  A    between atoms: C_17  and  C_18
REMARK                            x       y       z     vdW  Elec       q    Type
REMARK                         _______ _______ _______ _____ _____    ______ ____
ROOT
ATOM      1  C   UNL     1       2.220   7.780  18.472  0.00  0.00    +0.000 A 
ATOM      2  C   UNL     1       1.734   8.921  17.824  0.00  0.00    +0.000 A 
ATOM      3  C   UNL     1       1.001   9.900  18.512  0.00  0.00    +0.000 A 
ATOM      4  C   UNL     1       0.729   9.751  19.873  0.00  0.00    +0.000 A 
ATOM      5  C   UNL     1       1.233   8.617  20.527  0.00  0.00    +0.000 A 
ATOM      6  C   UNL     1       1.972   7.645  19.840  0.00  0.00    +0.000 A 
ENDROOT
BRANCH   4   7
ATOM      7  C   UNL     1      -0.151  10.662  20.608  0.00  0.00    +0.000 A 
ATOM      8  N   UNL     1      -0.387  10.577  21.904  0.00  0.00    +0.000 NA
ATOM      9  C   UNL     1      -1.378  11.478  22.172  0.00  0.00    +0.000 A 
ATOM     10  C   UNL     1      -2.048  11.721  23.377  0.00  0.00    +0.000 A 
ATOM     11  C   UNL     1      -3.071  12.676  23.393  0.00  0.00    +0.000 A 
ATOM     12  C   UNL     1      -3.403  13.384  22.233  0.00  0.00    +0.000 A 
ATOM     13  C   UNL     1      -2.727  13.167  21.026  0.00  0.00    +0.000 A 
ATOM     14  C   UNL     1      -1.724  12.195  21.033  0.00  0.00    +0.000 A 
ATOM     15  N   UNL     1      -0.886  11.693  20.062  0.00  0.00    +0.000 N 
ATOM     16  H   UNL     1      -0.851  12.001  19.102  0.00  0.00    +0.000 HD
ENDBRANCH   4   7
BRANCH   1  19
ATOM     17  C   UNL     1       4.261   6.793  17.431  0.00  0.00    +0.000 C 
ATOM     18  O   UNL     1       5.017   7.747  17.612  0.00  0.00    +0.000 OA
ATOM     19  N   UNL     1       2.937   6.743  17.821  0.00  0.00    +0.000 N 
ATOM     20  H   UNL     1       2.388   5.909  17.601  0.00  0.00    +0.000 HD
BRANCH  17  26
ATOM     21  C   UNL     1       4.544   4.268  16.874  0.00  0.00    +0.000 A 
ATOM     22  C   UNL     1       5.169   3.307  16.052  0.00  0.00    +0.000 A 
ATOM     23  C   UNL     1       6.082   3.689  15.068  0.00  0.00    +0.000 A 
ATOM     24  C   UNL     1       6.390   5.031  14.899  0.00  0.00    +0.000 A 
ATOM     25  C   UNL     1       5.796   5.983  15.725  0.00  0.00    +0.000 A 
ATOM     26  C   UNL     1       4.871   5.624  16.733  0.00  0.00    +0.000 A 
BRANCH  21  28
ATOM     27  C   UNL     1       3.516   1.906  18.066  0.00  0.00    +0.000 C 
ATOM     28  S   UNL     1       3.365   3.675  18.054  0.00  0.00    +0.000 S 
ATOM     29  O   UNL     1       2.063   4.045  17.534  0.00  0.00    +0.000 OA
ATOM     30  O   UNL     1       3.777   4.139  19.369  0.00  0.00    +0.000 OA
ENDBRANCH  21  28
ENDBRANCH  17  26
ENDBRANCH   1  19
TORSDOF 4
ENDMDL
MODEL 4
REMARK VINA RESULT:      -8.2      0.561      1.066
REMARK  Name = 
REMARK  5 active torsions:
REMARK  status: ('A' for Active; 'I' for Inactive)
REMARK    1  A    between atoms: C_1  and  S_2
REMARK    2  A    between atoms: S_2  and  C_5
REMARK    3  A    between atoms: C_10  and  C_11
REMARK    4  A    between atoms: N_13  and  C_14
REMARK    5  A    between atoms: C_17  and  C_18
REMARK                            x       y       z     vdW  Elec       q    Type
REMARK                         _______ _______ _______ _____ _____    ______ ____
ROOT
ATOM      1  C   UNL     1       1.489   8.292  20.279  0.00  0.00    +0.000 A 
ATOM      2  C   UNL     1       0.940   8.125  21.556  0.00  0.00    +0.000 A 
ATOM      3  C   UNL     1       0.053   9.066  22.100  0.00  0.00    +0.000 A 
ATOM      4  C   UNL     1      -0.299  10.206  21.376  0.00  0.00    +0.000 A 
ATOM      5  C   UNL     1       0.236  10.363  20.089  0.00  0.00    +0.000 A 
ATOM      6  C   UNL     1       1.115   9.418  19.543  0.00  0.00    +0.000 A 
ENDROOT
BRANCH   4   7
ATOM      7  C   UNL     1      -1.102  11.290  21.947  0.00  0.00    +0.000 A 
ATOM      8  N   UNL     1      -1.756  11.203  23.091  0.00  0.00    +0.000 NA
ATOM      9  C   UNL     1      -2.514  12.336  23.185  0.00  0.00    +0.000 A 
ATOM     10  C   UNL     1      -3.449  12.693  24.163  0.00  0.00    +0.000 A 
ATOM     11  C   UNL     1      -4.141  13.901  24.018  0.00  0.00    +0.000 A 
ATOM     12  C   UNL     1      -3.887  14.741  22.929  0.00  0.00    +0.000 A 
ATOM     13  C   UNL     1      -2.939  14.407  21.954  0.00  0.00    +0.000 A 
ATOM     14  C   UNL     1      -2.277  13.187  22.112  0.00  0.00    +0.000 A 
ATOM     15  N   UNL     1      -1.331  12.519  21.367  0.00  0.00    +0.000 N 
ATOM     16  H   UNL     1      -0.911  12.858  20.514  0.00  0.00    +0.000 HD
ENDBRANCH   4   7
BRANCH   1  19
ATOM     17  C   UNL     1       2.650   7.235  18.340  0.00  0.00    +0.000 C 
ATOM     18  O   UNL     1       2.094   7.873  17.447  0.00  0.00    +0.000 OA
ATOM     19  N   UNL     1       2.416   7.391  19.691  0.00  0.00    +0.000 N 
ATOM     20  H   UNL     1       2.916   6.792  20.352  0.00  0.00    +0.000 HD
BRANCH  17  26
ATOM     21  C   UNL     1       3.476   4.840  17.750  0.00  0.00    +0.000 A 
ATOM     22  C   UNL     1       4.508   4.053  17.197  0.00  0.00    +0.000 A 
ATOM     23  C   UNL     1       5.685   4.640  16.730  0.00  0.00    +0.000 A 
ATOM     24  C   UNL     1       5.851   6.015  16.818  0.00  0.00    +0.000 A 
ATOM     25  C   UNL     1       4.846   6.794  17.388  0.00  0.00    +0.000 A 
ATOM     26  C   UNL     1       3.645   6.226  17.873  0.00  0.00    +0.000 A 
BRANCH  21  28
ATOM     27  C   UNL     1       2.393   2.263  18.246  0.00  0.00    +0.000 C 
ATOM     28  S   UNL     1       2.006   3.995  18.264  0.00  0.00    +0.000 S 
ATOM     29  O   UNL     1       1.011   4.279  17.248  0.00  0.00    +0.000 OA
ATOM     30  O   UNL     1       1.748   4.352  19.649  0.00  0.00    +0.000 OA
ENDBRANCH  21  28
ENDBRANCH  17  26
ENDBRANCH   1  19
TORSDOF 4
ENDMDL
MODEL 5
REMARK VINA RESULT:      -8.2      3.873      9.765
REMARK  Name = 
REMARK  5 active torsions:
REMARK  status: ('A' for Active; 'I' for Inactive)
REMARK    1  A    between atoms: C_1  and  S_2
REMARK    2  A    between atoms: S_2  and  C_5
REMARK    3  A    between atoms: C_10  and  C_11
REMARK    4  A    between atoms: N_13  and  C_14
REMARK    5  A    between atoms: C_17  and  C_18
REMARK                            x       y       z     vdW  Elec       q    Type
REMARK                         _______ _______ _______ _____ _____    ______ ____
ROOT
ATOM      1  C   UNL     1       0.822  10.212  19.537  0.00  0.00    +0.000 A 
ATOM      2  C   UNL     1       0.923   9.355  20.640  0.00  0.00    +0.000 A 
ATOM      3  C   UNL     1       1.541   8.099  20.538  0.00  0.00    +0.000 A 
ATOM      4  C   UNL     1       2.066   7.668  19.319  0.00  0.00    +0.000 A 
ATOM      5  C   UNL     1       1.982   8.535  18.220  0.00  0.00    +0.000 A 
ATOM      6  C   UNL     1       1.373   9.792  18.325  0.00  0.00    +0.000 A 
ENDROOT
BRANCH   4   7
ATOM      7  C   UNL     1       2.590   6.315  19.118  0.00  0.00    +0.000 A 
ATOM      8  N   UNL     1       2.559   5.674  17.964  0.00  0.00    +0.000 NA
ATOM      9  C   UNL     1       2.973   4.398  18.225  0.00  0.00    +0.000 A 
ATOM     10  C   UNL     1       3.040   3.298  17.362  0.00  0.00    +0.000 A 
ATOM     11  C   UNL     1       3.460   2.067  17.878  0.00  0.00    +0.000 A 
ATOM     12  C   UNL     1       3.823   1.945  19.223  0.00  0.00    +0.000 A 
ATOM     13  C   UNL     1       3.782   3.041  20.094  0.00  0.00    +0.000 A 
ATOM     14  C   UNL     1       3.340   4.253  19.558  0.00  0.00    +0.000 A 
ATOM     15  N   UNL     1       3.139   5.507  20.091  0.00  0.00    +0.000 N 
ATOM     16  H   UNL     1       3.322   5.773  21.047  0.00  0.00    +0.000 HD
ENDBRANCH   4   7
BRANCH   1  19
ATOM     17  C   UNL     1       0.768  12.675  19.926  0.00  0.00    +0.000 C 
ATOM     18  O   UNL     1       1.947  12.819  20.244  0.00  0.00    +0.000 OA
ATOM     19  N   UNL     1       0.179  11.477  19.573  0.00  0.00    +0.000 N 
ATOM     20  H   UNL     1      -0.818  11.463  19.347  0.00  0.00    +0.000 HD
BRANCH  17  26
ATOM     21  C   UNL     1      -0.986  14.335  20.896  0.00  0.00    +0.000 A 
ATOM     22  C   UNL     1      -1.594  15.602  20.785  0.00  0.00    +0.000 A 
ATOM     23  C   UNL     1      -1.248  16.476  19.754  0.00  0.00    +0.000 A 
ATOM     24  C   UNL     1      -0.300  16.093  18.816  0.00  0.00    +0.000 A 
ATOM     25  C   UNL     1       0.285  14.831  18.905  0.00  0.00    +0.000 A 
ATOM     26  C   UNL     1      -0.049  13.924  19.937  0.00  0.00    +0.000 A 
BRANCH  21  28
ATOM     27  C   UNL     1      -2.807  14.174  23.067  0.00  0.00    +0.000 C 
ATOM     28  S   UNL     1      -1.463  13.329  22.274  0.00  0.00    +0.000 S 
ATOM     29  O   UNL     1      -0.317  13.303  23.161  0.00  0.00    +0.000 OA
ATOM     30  O   UNL     1      -2.002  12.084  21.751  0.00  0.00    +0.000 OA
ENDBRANCH  21  28
ENDBRANCH  17  26
ENDBRANCH   1  19
TORSDOF 4
ENDMDL
MODEL 6
REMARK VINA RESULT:      -8.2      3.478     10.152
REMARK  Name = 
REMARK  5 active torsions:
REMARK  status: ('A' for Active; 'I' for Inactive)
REMARK    1  A    between atoms: C_1  and  S_2
REMARK    2  A    between atoms: S_2  and  C_5
REMARK    3  A    between atoms: C_10  and  C_11
REMARK    4  A    between atoms: N_13  and  C_14
REMARK    5  A    between atoms: C_17  and  C_18
REMARK                            x       y       z     vdW  Elec       q    Type
REMARK                         _______ _______ _______ _____ _____    ______ ____
ROOT
ATOM      1  C   UNL     1       0.344  10.094  19.950  0.00  0.00    +0.000 A 
ATOM      2  C   UNL     1       0.658  10.181  18.588  0.00  0.00    +0.000 A 
ATOM      3  C   UNL     1       1.464   9.220  17.959  0.00  0.00    +0.000 A 
ATOM      4  C   UNL     1       1.983   8.148  18.686  0.00  0.00    +0.000 A 
ATOM      5  C   UNL     1       1.651   8.051  20.046  0.00  0.00    +0.000 A 
ATOM      6  C   UNL     1       0.840   9.006  20.671  0.00  0.00    +0.000 A 
ENDROOT
BRANCH   4   7
ATOM      7  C   UNL     1       2.943   7.198  18.120  0.00  0.00    +0.000 A 
ATOM      8  N   UNL     1       3.959   7.543  17.351  0.00  0.00    +0.000 NA
ATOM      9  C   UNL     1       4.502   6.377  16.890  0.00  0.00    +0.000 A 
ATOM     10  C   UNL     1       5.545   6.191  15.976  0.00  0.00    +0.000 A 
ATOM     11  C   UNL     1       5.899   4.883  15.622  0.00  0.00    +0.000 A 
ATOM     12  C   UNL     1       5.236   3.789  16.185  0.00  0.00    +0.000 A 
ATOM     13  C   UNL     1       4.204   3.959  17.117  0.00  0.00    +0.000 A 
ATOM     14  C   UNL     1       3.858   5.274  17.438  0.00  0.00    +0.000 A 
ATOM     15  N   UNL     1       2.904   5.827  18.263  0.00  0.00    +0.000 N 
ATOM     16  H   UNL     1       2.257   5.311  18.838  0.00  0.00    +0.000 HD
ENDBRANCH   4   7
BRANCH   1  19
ATOM     17  C   UNL     1      -0.433  11.267  22.010  0.00  0.00    +0.000 C 
ATOM     18  O   UNL     1       0.268  10.662  22.819  0.00  0.00    +0.000 OA
ATOM     19  N   UNL     1      -0.437  11.054  20.646  0.00  0.00    +0.000 N 
ATOM     20  H   UNL     1      -1.077  11.597  20.062  0.00  0.00    +0.000 HD
BRANCH  17  26
ATOM     21  C   UNL     1      -1.273  13.694  22.427  0.00  0.00    +0.000 A 
ATOM     22  C   UNL     1      -2.274  14.513  22.990  0.00  0.00    +0.000 A 
ATOM     23  C   UNL     1      -3.349  13.956  23.684  0.00  0.00    +0.000 A 
ATOM     24  C   UNL     1      -3.433  12.579  23.834  0.00  0.00    +0.000 A 
ATOM     25  C   UNL     1      -2.433  11.767  23.302  0.00  0.00    +0.000 A 
ATOM     26  C   UNL     1      -1.331  12.303  22.598  0.00  0.00    +0.000 A 
BRANCH  21  28
ATOM     27  C   UNL     1      -0.327  16.244  21.612  0.00  0.00    +0.000 C 
ATOM     28  S   UNL     1       0.017  14.504  21.523  0.00  0.00    +0.000 S 
ATOM     29  O   UNL     1      -0.117  14.054  20.152  0.00  0.00    +0.000 OA
ATOM     30  O   UNL     1       1.265  14.288  22.237  0.00  0.00    +0.000 OA
ENDBRANCH  21  28
ENDBRANCH  17  26
ENDBRANCH   1  19
TORSDOF 4
ENDMDL
MODEL 7
REMARK VINA RESULT:      -8.2      1.806      2.573
REMARK  Name = 
REMARK  5 active torsions:
REMARK  status: ('A' for Active; 'I' for Inactive)
REMARK    1  A    between atoms: C_1  and  S_2
REMARK    2  A    between atoms: S_2  and  C_5
REMARK    3  A    between atoms: C_10  and  C_11
REMARK    4  A    between atoms: N_13  and  C_14
REMARK    5  A    between atoms: C_17  and  C_18
REMARK                            x       y       z     vdW  Elec       q    Type
REMARK                         _______ _______ _______ _____ _____    ______ ____
ROOT
ATOM      1  C   UNL     1       2.240   7.680  18.628  0.00  0.00    +0.000 A 
ATOM      2  C   UNL     1       1.922   7.582  19.988  0.00  0.00    +0.000 A 
ATOM      3  C   UNL     1       1.275   8.625  20.667  0.00  0.00    +0.000 A 
ATOM      4  C   UNL     1       0.936   9.801  19.997  0.00  0.00    +0.000 A 
ATOM      5  C   UNL     1       1.236   9.891  18.630  0.00  0.00    +0.000 A 
ATOM      6  C   UNL     1       1.875   8.846  17.951  0.00  0.00    +0.000 A 
ENDROOT
BRANCH   4   7
ATOM      7  C   UNL     1       0.392  10.975  20.684  0.00  0.00    +0.000 A 
ATOM      8  N   UNL     1       0.858  12.201  20.534  0.00  0.00    +0.000 NA
ATOM      9  C   UNL     1       0.214  12.970  21.461  0.00  0.00    +0.000 A 
ATOM     10  C   UNL     1       0.404  14.321  21.773  0.00  0.00    +0.000 A 
ATOM     11  C   UNL     1      -0.356  14.883  22.805  0.00  0.00    +0.000 A 
ATOM     12  C   UNL     1      -1.298  14.115  23.496  0.00  0.00    +0.000 A 
ATOM     13  C   UNL     1      -1.515  12.768  23.181  0.00  0.00    +0.000 A 
ATOM     14  C   UNL     1      -0.729  12.227  22.160  0.00  0.00    +0.000 A 
ATOM     15  N   UNL     1      -0.633  10.970  21.605  0.00  0.00    +0.000 N 
ATOM     16  H   UNL     1      -1.192  10.171  21.864  0.00  0.00    +0.000 HD
ENDBRANCH   4   7
BRANCH   1  19
ATOM     17  C   UNL     1       4.247   6.712  17.507  0.00  0.00    +0.000 C 
ATOM     18  O   UNL     1       5.031   7.627  17.753  0.00  0.00    +0.000 OA
ATOM     19  N   UNL     1       2.923   6.673  17.898  0.00  0.00    +0.000 N 
ATOM     20  H   UNL     1       2.348   5.874  17.621  0.00  0.00    +0.000 HD
BRANCH  17  26
ATOM     21  C   UNL     1       4.520   4.214  16.833  0.00  0.00    +0.000 A 
ATOM     22  C   UNL     1       5.095   3.294  15.932  0.00  0.00    +0.000 A 
ATOM     23  C   UNL     1       5.930   3.727  14.900  0.00  0.00    +0.000 A 
ATOM     24  C   UNL     1       6.208   5.079  14.762  0.00  0.00    +0.000 A 
ATOM     25  C   UNL     1       5.663   5.990  15.665  0.00  0.00    +0.000 A 
ATOM     26  C   UNL     1       4.819   5.579  16.722  0.00  0.00    +0.000 A 
BRANCH  21  28
ATOM     27  C   UNL     1       3.629   1.795  18.022  0.00  0.00    +0.000 C 
ATOM     28  S   UNL     1       3.436   3.559  18.072  0.00  0.00    +0.000 S 
ATOM     29  O   UNL     1       2.094   3.910  17.650  0.00  0.00    +0.000 OA
ATOM     30  O   UNL     1       3.925   3.997  19.369  0.00  0.00    +0.000 OA
ENDBRANCH  21  28
ENDBRANCH  17  26
ENDBRANCH   1  19
TORSDOF 4
ENDMDL
MODEL 8
REMARK VINA RESULT:      -8.1      3.479     10.152
REMARK  Name = 
REMARK  5 active torsions:
REMARK  status: ('A' for Active; 'I' for Inactive)
REMARK    1  A    between atoms: C_1  and  S_2
REMARK    2  A    between atoms: S_2  and  C_5
REMARK    3  A    between atoms: C_10  and  C_11
REMARK    4  A    between atoms: N_13  and  C_14
REMARK    5  A    between atoms: C_17  and  C_18
REMARK                            x       y       z     vdW  Elec       q    Type
REMARK                         _______ _______ _______ _____ _____    ______ ____
ROOT
ATOM      1  C   UNL     1       0.660   9.567  19.631  0.00  0.00    +0.000 A 
ATOM      2  C   UNL     1       1.027   9.681  18.285  0.00  0.00    +0.000 A 
ATOM      3  C   UNL     1       1.906   8.766  17.684  0.00  0.00    +0.000 A 
ATOM      4  C   UNL     1       2.447   7.715  18.427  0.00  0.00    +0.000 A 
ATOM      5  C   UNL     1       2.063   7.590  19.770  0.00  0.00    +0.000 A 
ATOM      6  C   UNL     1       1.179   8.499  20.366  0.00  0.00    +0.000 A 
ENDROOT
BRANCH   4   7
ATOM      7  C   UNL     1       3.477   6.819  17.897  0.00  0.00    +0.000 A 
ATOM      8  N   UNL     1       4.678   7.215  17.519  0.00  0.00    +0.000 NA
ATOM      9  C   UNL     1       5.268   6.134  16.928  0.00  0.00    +0.000 A 
ATOM     10  C   UNL     1       6.509   6.046  16.287  0.00  0.00    +0.000 A 
ATOM     11  C   UNL     1       6.882   4.825  15.713  0.00  0.00    +0.000 A 
ATOM     12  C   UNL     1       6.038   3.713  15.795  0.00  0.00    +0.000 A 
ATOM     13  C   UNL     1       4.803   3.779  16.452  0.00  0.00    +0.000 A 
ATOM     14  C   UNL     1       4.447   5.014  16.999  0.00  0.00    +0.000 A 
ATOM     15  N   UNL     1       3.334   5.467  17.672  0.00  0.00    +0.000 N 
ATOM     16  H   UNL     1       2.530   4.908  17.917  0.00  0.00    +0.000 HD
ENDBRANCH   4   7
BRANCH   1  19
ATOM     17  C   UNL     1       0.198  11.462  21.186  0.00  0.00    +0.000 C 
ATOM     18  O   UNL     1       1.360  11.695  21.512  0.00  0.00    +0.000 OA
ATOM     19  N   UNL     1      -0.197  10.480  20.298  0.00  0.00    +0.000 N 
ATOM     20  H   UNL     1      -1.195  10.353  20.113  0.00  0.00    +0.000 HD
BRANCH  17  26
ATOM     21  C   UNL     1      -1.249  13.611  21.425  0.00  0.00    +0.000 A 
ATOM     22  C   UNL     1      -2.308  14.247  22.106  0.00  0.00    +0.000 A 
ATOM     23  C   UNL     1      -2.975  13.608  23.152  0.00  0.00    +0.000 A 
ATOM     24  C   UNL     1      -2.588  12.333  23.538  0.00  0.00    +0.000 A 
ATOM     25  C   UNL     1      -1.526  11.709  22.886  0.00  0.00    +0.000 A 
ATOM     26  C   UNL     1      -0.829  12.335  21.827  0.00  0.00    +0.000 A 
BRANCH  21  28
ATOM     27  C   UNL     1       1.096  15.005  20.643  0.00  0.00    +0.000 C 
ATOM     28  S   UNL     1      -0.508  14.495  20.081  0.00  0.00    +0.000 S 
ATOM     29  O   UNL     1      -1.341  15.663  19.869  0.00  0.00    +0.000 OA
ATOM     30  O   UNL     1      -0.292  13.554  18.994  0.00  0.00    +0.000 OA
ENDBRANCH  21  28
ENDBRANCH  17  26
ENDBRANCH   1  19
TORSDOF 4
ENDMDL
MODEL 9
REMARK VINA RESULT:      -8.0      4.108     10.268
REMARK  Name = 
REMARK  5 active torsions:
REMARK  status: ('A' for Active; 'I' for Inactive)
REMARK    1  A    between atoms: C_1  and  S_2
REMARK    2  A    between atoms: S_2  and  C_5
REMARK    3  A    between atoms: C_10  and  C_11
REMARK    4  A    between atoms: N_13  and  C_14
REMARK    5  A    between atoms: C_17  and  C_18
REMARK                            x       y       z     vdW  Elec       q    Type
REMARK                         _______ _______ _______ _____ _____    ______ ____
ROOT
ATOM      1  C   UNL     1      -0.597  10.940  22.259  0.00  0.00    +0.000 A 
ATOM      2  C   UNL     1      -0.082   9.895  23.035  0.00  0.00    +0.000 A 
ATOM      3  C   UNL     1       0.707   8.881  22.470  0.00  0.00    +0.000 A 
ATOM      4  C   UNL     1       0.992   8.887  21.104  0.00  0.00    +0.000 A 
ATOM      5  C   UNL     1       0.492   9.945  20.330  0.00  0.00    +0.000 A 
ATOM      6  C   UNL     1      -0.288  10.961  20.897  0.00  0.00    +0.000 A 
ENDROOT
BRANCH   4   7
ATOM      7  C   UNL     1       1.684   7.784  20.435  0.00  0.00    +0.000 A 
ATOM      8  N   UNL     1       2.254   7.879  19.248  0.00  0.00    +0.000 NA
ATOM      9  C   UNL     1       2.629   6.612  18.902  0.00  0.00    +0.000 A 
ATOM     10  C   UNL     1       3.198   6.156  17.707  0.00  0.00    +0.000 A 
ATOM     11  C   UNL     1       3.456   4.787  17.568  0.00  0.00    +0.000 A 
ATOM     12  C   UNL     1       3.168   3.899  18.609  0.00  0.00    +0.000 A 
ATOM     13  C   UNL     1       2.619   4.343  19.818  0.00  0.00    +0.000 A 
ATOM     14  C   UNL     1       2.353   5.711  19.923  0.00  0.00    +0.000 A 
ATOM     15  N   UNL     1       1.802   6.495  20.912  0.00  0.00    +0.000 N 
ATOM     16  H   UNL     1       1.495   6.168  21.816  0.00  0.00    +0.000 HD
ENDBRANCH   4   7
BRANCH   1  19
ATOM     17  C   UNL     1      -1.059  13.289  22.960  0.00  0.00    +0.000 C 
ATOM     18  O   UNL     1       0.046  13.761  22.695  0.00  0.00    +0.000 OA
ATOM     19  N   UNL     1      -1.427  11.972  22.769  0.00  0.00    +0.000 N 
ATOM     20  H   UNL     1      -2.366  11.675  23.045  0.00  0.00    +0.000 HD
BRANCH  17  26
ATOM     21  C   UNL     1      -3.382  14.442  23.160  0.00  0.00    +0.000 A 
ATOM     22  C   UNL     1      -4.190  15.345  23.882  0.00  0.00    +0.000 A 
ATOM     23  C   UNL     1      -3.687  16.029  24.990  0.00  0.00    +0.000 A 
ATOM     24  C   UNL     1      -2.371  15.830  25.383  0.00  0.00    +0.000 A 
ATOM     25  C   UNL     1      -1.560  14.959  24.657  0.00  0.00    +0.000 A 
ATOM     26  C   UNL     1      -2.042  14.256  23.529  0.00  0.00    +0.000 A 
BRANCH  21  28
ATOM     27  C   UNL     1      -5.576  14.534  21.361  0.00  0.00    +0.000 C 
ATOM     28  S   UNL     1      -4.140  13.590  21.804  0.00  0.00    +0.000 S 
ATOM     29  O   UNL     1      -4.549  12.301  22.325  0.00  0.00    +0.000 OA
ATOM     30  O   UNL     1      -3.230  13.657  20.672  0.00  0.00    +0.000 OA
ENDBRANCH  21  28
ENDBRANCH  17  26
ENDBRANCH   1  19
TORSDOF 4
ENDMDL
