MODEL 1
REMARK VINA RESULT:      -7.6      0.000      0.000
REMARK  Name = 
REMARK  10 active torsions:
REMARK  status: ('A' for Active; 'I' for Inactive)
REMARK    1  A    between atoms: C_1  and  C_2
REMARK    2  A    between atoms: C_2  and  N_3
REMARK    3  A    between atoms: C_2  and  C_15
REMARK    4  A    between atoms: N_3  and  C_4
REMARK    5  A    between atoms: C_4  and  C_5
REMARK    6  A    between atoms: C_5  and  C_6
REMARK    7  A    between atoms: C_6  and  C_8
REMARK    8  A    between atoms: C_12  and  O_13
REMARK    9  A    between atoms: C_15  and  O_16
REMARK   10  A    between atoms: C_15  and  C_17
REMARK                            x       y       z     vdW  Elec       q    Type
REMARK                         _______ _______ _______ _____ _____    ______ ____
ROOT
ATOM      1  N   UNL     1       5.436   4.061  17.709  0.00  0.00    +0.000 NA
ATOM      2  H   UNL     1       5.409   3.050  17.982  0.00  0.00    +0.000 HD
ENDROOT
BRANCH   1   4
ATOM      3  C   UNL     1       7.831   4.656  18.085  0.00  0.00    +0.000 C 
ATOM      4  C   UNL     1       6.730   4.344  17.050  0.00  0.00    +0.000 C 
BRANCH   4   5
ATOM      5  C   UNL     1       6.595   5.463  15.969  0.00  0.00    +0.000 C 
BRANCH   5   6
ATOM      6  C   UNL     1       6.651   4.901  14.556  0.00  0.00    +0.000 A 
ATOM      7  C   UNL     1       7.638   5.335  13.651  0.00  0.00    +0.000 A 
ATOM      8  C   UNL     1       7.693   4.808  12.354  0.00  0.00    +0.000 A 
ATOM      9  C   UNL     1       6.769   3.841  11.951  0.00  0.00    +0.000 A 
ATOM     10  C   UNL     1       5.784   3.403  12.834  0.00  0.00    +0.000 A 
ATOM     11  C   UNL     1       5.722   3.927  14.129  0.00  0.00    +0.000 A 
ENDBRANCH   5   6
BRANCH   5  12
ATOM     12  O   UNL     1       7.575   6.458  16.133  0.00  0.00    +0.000 OA
ATOM     13  H   UNL     1       7.808   6.815  15.240  0.00  0.00    +0.000 HD
ENDBRANCH   5  12
ENDBRANCH   4   5
ENDBRANCH   1   4
BRANCH   1  14
ATOM     14  C   UNL     1       5.179   4.882  18.899  0.00  0.00    +0.000 C 
BRANCH  14  15
ATOM     15  C   UNL     1       4.328   6.092  18.546  0.00  0.00    +0.000 C 
BRANCH  15  16
ATOM     16  C   UNL     1       2.988   6.048  19.248  0.00  0.00    +0.000 C 
ATOM     17  O   UNL     1       2.455   7.089  19.609  0.00  0.00    +0.000 OA
BRANCH  16  18
ATOM     18  C   UNL     1       2.288   4.762  19.472  0.00  0.00    +0.000 A 
ATOM     19  C   UNL     1       1.657   4.079  18.414  0.00  0.00    +0.000 A 
ATOM     20  C   UNL     1       0.975   2.888  18.650  0.00  0.00    +0.000 A 
ATOM     21  C   UNL     1       0.911   2.360  19.941  0.00  0.00    +0.000 A 
ATOM     22  C   UNL     1       1.540   3.024  21.004  0.00  0.00    +0.000 A 
ATOM     23  C   UNL     1       2.225   4.216  20.768  0.00  0.00    +0.000 A 
BRANCH  22  24
ATOM     24  O   UNL     1       1.485   2.531  22.255  0.00  0.00    +0.000 OA
ATOM     25  H   UNL     1       1.970   1.736  22.516  0.00  0.00    +0.000 HD
ENDBRANCH  22  24
ENDBRANCH  16  18
ENDBRANCH  15  16
ENDBRANCH  14  15
ENDBRANCH   1  14
TORSDOF 9
ENDMDL
MODEL 2
REMARK VINA RESULT:      -7.5      1.319      1.760
REMARK  Name = 
REMARK  10 active torsions:
REMARK  status: ('A' for Active; 'I' for Inactive)
REMARK    1  A    between atoms: C_1  and  C_2
REMARK    2  A    between atoms: C_2  and  N_3
REMARK    3  A    between atoms: C_2  and  C_15
REMARK    4  A    between atoms: N_3  and  C_4
REMARK    5  A    between atoms: C_4  and  C_5
REMARK    6  A    between atoms: C_5  and  C_6
REMARK    7  A    between atoms: C_6  and  C_8
REMARK    8  A    between atoms: C_12  and  O_13
REMARK    9  A    between atoms: C_15  and  O_16
REMARK   10  A    between atoms: C_15  and  C_17
REMARK                            x       y       z     vdW  Elec       q    Type
REMARK                         _______ _______ _______ _____ _____    ______ ____
ROOT
ATOM      1  N   UNL     1       4.435   5.581  16.732  0.00  0.00    +0.000 NA
ATOM      2  H   UNL     1       3.525   5.095  16.546  0.00  0.00    +0.000 HD
ENDROOT
BRANCH   1   4
ATOM      3  C   UNL     1       5.690   4.184  18.377  0.00  0.00    +0.000 C 
ATOM      4  C   UNL     1       5.496   4.562  16.894  0.00  0.00    +0.000 C 
BRANCH   4   5
ATOM      5  C   UNL     1       6.830   5.005  16.213  0.00  0.00    +0.000 C 
BRANCH   5   6
ATOM      6  C   UNL     1       6.839   4.699  14.723  0.00  0.00    +0.000 A 
ATOM      7  C   UNL     1       7.709   5.386  13.855  0.00  0.00    +0.000 A 
ATOM      8  C   UNL     1       7.722   5.095  12.485  0.00  0.00    +0.000 A 
ATOM      9  C   UNL     1       6.872   4.114  11.969  0.00  0.00    +0.000 A 
ATOM     10  C   UNL     1       6.003   3.427  12.815  0.00  0.00    +0.000 A 
ATOM     11  C   UNL     1       5.983   3.714  14.182  0.00  0.00    +0.000 A 
ENDBRANCH   5   6
BRANCH   5  12
ATOM     12  O   UNL     1       7.945   4.416  16.835  0.00  0.00    +0.000 OA
ATOM     13  H   UNL     1       8.532   4.041  16.132  0.00  0.00    +0.000 HD
ENDBRANCH   5  12
ENDBRANCH   4   5
ENDBRANCH   1   4
BRANCH   1  14
ATOM     14  C   UNL     1       4.273   6.466  17.893  0.00  0.00    +0.000 C 
BRANCH  14  15
ATOM     15  C   UNL     1       2.824   6.903  18.039  0.00  0.00    +0.000 C 
BRANCH  15  16
ATOM     16  C   UNL     1       2.276   6.548  19.404  0.00  0.00    +0.000 C 
ATOM     17  O   UNL     1       1.983   7.438  20.193  0.00  0.00    +0.000 OA
BRANCH  16  18
ATOM     18  C   UNL     1       2.049   5.136  19.789  0.00  0.00    +0.000 A 
ATOM     19  C   UNL     1       2.309   4.684  21.097  0.00  0.00    +0.000 A 
ATOM     20  C   UNL     1       2.122   3.345  21.432  0.00  0.00    +0.000 A 
ATOM     21  C   UNL     1       1.673   2.438  20.470  0.00  0.00    +0.000 A 
ATOM     22  C   UNL     1       1.402   2.873  19.165  0.00  0.00    +0.000 A 
ATOM     23  C   UNL     1       1.588   4.214  18.830  0.00  0.00    +0.000 A 
BRANCH  22  24
ATOM     24  O   UNL     1       0.973   2.012  18.225  0.00  0.00    +0.000 OA
ATOM     25  H   UNL     1       0.168   2.171  17.711  0.00  0.00    +0.000 HD
ENDBRANCH  22  24
ENDBRANCH  16  18
ENDBRANCH  15  16
ENDBRANCH  14  15
ENDBRANCH   1  14
TORSDOF 9
ENDMDL
MODEL 3
REMARK VINA RESULT:      -7.5      1.020      1.100
REMARK  Name = 
REMARK  10 active torsions:
REMARK  status: ('A' for Active; 'I' for Inactive)
REMARK    1  A    between atoms: C_1  and  C_2
REMARK    2  A    between atoms: C_2  and  N_3
REMARK    3  A    between atoms: C_2  and  C_15
REMARK    4  A    between atoms: N_3  and  C_4
REMARK    5  A    between atoms: C_4  and  C_5
REMARK    6  A    between atoms: C_5  and  C_6
REMARK    7  A    between atoms: C_6  and  C_8
REMARK    8  A    between atoms: C_12  and  O_13
REMARK    9  A    between atoms: C_15  and  O_16
REMARK   10  A    between atoms: C_15  and  C_17
REMARK                            x       y       z     vdW  Elec       q    Type
REMARK                         _______ _______ _______ _____ _____    ______ ____
ROOT
ATOM      1  N   UNL     1       7.225   4.609  17.925  0.00  0.00    +0.000 NA
ATOM      2  H   UNL     1       7.753   4.970  18.755  0.00  0.00    +0.000 HD
ENDROOT
BRANCH   1   4
ATOM      3  C   UNL     1       7.423   7.053  17.456  0.00  0.00    +0.000 C 
ATOM      4  C   UNL     1       7.241   5.640  16.864  0.00  0.00    +0.000 C 
BRANCH   4   5
ATOM      5  C   UNL     1       5.984   5.539  15.941  0.00  0.00    +0.000 C 
BRANCH   5   6
ATOM      6  C   UNL     1       6.330   4.987  14.566  0.00  0.00    +0.000 A 
ATOM      7  C   UNL     1       7.454   5.464  13.865  0.00  0.00    +0.000 A 
ATOM      8  C   UNL     1       7.776   4.948  12.603  0.00  0.00    +0.000 A 
ATOM      9  C   UNL     1       6.985   3.948  12.032  0.00  0.00    +0.000 A 
ATOM     10  C   UNL     1       5.867   3.467  12.713  0.00  0.00    +0.000 A 
ATOM     11  C   UNL     1       5.539   3.981  13.971  0.00  0.00    +0.000 A 
ENDBRANCH   5   6
BRANCH   5  12
ATOM     12  O   UNL     1       5.337   6.780  15.816  0.00  0.00    +0.000 OA
ATOM     13  H   UNL     1       5.516   7.134  14.909  0.00  0.00    +0.000 HD
ENDBRANCH   5  12
ENDBRANCH   4   5
ENDBRANCH   1   4
BRANCH   1  14
ATOM     14  C   UNL     1       5.877   4.213  18.354  0.00  0.00    +0.000 C 
BRANCH  14  15
ATOM     15  C   UNL     1       5.260   5.281  19.246  0.00  0.00    +0.000 C 
BRANCH  15  16
ATOM     16  C   UNL     1       3.817   5.542  18.874  0.00  0.00    +0.000 C 
ATOM     17  O   UNL     1       3.524   6.552  18.247  0.00  0.00    +0.000 OA
BRANCH  16  18
ATOM     18  C   UNL     1       2.754   4.572  19.222  0.00  0.00    +0.000 A 
ATOM     19  C   UNL     1       1.808   4.150  18.268  0.00  0.00    +0.000 A 
ATOM     20  C   UNL     1       0.794   3.263  18.623  0.00  0.00    +0.000 A 
ATOM     21  C   UNL     1       0.708   2.785  19.932  0.00  0.00    +0.000 A 
ATOM     22  C   UNL     1       1.646   3.189  20.892  0.00  0.00    +0.000 A 
ATOM     23  C   UNL     1       2.662   4.076  20.537  0.00  0.00    +0.000 A 
BRANCH  22  24
ATOM     24  O   UNL     1       1.576   2.741  22.159  0.00  0.00    +0.000 OA
ATOM     25  H   UNL     1       0.922   3.077  22.788  0.00  0.00    +0.000 HD
ENDBRANCH  22  24
ENDBRANCH  16  18
ENDBRANCH  15  16
ENDBRANCH  14  15
ENDBRANCH   1  14
TORSDOF 9
ENDMDL
MODEL 4
REMARK VINA RESULT:      -7.5      1.804      7.569
REMARK  Name = 
REMARK  10 active torsions:
REMARK  status: ('A' for Active; 'I' for Inactive)
REMARK    1  A    between atoms: C_1  and  C_2
REMARK    2  A    between atoms: C_2  and  N_3
REMARK    3  A    between atoms: C_2  and  C_15
REMARK    4  A    between atoms: N_3  and  C_4
REMARK    5  A    between atoms: C_4  and  C_5
REMARK    6  A    between atoms: C_5  and  C_6
REMARK    7  A    between atoms: C_6  and  C_8
REMARK    8  A    between atoms: C_12  and  O_13
REMARK    9  A    between atoms: C_15  and  O_16
REMARK   10  A    between atoms: C_15  and  C_17
REMARK                            x       y       z     vdW  Elec       q    Type
REMARK                         _______ _______ _______ _____ _____    ______ ____
ROOT
ATOM      1  N   UNL     1       4.516   6.681  17.896  0.00  0.00    +0.000 NA
ATOM      2  H   UNL     1       4.870   5.968  18.577  0.00  0.00    +0.000 HD
ENDROOT
BRANCH   1   4
ATOM      3  C   UNL     1       2.680   8.373  17.844  0.00  0.00    +0.000 C 
ATOM      4  C   UNL     1       3.078   6.914  18.152  0.00  0.00    +0.000 C 
BRANCH   4   5
ATOM      5  C   UNL     1       2.671   6.479  19.596  0.00  0.00    +0.000 C 
BRANCH   5   6
ATOM      6  C   UNL     1       2.065   5.083  19.622  0.00  0.00    +0.000 A 
ATOM      7  C   UNL     1       1.775   4.451  20.846  0.00  0.00    +0.000 A 
ATOM      8  C   UNL     1       1.209   3.170  20.867  0.00  0.00    +0.000 A 
ATOM      9  C   UNL     1       0.922   2.511  19.669  0.00  0.00    +0.000 A 
ATOM     10  C   UNL     1       1.206   3.123  18.449  0.00  0.00    +0.000 A 
ATOM     11  C   UNL     1       1.773   4.400  18.422  0.00  0.00    +0.000 A 
ENDBRANCH   5   6
BRANCH   5  12
ATOM     12  O   UNL     1       1.785   7.401  20.181  0.00  0.00    +0.000 OA
ATOM     13  H   UNL     1       1.686   7.174  21.139  0.00  0.00    +0.000 HD
ENDBRANCH   5  12
ENDBRANCH   4   5
ENDBRANCH   1   4
BRANCH   1  14
ATOM     14  C   UNL     1       4.815   6.226  16.532  0.00  0.00    +0.000 C 
BRANCH  14  15
ATOM     15  C   UNL     1       5.276   4.776  16.537  0.00  0.00    +0.000 C 
BRANCH  15  16
ATOM     16  C   UNL     1       6.654   4.635  15.927  0.00  0.00    +0.000 C 
ATOM     17  O   UNL     1       7.640   4.601  16.651  0.00  0.00    +0.000 OA
BRANCH  16  18
ATOM     18  C   UNL     1       6.827   4.494  14.463  0.00  0.00    +0.000 A 
ATOM     19  C   UNL     1       7.712   5.324  13.748  0.00  0.00    +0.000 A 
ATOM     20  C   UNL     1       7.836   5.200  12.366  0.00  0.00    +0.000 A 
ATOM     21  C   UNL     1       7.082   4.249  11.677  0.00  0.00    +0.000 A 
ATOM     22  C   UNL     1       6.201   3.411  12.374  0.00  0.00    +0.000 A 
ATOM     23  C   UNL     1       6.077   3.533  13.758  0.00  0.00    +0.000 A 
BRANCH  22  24
ATOM     24  O   UNL     1       5.463   2.491  11.726  0.00  0.00    +0.000 OA
ATOM     25  H   UNL     1       5.864   1.810  11.168  0.00  0.00    +0.000 HD
ENDBRANCH  22  24
ENDBRANCH  16  18
ENDBRANCH  15  16
ENDBRANCH  14  15
ENDBRANCH   1  14
TORSDOF 9
ENDMDL
MODEL 5
REMARK VINA RESULT:      -7.4      1.499      1.849
REMARK  Name = 
REMARK  10 active torsions:
REMARK  status: ('A' for Active; 'I' for Inactive)
REMARK    1  A    between atoms: C_1  and  C_2
REMARK    2  A    between atoms: C_2  and  N_3
REMARK    3  A    between atoms: C_2  and  C_15
REMARK    4  A    between atoms: N_3  and  C_4
REMARK    5  A    between atoms: C_4  and  C_5
REMARK    6  A    between atoms: C_5  and  C_6
REMARK    7  A    between atoms: C_6  and  C_8
REMARK    8  A    between atoms: C_12  and  O_13
REMARK    9  A    between atoms: C_15  and  O_16
REMARK   10  A    between atoms: C_15  and  C_17
REMARK                            x       y       z     vdW  Elec       q    Type
REMARK                         _______ _______ _______ _____ _____    ______ ____
ROOT
ATOM      1  N   UNL     1       4.198   4.900  16.859  0.00  0.00    +0.000 NA
ATOM      2  H   UNL     1       3.700   4.041  17.194  0.00  0.00    +0.000 HD
ENDROOT
BRANCH   1   4
ATOM      3  C   UNL     1       6.342   4.562  18.092  0.00  0.00    +0.000 C 
ATOM      4  C   UNL     1       5.639   4.593  16.720  0.00  0.00    +0.000 C 
BRANCH   4   5
ATOM      5  C   UNL     1       6.340   5.560  15.713  0.00  0.00    +0.000 C 
BRANCH   5   6
ATOM      6  C   UNL     1       6.513   4.927  14.341  0.00  0.00    +0.000 A 
ATOM      7  C   UNL     1       7.568   5.324  13.496  0.00  0.00    +0.000 A 
ATOM      8  C   UNL     1       7.730   4.733  12.237  0.00  0.00    +0.000 A 
ATOM      9  C   UNL     1       6.847   3.738  11.811  0.00  0.00    +0.000 A 
ATOM     10  C   UNL     1       5.796   3.336  12.634  0.00  0.00    +0.000 A 
ATOM     11  C   UNL     1       5.627   3.924  13.890  0.00  0.00    +0.000 A 
ENDBRANCH   5   6
BRANCH   5  12
ATOM     12  O   UNL     1       7.582   6.000  16.203  0.00  0.00    +0.000 OA
ATOM     13  H   UNL     1       8.044   5.229  16.618  0.00  0.00    +0.000 HD
ENDBRANCH   5  12
ENDBRANCH   4   5
ENDBRANCH   1   4
BRANCH   1  14
ATOM     14  C   UNL     1       3.909   6.007  17.780  0.00  0.00    +0.000 C 
BRANCH  14  15
ATOM     15  C   UNL     1       2.430   6.039  18.136  0.00  0.00    +0.000 C 
BRANCH  15  16
ATOM     16  C   UNL     1       1.857   4.642  18.234  0.00  0.00    +0.000 C 
ATOM     17  O   UNL     1       1.229   4.174  17.292  0.00  0.00    +0.000 OA
BRANCH  16  18
ATOM     18  C   UNL     1       2.078   3.811  19.440  0.00  0.00    +0.000 A 
ATOM     19  C   UNL     1       1.052   3.605  20.383  0.00  0.00    +0.000 A 
ATOM     20  C   UNL     1       1.289   2.849  21.529  0.00  0.00    +0.000 A 
ATOM     21  C   UNL     1       2.548   2.287  21.751  0.00  0.00    +0.000 A 
ATOM     22  C   UNL     1       3.577   2.477  20.818  0.00  0.00    +0.000 A 
ATOM     23  C   UNL     1       3.341   3.233  19.671  0.00  0.00    +0.000 A 
BRANCH  22  24
ATOM     24  O   UNL     1       4.797   1.947  21.019  0.00  0.00    +0.000 OA
ATOM     25  H   UNL     1       4.920   1.079  21.429  0.00  0.00    +0.000 HD
ENDBRANCH  22  24
ENDBRANCH  16  18
ENDBRANCH  15  16
ENDBRANCH  14  15
ENDBRANCH   1  14
TORSDOF 9
ENDMDL
MODEL 6
REMARK VINA RESULT:      -7.3      1.654      7.569
REMARK  Name = 
REMARK  10 active torsions:
REMARK  status: ('A' for Active; 'I' for Inactive)
REMARK    1  A    between atoms: C_1  and  C_2
REMARK    2  A    between atoms: C_2  and  N_3
REMARK    3  A    between atoms: C_2  and  C_15
REMARK    4  A    between atoms: N_3  and  C_4
REMARK    5  A    between atoms: C_4  and  C_5
REMARK    6  A    between atoms: C_5  and  C_6
REMARK    7  A    between atoms: C_6  and  C_8
REMARK    8  A    between atoms: C_12  and  O_13
REMARK    9  A    between atoms: C_15  and  O_16
REMARK   10  A    between atoms: C_15  and  C_17
REMARK                            x       y       z     vdW  Elec       q    Type
REMARK                         _______ _______ _______ _____ _____    ______ ____
ROOT
ATOM      1  N   UNL     1       4.333   6.252  17.415  0.00  0.00    +0.000 NA
ATOM      2  H   UNL     1       5.076   6.311  18.152  0.00  0.00    +0.000 HD
ENDROOT
BRANCH   1   4
ATOM      3  C   UNL     1       2.586   8.012  17.707  0.00  0.00    +0.000 C 
ATOM      4  C   UNL     1       3.024   6.567  18.028  0.00  0.00    +0.000 C 
BRANCH   4   5
ATOM      5  C   UNL     1       3.020   6.272  19.562  0.00  0.00    +0.000 C 
BRANCH   5   6
ATOM      6  C   UNL     1       2.336   4.951  19.886  0.00  0.00    +0.000 A 
ATOM      7  C   UNL     1       1.647   4.238  18.887  0.00  0.00    +0.000 A 
ATOM      8  C   UNL     1       1.027   3.017  19.186  0.00  0.00    +0.000 A 
ATOM      9  C   UNL     1       1.093   2.496  20.480  0.00  0.00    +0.000 A 
ATOM     10  C   UNL     1       1.770   3.192  21.481  0.00  0.00    +0.000 A 
ATOM     11  C   UNL     1       2.388   4.411  21.189  0.00  0.00    +0.000 A 
ENDBRANCH   5   6
BRANCH   5  12
ATOM     12  O   UNL     1       2.420   7.317  20.286  0.00  0.00    +0.000 OA
ATOM     13  H   UNL     1       1.929   6.925  21.051  0.00  0.00    +0.000 HD
ENDBRANCH   5  12
ENDBRANCH   4   5
ENDBRANCH   1   4
BRANCH   1  14
ATOM     14  C   UNL     1       4.394   4.927  16.784  0.00  0.00    +0.000 C 
BRANCH  14  15
ATOM     15  C   UNL     1       5.810   4.375  16.827  0.00  0.00    +0.000 C 
BRANCH  15  16
ATOM     16  C   UNL     1       6.741   5.171  15.939  0.00  0.00    +0.000 C 
ATOM     17  O   UNL     1       7.392   6.094  16.412  0.00  0.00    +0.000 OA
BRANCH  16  18
ATOM     18  C   UNL     1       6.907   4.827  14.508  0.00  0.00    +0.000 A 
ATOM     19  C   UNL     1       7.743   5.586  13.666  0.00  0.00    +0.000 A 
ATOM     20  C   UNL     1       7.861   5.267  12.315  0.00  0.00    +0.000 A 
ATOM     21  C   UNL     1       7.150   4.189  11.785  0.00  0.00    +0.000 A 
ATOM     22  C   UNL     1       6.320   3.418  12.611  0.00  0.00    +0.000 A 
ATOM     23  C   UNL     1       6.202   3.736  13.964  0.00  0.00    +0.000 A 
BRANCH  22  24
ATOM     24  O   UNL     1       5.625   2.378  12.116  0.00  0.00    +0.000 OA
ATOM     25  H   UNL     1       6.059   1.574  11.798  0.00  0.00    +0.000 HD
ENDBRANCH  22  24
ENDBRANCH  16  18
ENDBRANCH  15  16
ENDBRANCH  14  15
ENDBRANCH   1  14
TORSDOF 9
ENDMDL
MODEL 7
REMARK VINA RESULT:      -7.3      1.844      6.802
REMARK  Name = 
REMARK  10 active torsions:
REMARK  status: ('A' for Active; 'I' for Inactive)
REMARK    1  A    between atoms: C_1  and  C_2
REMARK    2  A    between atoms: C_2  and  N_3
REMARK    3  A    between atoms: C_2  and  C_15
REMARK    4  A    between atoms: N_3  and  C_4
REMARK    5  A    between atoms: C_4  and  C_5
REMARK    6  A    between atoms: C_5  and  C_6
REMARK    7  A    between atoms: C_6  and  C_8
REMARK    8  A    between atoms: C_12  and  O_13
REMARK    9  A    between atoms: C_15  and  O_16
REMARK   10  A    between atoms: C_15  and  C_17
REMARK                            x       y       z     vdW  Elec       q    Type
REMARK                         _______ _______ _______ _____ _____    ______ ____
ROOT
ATOM      1  N   UNL     1       3.679   2.828  20.185  0.00  0.00    +0.000 NA
ATOM      2  H   UNL     1       3.937   2.187  20.974  0.00  0.00    +0.000 HD
ENDROOT
BRANCH   1   4
ATOM      3  C   UNL     1       2.852   1.879  18.030  0.00  0.00    +0.000 C 
ATOM      4  C   UNL     1       2.504   2.271  19.481  0.00  0.00    +0.000 C 
BRANCH   4   5
ATOM      5  C   UNL     1       1.275   3.232  19.559  0.00  0.00    +0.000 C 
BRANCH   5   6
ATOM      6  C   UNL     1       1.673   4.685  19.343  0.00  0.00    +0.000 A 
ATOM      7  C   UNL     1       1.735   5.579  20.429  0.00  0.00    +0.000 A 
ATOM      8  C   UNL     1       2.112   6.914  20.229  0.00  0.00    +0.000 A 
ATOM      9  C   UNL     1       2.434   7.366  18.948  0.00  0.00    +0.000 A 
ATOM     10  C   UNL     1       2.374   6.494  17.862  0.00  0.00    +0.000 A 
ATOM     11  C   UNL     1       1.997   5.162  18.055  0.00  0.00    +0.000 A 
ENDBRANCH   5   6
BRANCH   5  12
ATOM     12  O   UNL     1       0.590   3.094  20.779  0.00  0.00    +0.000 OA
ATOM     13  H   UNL     1       1.069   2.427  21.331  0.00  0.00    +0.000 HD
ENDBRANCH   5  12
ENDBRANCH   4   5
ENDBRANCH   1   4
BRANCH   1  14
ATOM     14  C   UNL     1       4.855   3.022  19.327  0.00  0.00    +0.000 C 
BRANCH  14  15
ATOM     15  C   UNL     1       5.276   4.484  19.313  0.00  0.00    +0.000 C 
BRANCH  15  16
ATOM     16  C   UNL     1       6.447   4.710  18.381  0.00  0.00    +0.000 C 
ATOM     17  O   UNL     1       7.561   4.922  18.844  0.00  0.00    +0.000 OA
BRANCH  16  18
ATOM     18  C   UNL     1       6.275   4.640  16.912  0.00  0.00    +0.000 A 
ATOM     19  C   UNL     1       5.137   4.043  16.337  0.00  0.00    +0.000 A 
ATOM     20  C   UNL     1       5.009   3.956  14.952  0.00  0.00    +0.000 A 
ATOM     21  C   UNL     1       6.011   4.461  14.122  0.00  0.00    +0.000 A 
ATOM     22  C   UNL     1       7.147   5.065  14.679  0.00  0.00    +0.000 A 
ATOM     23  C   UNL     1       7.276   5.154  16.065  0.00  0.00    +0.000 A 
BRANCH  22  24
ATOM     24  O   UNL     1       8.125   5.554  13.894  0.00  0.00    +0.000 OA
ATOM     25  H   UNL     1       8.929   5.949  14.259  0.00  0.00    +0.000 HD
ENDBRANCH  22  24
ENDBRANCH  16  18
ENDBRANCH  15  16
ENDBRANCH  14  15
ENDBRANCH   1  14
TORSDOF 9
ENDMDL
MODEL 8
REMARK VINA RESULT:      -7.3      2.179      6.644
REMARK  Name = 
REMARK  10 active torsions:
REMARK  status: ('A' for Active; 'I' for Inactive)
REMARK    1  A    between atoms: C_1  and  C_2
REMARK    2  A    between atoms: C_2  and  N_3
REMARK    3  A    between atoms: C_2  and  C_15
REMARK    4  A    between atoms: N_3  and  C_4
REMARK    5  A    between atoms: C_4  and  C_5
REMARK    6  A    between atoms: C_5  and  C_6
REMARK    7  A    between atoms: C_6  and  C_8
REMARK    8  A    between atoms: C_12  and  O_13
REMARK    9  A    between atoms: C_15  and  O_16
REMARK   10  A    between atoms: C_15  and  C_17
REMARK                            x       y       z     vdW  Elec       q    Type
REMARK                         _______ _______ _______ _____ _____    ______ ____
ROOT
ATOM      1  N   UNL     1       3.512   2.624  20.132  0.00  0.00    +0.000 NA
ATOM      2  H   UNL     1       3.780   1.826  20.757  0.00  0.00    +0.000 HD
ENDROOT
BRANCH   1   4
ATOM      3  C   UNL     1       2.766   2.032  17.825  0.00  0.00    +0.000 C 
ATOM      4  C   UNL     1       2.359   2.214  19.302  0.00  0.00    +0.000 C 
BRANCH   4   5
ATOM      5  C   UNL     1       1.150   3.189  19.470  0.00  0.00    +0.000 C 
BRANCH   5   6
ATOM      6  C   UNL     1       1.575   4.646  19.363  0.00  0.00    +0.000 A 
ATOM      7  C   UNL     1       1.639   5.460  20.510  0.00  0.00    +0.000 A 
ATOM      8  C   UNL     1       2.040   6.799  20.411  0.00  0.00    +0.000 A 
ATOM      9  C   UNL     1       2.385   7.336  19.168  0.00  0.00    +0.000 A 
ATOM     10  C   UNL     1       2.324   6.544  18.022  0.00  0.00    +0.000 A 
ATOM     11  C   UNL     1       1.923   5.209  18.115  0.00  0.00    +0.000 A 
ENDBRANCH   5   6
BRANCH   5  12
ATOM     12  O   UNL     1       0.477   2.969  20.684  0.00  0.00    +0.000 OA
ATOM     13  H   UNL     1       0.542   3.792  21.230  0.00  0.00    +0.000 HD
ENDBRANCH   5  12
ENDBRANCH   4   5
ENDBRANCH   1   4
BRANCH   1  14
ATOM     14  C   UNL     1       4.690   3.039  19.359  0.00  0.00    +0.000 C 
BRANCH  14  15
ATOM     15  C   UNL     1       5.097   4.460  19.717  0.00  0.00    +0.000 C 
BRANCH  15  16
ATOM     16  C   UNL     1       6.218   4.952  18.827  0.00  0.00    +0.000 C 
ATOM     17  O   UNL     1       7.333   5.136  19.299  0.00  0.00    +0.000 OA
BRANCH  16  18
ATOM     18  C   UNL     1       5.997   5.178  17.380  0.00  0.00    +0.000 A 
ATOM     19  C   UNL     1       5.438   6.380  16.905  0.00  0.00    +0.000 A 
ATOM     20  C   UNL     1       5.206   6.561  15.543  0.00  0.00    +0.000 A 
ATOM     21  C   UNL     1       5.529   5.550  14.637  0.00  0.00    +0.000 A 
ATOM     22  C   UNL     1       6.093   4.350  15.093  0.00  0.00    +0.000 A 
ATOM     23  C   UNL     1       6.326   4.168  16.456  0.00  0.00    +0.000 A 
BRANCH  22  24
ATOM     24  O   UNL     1       6.405   3.363  14.234  0.00  0.00    +0.000 OA
ATOM     25  H   UNL     1       7.222   2.850  14.314  0.00  0.00    +0.000 HD
ENDBRANCH  22  24
ENDBRANCH  16  18
ENDBRANCH  15  16
ENDBRANCH  14  15
ENDBRANCH   1  14
TORSDOF 9
ENDMDL
MODEL 9
REMARK VINA RESULT:      -7.3      3.586      6.054
REMARK  Name = 
REMARK  10 active torsions:
REMARK  status: ('A' for Active; 'I' for Inactive)
REMARK    1  A    between atoms: C_1  and  C_2
REMARK    2  A    between atoms: C_2  and  N_3
REMARK    3  A    between atoms: C_2  and  C_15
REMARK    4  A    between atoms: N_3  and  C_4
REMARK    5  A    between atoms: C_4  and  C_5
REMARK    6  A    between atoms: C_5  and  C_6
REMARK    7  A    between atoms: C_6  and  C_8
REMARK    8  A    between atoms: C_12  and  O_13
REMARK    9  A    between atoms: C_15  and  O_16
REMARK   10  A    between atoms: C_15  and  C_17
REMARK                            x       y       z     vdW  Elec       q    Type
REMARK                         _______ _______ _______ _____ _____    ______ ____
ROOT
ATOM      1  N   UNL     1       4.966   5.855  17.290  0.00  0.00    +0.000 NA
ATOM      2  H   UNL     1       4.552   5.169  16.614  0.00  0.00    +0.000 HD
ENDROOT
BRANCH   1   4
ATOM      3  C   UNL     1       6.380   5.429  19.303  0.00  0.00    +0.000 C 
ATOM      4  C   UNL     1       5.002   5.238  18.634  0.00  0.00    +0.000 C 
BRANCH   4   5
ATOM      5  C   UNL     1       4.563   3.740  18.594  0.00  0.00    +0.000 C 
BRANCH   5   6
ATOM      6  C   UNL     1       3.144   3.548  19.109  0.00  0.00    +0.000 A 
ATOM      7  C   UNL     1       2.720   4.179  20.295  0.00  0.00    +0.000 A 
ATOM      8  C   UNL     1       1.410   4.008  20.761  0.00  0.00    +0.000 A 
ATOM      9  C   UNL     1       0.511   3.213  20.047  0.00  0.00    +0.000 A 
ATOM     10  C   UNL     1       0.915   2.579  18.873  0.00  0.00    +0.000 A 
ATOM     11  C   UNL     1       2.222   2.744  18.404  0.00  0.00    +0.000 A 
ENDBRANCH   5   6
BRANCH   5  12
ATOM     12  O   UNL     1       5.453   2.923  19.313  0.00  0.00    +0.000 OA
ATOM     13  H   UNL     1       6.260   2.778  18.759  0.00  0.00    +0.000 HD
ENDBRANCH   5  12
ENDBRANCH   4   5
ENDBRANCH   1   4
BRANCH   1  14
ATOM     14  C   UNL     1       4.201   7.107  17.226  0.00  0.00    +0.000 C 
BRANCH  14  15
ATOM     15  C   UNL     1       2.979   7.038  18.130  0.00  0.00    +0.000 C 
BRANCH  15  16
ATOM     16  C   UNL     1       2.255   8.366  18.179  0.00  0.00    +0.000 C 
ATOM     17  O   UNL     1       2.291   9.115  17.211  0.00  0.00    +0.000 OA
BRANCH  16  18
ATOM     18  C   UNL     1       1.467   8.759  19.370  0.00  0.00    +0.000 A 
ATOM     19  C   UNL     1       1.565   8.045  20.580  0.00  0.00    +0.000 A 
ATOM     20  C   UNL     1       0.790   8.409  21.679  0.00  0.00    +0.000 A 
ATOM     21  C   UNL     1      -0.091   9.488  21.589  0.00  0.00    +0.000 A 
ATOM     22  C   UNL     1      -0.195  10.213  20.394  0.00  0.00    +0.000 A 
ATOM     23  C   UNL     1       0.581   9.850  19.294  0.00  0.00    +0.000 A 
BRANCH  22  24
ATOM     24  O   UNL     1      -1.043  11.253  20.289  0.00  0.00    +0.000 OA
ATOM     25  H   UNL     1      -1.745  11.279  19.625  0.00  0.00    +0.000 HD
ENDBRANCH  22  24
ENDBRANCH  16  18
ENDBRANCH  15  16
ENDBRANCH  14  15
ENDBRANCH   1  14
TORSDOF 9
ENDMDL
