MODEL 1
REMARK VINA RESULT:      -6.4      0.000      0.000
REMARK  Name = 
REMARK  11 active torsions:
REMARK  status: ('A' for Active; 'I' for Inactive)
REMARK    1  A    between atoms: C_1  and  C_2
REMARK    2  A    between atoms: C_5  and  O_6
REMARK    3  A    between atoms: C_15  and  C_16
REMARK    4  A    between atoms: C_17  and  C_18
REMARK    5  A    between atoms: N_19  and  O_20
REMARK    6  A    between atoms: O_20  and  C_21
REMARK    7  A    between atoms: C_21  and  C_22
REMARK    8  A    between atoms: C_22  and  C_23
REMARK    9  A    between atoms: C_23  and  C_24
REMARK   10  A    between atoms: C_24  and  N_25
REMARK   11  A    between atoms: C_28  and  O_29
REMARK                            x       y       z     vdW  Elec       q    Type
REMARK                         _______ _______ _______ _____ _____    ______ ____
ROOT
ATOM      1  C   UNL     1      -2.786  15.286  20.950  0.00  0.00    +0.000 C 
ATOM      2  C   UNL     1      -3.278  13.979  21.634  0.00  0.00    +0.000 C 
ATOM      3  C   UNL     1      -4.814  13.927  21.337  0.00  0.00    +0.000 C 
ATOM      4  C   UNL     1      -5.596  12.882  22.127  0.00  0.00    +0.000 C 
ATOM      5  C   UNL     1      -5.369  13.006  23.629  0.00  0.00    +0.000 C 
ATOM      6  C   UNL     1      -3.880  13.030  23.966  0.00  0.00    +0.000 C 
ATOM      7  C   UNL     1      -3.084  14.096  23.178  0.00  0.00    +0.000 C 
ATOM      8  C   UNL     1      -1.600  14.056  23.570  0.00  0.00    +0.000 C 
ATOM      9  C   UNL     1      -0.886  12.806  23.077  0.00  0.00    +0.000 C 
ATOM     10  C   UNL     1      -0.979  12.676  21.551  0.00  0.00    +0.000 C 
ATOM     11  C   UNL     1      -2.470  12.723  21.079  0.00  0.00    +0.000 C 
ATOM     12  C   UNL     1      -2.470  12.678  19.550  0.00  0.00    +0.000 C 
ATOM     13  C   UNL     1      -1.798  11.411  19.033  0.00  0.00    +0.000 C 
ATOM     14  C   UNL     1      -0.315  11.144  19.520  0.00  0.00    +0.000 C 
ATOM     15  C   UNL     1       0.511  12.063  18.590  0.00  0.00    +0.000 C 
ATOM     16  C   UNL     1       0.255   9.650  19.467  0.00  0.00    +0.000 C 
ATOM     17  C   UNL     1       0.264   9.069  20.890  0.00  0.00    +0.000 C 
ATOM     18  C   UNL     1      -0.334  10.144  21.785  0.00  0.00    +0.000 C 
ATOM     19  C   UNL     1      -0.130  11.474  21.030  0.00  0.00    +0.000 C 
ENDROOT
BRANCH   5  20
ATOM     20  O   UNL     1      -6.015  14.167  24.144  0.00  0.00    +0.000 OA
ATOM     21  H   UNL     1      -6.966  14.109  23.962  0.00  0.00    +0.000 HD
ENDBRANCH   5  20
BRANCH  16  22
ATOM     22  C   UNL     1       1.585   9.385  18.776  0.00  0.00    +0.000 C 
ATOM     23  N   UNL     1       1.961   8.160  18.614  0.00  0.00    +0.000 NA
BRANCH  23  24
ATOM     24  O   UNL     1       3.258   8.112  18.099  0.00  0.00    +0.000 OA
BRANCH  24  25
ATOM     25  C   UNL     1       3.573   6.731  17.894  0.00  0.00    +0.000 C 
BRANCH  25  26
ATOM     26  C   UNL     1       4.653   6.642  16.830  0.00  0.00    +0.000 C 
BRANCH  26  27
ATOM     27  C   UNL     1       5.055   5.202  16.517  0.00  0.00    +0.000 C 
BRANCH  27  28
ATOM     28  C   UNL     1       6.442   4.924  17.093  0.00  0.00    +0.000 C 
BRANCH  28  29
ATOM     29  N   UNL     1       6.361   4.089  18.283  0.00  0.00    +0.000 NA
ATOM     30  H   UNL     1       6.332   4.677  19.115  0.00  0.00    +0.000 HD
ATOM     31  H   UNL     1       7.214   3.537  18.357  0.00  0.00    +0.000 HD
ENDBRANCH  28  29
ENDBRANCH  27  28
ENDBRANCH  26  27
ENDBRANCH  25  26
ENDBRANCH  24  25
ENDBRANCH  23  24
ENDBRANCH  16  22
BRANCH  19  32
ATOM     32  O   UNL     1       1.264  11.794  21.205  0.00  0.00    +0.000 OA
ATOM     33  H   UNL     1       1.350  12.732  21.439  0.00  0.00    +0.000 HD
ENDBRANCH  19  32
TORSDOF 9
ENDMDL
MODEL 2
REMARK VINA RESULT:      -6.3      7.456      9.772
REMARK  Name = 
REMARK  11 active torsions:
REMARK  status: ('A' for Active; 'I' for Inactive)
REMARK    1  A    between atoms: C_1  and  C_2
REMARK    2  A    between atoms: C_5  and  O_6
REMARK    3  A    between atoms: C_15  and  C_16
REMARK    4  A    between atoms: C_17  and  C_18
REMARK    5  A    between atoms: N_19  and  O_20
REMARK    6  A    between atoms: O_20  and  C_21
REMARK    7  A    between atoms: C_21  and  C_22
REMARK    8  A    between atoms: C_22  and  C_23
REMARK    9  A    between atoms: C_23  and  C_24
REMARK   10  A    between atoms: C_24  and  N_25
REMARK   11  A    between atoms: C_28  and  O_29
REMARK                            x       y       z     vdW  Elec       q    Type
REMARK                         _______ _______ _______ _____ _____    ______ ____
ROOT
ATOM      1  C   UNL     1       0.735   3.830  18.023  0.00  0.00    +0.000 C 
ATOM      2  C   UNL     1       1.816   3.602  19.118  0.00  0.00    +0.000 C 
ATOM      3  C   UNL     1       1.574   2.140  19.619  0.00  0.00    +0.000 C 
ATOM      4  C   UNL     1       2.327   1.753  20.889  0.00  0.00    +0.000 C 
ATOM      5  C   UNL     1       2.076   2.733  22.029  0.00  0.00    +0.000 C 
ATOM      6  C   UNL     1       2.331   4.172  21.590  0.00  0.00    +0.000 C 
ATOM      7  C   UNL     1       1.561   4.575  20.310  0.00  0.00    +0.000 C 
ATOM      8  C   UNL     1       1.869   6.031  19.934  0.00  0.00    +0.000 C 
ATOM      9  C   UNL     1       3.292   6.229  19.433  0.00  0.00    +0.000 C 
ATOM     10  C   UNL     1       3.580   5.350  18.209  0.00  0.00    +0.000 C 
ATOM     11  C   UNL     1       3.272   3.848  18.520  0.00  0.00    +0.000 C 
ATOM     12  C   UNL     1       3.498   3.057  17.231  0.00  0.00    +0.000 C 
ATOM     13  C   UNL     1       4.932   3.204  16.733  0.00  0.00    +0.000 C 
ATOM     14  C   UNL     1       5.449   4.680  16.486  0.00  0.00    +0.000 C 
ATOM     15  C   UNL     1       4.845   5.017  15.102  0.00  0.00    +0.000 C 
ATOM     16  C   UNL     1       7.026   4.952  16.479  0.00  0.00    +0.000 C 
ATOM     17  C   UNL     1       7.421   5.620  17.806  0.00  0.00    +0.000 C 
ATOM     18  C   UNL     1       6.145   5.705  18.629  0.00  0.00    +0.000 C 
ATOM     19  C   UNL     1       4.988   5.654  17.609  0.00  0.00    +0.000 C 
ENDROOT
BRANCH   5  20
ATOM     20  O   UNL     1       0.752   2.592  22.534  0.00  0.00    +0.000 OA
ATOM     21  H   UNL     1       0.758   2.745  23.492  0.00  0.00    +0.000 HD
ENDBRANCH   5  20
BRANCH  16  22
ATOM     22  C   UNL     1       7.648   5.694  15.305  0.00  0.00    +0.000 C 
ATOM     23  N   UNL     1       7.825   5.053  14.197  0.00  0.00    +0.000 NA
BRANCH  23  24
ATOM     24  O   UNL     1       8.532   5.840  13.286  0.00  0.00    +0.000 OA
BRANCH  24  25
ATOM     25  C   UNL     1       7.884   5.692  12.018  0.00  0.00    +0.000 C 
BRANCH  25  26
ATOM     26  C   UNL     1       7.517   4.230  11.839  0.00  0.00    +0.000 C 
BRANCH  26  27
ATOM     27  C   UNL     1       6.009   3.993  11.867  0.00  0.00    +0.000 C 
BRANCH  27  28
ATOM     28  C   UNL     1       5.727   2.493  11.803  0.00  0.00    +0.000 C 
BRANCH  28  29
ATOM     29  N   UNL     1       6.925   1.746  11.447  0.00  0.00    +0.000 NA
ATOM     30  H   UNL     1       7.069   0.989  12.113  0.00  0.00    +0.000 HD
ATOM     31  H   UNL     1       7.734   2.359  11.537  0.00  0.00    +0.000 HD
ENDBRANCH  28  29
ENDBRANCH  27  28
ENDBRANCH  26  27
ENDBRANCH  25  26
ENDBRANCH  24  25
ENDBRANCH  23  24
ENDBRANCH  16  22
BRANCH  19  32
ATOM     32  O   UNL     1       4.955   6.967  17.017  0.00  0.00    +0.000 OA
ATOM     33  H   UNL     1       5.373   6.933  16.141  0.00  0.00    +0.000 HD
ENDBRANCH  19  32
TORSDOF 9
ENDMDL
MODEL 3
REMARK VINA RESULT:      -6.3      0.901      1.011
REMARK  Name = 
REMARK  11 active torsions:
REMARK  status: ('A' for Active; 'I' for Inactive)
REMARK    1  A    between atoms: C_1  and  C_2
REMARK    2  A    between atoms: C_5  and  O_6
REMARK    3  A    between atoms: C_15  and  C_16
REMARK    4  A    between atoms: C_17  and  C_18
REMARK    5  A    between atoms: N_19  and  O_20
REMARK    6  A    between atoms: O_20  and  C_21
REMARK    7  A    between atoms: C_21  and  C_22
REMARK    8  A    between atoms: C_22  and  C_23
REMARK    9  A    between atoms: C_23  and  C_24
REMARK   10  A    between atoms: C_24  and  N_25
REMARK   11  A    between atoms: C_28  and  O_29
REMARK                            x       y       z     vdW  Elec       q    Type
REMARK                         _______ _______ _______ _____ _____    ______ ____
ROOT
ATOM      1  C   UNL     1      -2.906  15.271  21.037  0.00  0.00    +0.000 C 
ATOM      2  C   UNL     1      -3.388  13.975  21.748  0.00  0.00    +0.000 C 
ATOM      3  C   UNL     1      -4.928  13.920  21.476  0.00  0.00    +0.000 C 
ATOM      4  C   UNL     1      -5.698  12.888  22.294  0.00  0.00    +0.000 C 
ATOM      5  C   UNL     1      -5.447  13.034  23.790  0.00  0.00    +0.000 C 
ATOM      6  C   UNL     1      -3.954  13.062  24.103  0.00  0.00    +0.000 C 
ATOM      7  C   UNL     1      -3.169  14.116  23.287  0.00  0.00    +0.000 C 
ATOM      8  C   UNL     1      -1.680  14.081  23.656  0.00  0.00    +0.000 C 
ATOM      9  C   UNL     1      -0.974  12.823  23.171  0.00  0.00    +0.000 C 
ATOM     10  C   UNL     1      -1.090  12.670  21.649  0.00  0.00    +0.000 C 
ATOM     11  C   UNL     1      -2.588  12.711  21.200  0.00  0.00    +0.000 C 
ATOM     12  C   UNL     1      -2.612  12.643  19.672  0.00  0.00    +0.000 C 
ATOM     13  C   UNL     1      -1.950  11.367  19.164  0.00  0.00    +0.000 C 
ATOM     14  C   UNL     1      -0.459  11.107  19.631  0.00  0.00    +0.000 C 
ATOM     15  C   UNL     1       0.353  12.011  18.674  0.00  0.00    +0.000 C 
ATOM     16  C   UNL     1       0.110   9.612  19.592  0.00  0.00    +0.000 C 
ATOM     17  C   UNL     1       0.141   9.053  21.023  0.00  0.00    +0.000 C 
ATOM     18  C   UNL     1      -0.442  10.142  21.911  0.00  0.00    +0.000 C 
ATOM     19  C   UNL     1      -0.250  11.460  21.133  0.00  0.00    +0.000 C 
ENDROOT
BRANCH   5  20
ATOM     20  O   UNL     1      -6.085  14.203  24.297  0.00  0.00    +0.000 OA
ATOM     21  H   UNL     1      -6.282  14.075  25.239  0.00  0.00    +0.000 HD
ENDBRANCH   5  20
BRANCH  16  22
ATOM     22  C   UNL     1       1.429   9.336  18.885  0.00  0.00    +0.000 C 
ATOM     23  N   UNL     1       1.908   8.137  18.923  0.00  0.00    +0.000 NA
BRANCH  23  24
ATOM     24  O   UNL     1       3.181   8.103  18.352  0.00  0.00    +0.000 OA
BRANCH  24  25
ATOM     25  C   UNL     1       3.277   6.876  17.621  0.00  0.00    +0.000 C 
BRANCH  25  26
ATOM     26  C   UNL     1       3.149   5.726  18.603  0.00  0.00    +0.000 C 
BRANCH  26  27
ATOM     27  C   UNL     1       4.388   4.834  18.631  0.00  0.00    +0.000 C 
BRANCH  27  28
ATOM     28  C   UNL     1       4.002   3.439  19.120  0.00  0.00    +0.000 C 
BRANCH  28  29
ATOM     29  N   UNL     1       5.166   2.704  19.594  0.00  0.00    +0.000 NA
ATOM     30  H   UNL     1       5.632   2.253  18.807  0.00  0.00    +0.000 HD
ATOM     31  H   UNL     1       4.854   1.951  20.206  0.00  0.00    +0.000 HD
ENDBRANCH  28  29
ENDBRANCH  27  28
ENDBRANCH  26  27
ENDBRANCH  25  26
ENDBRANCH  24  25
ENDBRANCH  23  24
ENDBRANCH  16  22
BRANCH  19  32
ATOM     32  O   UNL     1       1.146  11.781  21.282  0.00  0.00    +0.000 OA
ATOM     33  H   UNL     1       1.592  11.675  20.426  0.00  0.00    +0.000 HD
ENDBRANCH  19  32
TORSDOF 9
ENDMDL
MODEL 4
REMARK VINA RESULT:      -6.3      1.560      1.948
REMARK  Name = 
REMARK  11 active torsions:
REMARK  status: ('A' for Active; 'I' for Inactive)
REMARK    1  A    between atoms: C_1  and  C_2
REMARK    2  A    between atoms: C_5  and  O_6
REMARK    3  A    between atoms: C_15  and  C_16
REMARK    4  A    between atoms: C_17  and  C_18
REMARK    5  A    between atoms: N_19  and  O_20
REMARK    6  A    between atoms: O_20  and  C_21
REMARK    7  A    between atoms: C_21  and  C_22
REMARK    8  A    between atoms: C_22  and  C_23
REMARK    9  A    between atoms: C_23  and  C_24
REMARK   10  A    between atoms: C_24  and  N_25
REMARK   11  A    between atoms: C_28  and  O_29
REMARK                            x       y       z     vdW  Elec       q    Type
REMARK                         _______ _______ _______ _____ _____    ______ ____
ROOT
ATOM      1  C   UNL     1      -2.308  14.849  20.462  0.00  0.00    +0.000 C 
ATOM      2  C   UNL     1      -2.997  13.656  21.182  0.00  0.00    +0.000 C 
ATOM      3  C   UNL     1      -4.474  13.677  20.666  0.00  0.00    +0.000 C 
ATOM      4  C   UNL     1      -5.443  12.774  21.424  0.00  0.00    +0.000 C 
ATOM      5  C   UNL     1      -5.421  13.036  22.925  0.00  0.00    +0.000 C 
ATOM      6  C   UNL     1      -3.998  12.994  23.476  0.00  0.00    +0.000 C 
ATOM      7  C   UNL     1      -3.014  13.917  22.720  0.00  0.00    +0.000 C 
ATOM      8  C   UNL     1      -1.609  13.818  23.331  0.00  0.00    +0.000 C 
ATOM      9  C   UNL     1      -0.937  12.479  23.066  0.00  0.00    +0.000 C 
ATOM     10  C   UNL     1      -0.823  12.199  21.562  0.00  0.00    +0.000 C 
ATOM     11  C   UNL     1      -2.223  12.298  20.872  0.00  0.00    +0.000 C 
ATOM     12  C   UNL     1      -2.011  12.096  19.371  0.00  0.00    +0.000 C 
ATOM     13  C   UNL     1      -1.379  10.740  19.077  0.00  0.00    +0.000 C 
ATOM     14  C   UNL     1      -0.006  10.425  19.802  0.00  0.00    +0.000 C 
ATOM     15  C   UNL     1       1.016  11.186  18.924  0.00  0.00    +0.000 C 
ATOM     16  C   UNL     1       0.442   8.899  19.972  0.00  0.00    +0.000 C 
ATOM     17  C   UNL     1       0.202   8.468  21.427  0.00  0.00    +0.000 C 
ATOM     18  C   UNL     1      -0.426   9.667  22.121  0.00  0.00    +0.000 C 
ATOM     19  C   UNL     1      -0.010  10.896  21.286  0.00  0.00    +0.000 C 
ENDROOT
BRANCH   5  20
ATOM     20  O   UNL     1      -6.037  14.285  23.229  0.00  0.00    +0.000 OA
ATOM     21  H   UNL     1      -5.492  15.004  22.872  0.00  0.00    +0.000 HD
ENDBRANCH   5  20
BRANCH  16  22
ATOM     22  C   UNL     1       1.830   8.476  19.514  0.00  0.00    +0.000 C 
ATOM     23  N   UNL     1       1.933   7.759  18.444  0.00  0.00    +0.000 NA
BRANCH  23  24
ATOM     24  O   UNL     1       3.254   7.347  18.258  0.00  0.00    +0.000 OA
BRANCH  24  25
ATOM     25  C   UNL     1       3.243   5.916  18.227  0.00  0.00    +0.000 C 
BRANCH  25  26
ATOM     26  C   UNL     1       3.853   5.407  19.520  0.00  0.00    +0.000 C 
BRANCH  26  27
ATOM     27  C   UNL     1       2.863   4.606  20.363  0.00  0.00    +0.000 C 
BRANCH  27  28
ATOM     28  C   UNL     1       1.544   4.469  19.606  0.00  0.00    +0.000 C 
BRANCH  28  29
ATOM     29  N   UNL     1       0.685   3.467  20.219  0.00  0.00    +0.000 NA
ATOM     30  H   UNL     1      -0.293   3.727  20.093  0.00  0.00    +0.000 HD
ATOM     31  H   UNL     1       0.848   3.464  21.225  0.00  0.00    +0.000 HD
ENDBRANCH  28  29
ENDBRANCH  27  28
ENDBRANCH  26  27
ENDBRANCH  25  26
ENDBRANCH  24  25
ENDBRANCH  23  24
ENDBRANCH  16  22
BRANCH  19  32
ATOM     32  O   UNL     1       1.366  11.137  21.636  0.00  0.00    +0.000 OA
ATOM     33  H   UNL     1       1.569  12.077  21.507  0.00  0.00    +0.000 HD
ENDBRANCH  19  32
TORSDOF 9
ENDMDL
MODEL 5
REMARK VINA RESULT:      -6.3      1.435      1.539
REMARK  Name = 
REMARK  11 active torsions:
REMARK  status: ('A' for Active; 'I' for Inactive)
REMARK    1  A    between atoms: C_1  and  C_2
REMARK    2  A    between atoms: C_5  and  O_6
REMARK    3  A    between atoms: C_15  and  C_16
REMARK    4  A    between atoms: C_17  and  C_18
REMARK    5  A    between atoms: N_19  and  O_20
REMARK    6  A    between atoms: O_20  and  C_21
REMARK    7  A    between atoms: C_21  and  C_22
REMARK    8  A    between atoms: C_22  and  C_23
REMARK    9  A    between atoms: C_23  and  C_24
REMARK   10  A    between atoms: C_24  and  N_25
REMARK   11  A    between atoms: C_28  and  O_29
REMARK                            x       y       z     vdW  Elec       q    Type
REMARK                         _______ _______ _______ _____ _____    ______ ____
ROOT
ATOM      1  C   UNL     1      -2.000  14.588  20.298  0.00  0.00    +0.000 C 
ATOM      2  C   UNL     1      -2.777  13.435  20.995  0.00  0.00    +0.000 C 
ATOM      3  C   UNL     1      -4.217  13.499  20.387  0.00  0.00    +0.000 C 
ATOM      4  C   UNL     1      -5.265  12.648  21.099  0.00  0.00    +0.000 C 
ATOM      5  C   UNL     1      -5.326  12.941  22.593  0.00  0.00    +0.000 C 
ATOM      6  C   UNL     1      -3.943  12.858  23.234  0.00  0.00    +0.000 C 
ATOM      7  C   UNL     1      -2.880  13.730  22.524  0.00  0.00    +0.000 C 
ATOM      8  C   UNL     1      -1.520  13.593  23.223  0.00  0.00    +0.000 C 
ATOM      9  C   UNL     1      -0.884  12.225  23.027  0.00  0.00    +0.000 C 
ATOM     10  C   UNL     1      -0.687  11.909  21.539  0.00  0.00    +0.000 C 
ATOM     11  C   UNL     1      -2.037  12.044  20.760  0.00  0.00    +0.000 C 
ATOM     12  C   UNL     1      -1.739  11.803  19.279  0.00  0.00    +0.000 C 
ATOM     13  C   UNL     1      -1.141  10.419  19.052  0.00  0.00    +0.000 C 
ATOM     14  C   UNL     1       0.171  10.070  19.867  0.00  0.00    +0.000 C 
ATOM     15  C   UNL     1       1.273  10.775  19.041  0.00  0.00    +0.000 C 
ATOM     16  C   UNL     1       0.550   8.532  20.093  0.00  0.00    +0.000 C 
ATOM     17  C   UNL     1       0.205   8.142  21.539  0.00  0.00    +0.000 C 
ATOM     18  C   UNL     1      -0.420   9.377  22.169  0.00  0.00    +0.000 C 
ATOM     19  C   UNL     1       0.092  10.572  21.339  0.00  0.00    +0.000 C 
ENDROOT
BRANCH   5  20
ATOM     20  O   UNL     1      -5.913  14.217  22.835  0.00  0.00    +0.000 OA
ATOM     21  H   UNL     1      -5.982  14.699  21.996  0.00  0.00    +0.000 HD
ENDBRANCH   5  20
BRANCH  16  22
ATOM     22  C   UNL     1       1.948   8.050  19.732  0.00  0.00    +0.000 C 
ATOM     23  N   UNL     1       2.128   6.788  19.524  0.00  0.00    +0.000 NA
BRANCH  23  24
ATOM     24  O   UNL     1       3.485   6.512  19.349  0.00  0.00    +0.000 OA
BRANCH  24  25
ATOM     25  C   UNL     1       3.667   6.177  17.969  0.00  0.00    +0.000 C 
BRANCH  25  26
ATOM     26  C   UNL     1       3.173   4.758  17.754  0.00  0.00    +0.000 C 
BRANCH  26  27
ATOM     27  C   UNL     1       4.275   3.716  17.942  0.00  0.00    +0.000 C 
BRANCH  27  28
ATOM     28  C   UNL     1       3.829   2.684  18.976  0.00  0.00    +0.000 C 
BRANCH  28  29
ATOM     29  N   UNL     1       4.955   2.207  19.766  0.00  0.00    +0.000 NA
ATOM     30  H   UNL     1       5.510   1.554  19.214  0.00  0.00    +0.000 HD
ATOM     31  H   UNL     1       4.600   1.675  20.559  0.00  0.00    +0.000 HD
ENDBRANCH  28  29
ENDBRANCH  27  28
ENDBRANCH  26  27
ENDBRANCH  25  26
ENDBRANCH  24  25
ENDBRANCH  23  24
ENDBRANCH  16  22
BRANCH  19  32
ATOM     32  O   UNL     1       1.452  10.771  21.771  0.00  0.00    +0.000 OA
ATOM     33  H   UNL     1       2.045  10.693  21.006  0.00  0.00    +0.000 HD
ENDBRANCH  19  32
TORSDOF 9
ENDMDL
MODEL 6
REMARK VINA RESULT:      -6.0      1.234      1.310
REMARK  Name = 
REMARK  11 active torsions:
REMARK  status: ('A' for Active; 'I' for Inactive)
REMARK    1  A    between atoms: C_1  and  C_2
REMARK    2  A    between atoms: C_5  and  O_6
REMARK    3  A    between atoms: C_15  and  C_16
REMARK    4  A    between atoms: C_17  and  C_18
REMARK    5  A    between atoms: N_19  and  O_20
REMARK    6  A    between atoms: O_20  and  C_21
REMARK    7  A    between atoms: C_21  and  C_22
REMARK    8  A    between atoms: C_22  and  C_23
REMARK    9  A    between atoms: C_23  and  C_24
REMARK   10  A    between atoms: C_24  and  N_25
REMARK   11  A    between atoms: C_28  and  O_29
REMARK                            x       y       z     vdW  Elec       q    Type
REMARK                         _______ _______ _______ _____ _____    ______ ____
ROOT
ATOM      1  C   UNL     1      -2.162  14.692  20.333  0.00  0.00    +0.000 C 
ATOM      2  C   UNL     1      -2.888  13.511  21.038  0.00  0.00    +0.000 C 
ATOM      3  C   UNL     1      -4.344  13.538  20.464  0.00  0.00    +0.000 C 
ATOM      4  C   UNL     1      -5.349  12.650  21.193  0.00  0.00    +0.000 C 
ATOM      5  C   UNL     1      -5.384  12.930  22.691  0.00  0.00    +0.000 C 
ATOM      6  C   UNL     1      -3.984  12.883  23.298  0.00  0.00    +0.000 C 
ATOM      7  C   UNL     1      -2.964  13.791  22.572  0.00  0.00    +0.000 C 
ATOM      8  C   UNL     1      -1.585  13.689  23.238  0.00  0.00    +0.000 C 
ATOM      9  C   UNL     1      -0.913  12.342  23.015  0.00  0.00    +0.000 C 
ATOM     10  C   UNL     1      -0.742  12.044  21.520  0.00  0.00    +0.000 C 
ATOM     11  C   UNL     1      -2.113  12.145  20.774  0.00  0.00    +0.000 C 
ATOM     12  C   UNL     1      -1.843  11.924  19.285  0.00  0.00    +0.000 C 
ATOM     13  C   UNL     1      -1.211  10.560  19.032  0.00  0.00    +0.000 C 
ATOM     14  C   UNL     1       0.130  10.244  19.813  0.00  0.00    +0.000 C 
ATOM     15  C   UNL     1       1.191  10.987  18.968  0.00  0.00    +0.000 C 
ATOM     16  C   UNL     1       0.559   8.716  20.018  0.00  0.00    +0.000 C 
ATOM     17  C   UNL     1       0.260   8.304  21.468  0.00  0.00    +0.000 C 
ATOM     18  C   UNL     1      -0.387   9.516  22.123  0.00  0.00    +0.000 C 
ATOM     19  C   UNL     1       0.071  10.732  21.291  0.00  0.00    +0.000 C 
ENDROOT
BRANCH   5  20
ATOM     20  O   UNL     1      -6.001  14.186  22.957  0.00  0.00    +0.000 OA
ATOM     21  H   UNL     1      -6.376  14.174  23.852  0.00  0.00    +0.000 HD
ENDBRANCH   5  20
BRANCH  16  22
ATOM     22  C   UNL     1       1.961   8.278  19.620  0.00  0.00    +0.000 C 
ATOM     23  N   UNL     1       2.104   7.141  19.023  0.00  0.00    +0.000 NA
BRANCH  23  24
ATOM     24  O   UNL     1       3.458   6.841  18.865  0.00  0.00    +0.000 OA
BRANCH  24  25
ATOM     25  C   UNL     1       3.648   5.509  19.354  0.00  0.00    +0.000 C 
BRANCH  25  26
ATOM     26  C   UNL     1       4.847   4.907  18.642  0.00  0.00    +0.000 C 
BRANCH  26  27
ATOM     27  C   UNL     1       4.521   4.455  17.220  0.00  0.00    +0.000 C 
BRANCH  27  28
ATOM     28  C   UNL     1       5.381   5.235  16.228  0.00  0.00    +0.000 C 
BRANCH  28  29
ATOM     29  N   UNL     1       4.963   6.627  16.149  0.00  0.00    +0.000 NA
ATOM     30  H   UNL     1       4.750   6.977  17.082  0.00  0.00    +0.000 HD
ATOM     31  H   UNL     1       4.091   6.680  15.623  0.00  0.00    +0.000 HD
ENDBRANCH  28  29
ENDBRANCH  27  28
ENDBRANCH  26  27
ENDBRANCH  25  26
ENDBRANCH  24  25
ENDBRANCH  23  24
ENDBRANCH  16  22
BRANCH  19  32
ATOM     32  O   UNL     1       1.434  10.967  21.693  0.00  0.00    +0.000 OA
ATOM     33  H   UNL     1       1.472  11.764  22.245  0.00  0.00    +0.000 HD
ENDBRANCH  19  32
TORSDOF 9
ENDMDL
MODEL 7
REMARK VINA RESULT:      -6.0      1.123      1.259
REMARK  Name = 
REMARK  11 active torsions:
REMARK  status: ('A' for Active; 'I' for Inactive)
REMARK    1  A    between atoms: C_1  and  C_2
REMARK    2  A    between atoms: C_5  and  O_6
REMARK    3  A    between atoms: C_15  and  C_16
REMARK    4  A    between atoms: C_17  and  C_18
REMARK    5  A    between atoms: N_19  and  O_20
REMARK    6  A    between atoms: O_20  and  C_21
REMARK    7  A    between atoms: C_21  and  C_22
REMARK    8  A    between atoms: C_22  and  C_23
REMARK    9  A    between atoms: C_23  and  C_24
REMARK   10  A    between atoms: C_24  and  N_25
REMARK   11  A    between atoms: C_28  and  O_29
REMARK                            x       y       z     vdW  Elec       q    Type
REMARK                         _______ _______ _______ _____ _____    ______ ____
ROOT
ATOM      1  C   UNL     1      -1.868  14.519  20.169  0.00  0.00    +0.000 C 
ATOM      2  C   UNL     1      -2.667  13.379  20.861  0.00  0.00    +0.000 C 
ATOM      3  C   UNL     1      -4.091  13.440  20.215  0.00  0.00    +0.000 C 
ATOM      4  C   UNL     1      -5.160  12.602  20.911  0.00  0.00    +0.000 C 
ATOM      5  C   UNL     1      -5.260  12.915  22.399  0.00  0.00    +0.000 C 
ATOM      6  C   UNL     1      -3.894  12.837  23.076  0.00  0.00    +0.000 C 
ATOM      7  C   UNL     1      -2.809  13.694  22.383  0.00  0.00    +0.000 C 
ATOM      8  C   UNL     1      -1.469  13.562  23.119  0.00  0.00    +0.000 C 
ATOM      9  C   UNL     1      -0.833  12.189  22.958  0.00  0.00    +0.000 C 
ATOM     10  C   UNL     1      -0.599  11.853  21.479  0.00  0.00    +0.000 C 
ATOM     11  C   UNL     1      -1.927  11.982  20.663  0.00  0.00    +0.000 C 
ATOM     12  C   UNL     1      -1.592  11.720  19.194  0.00  0.00    +0.000 C 
ATOM     13  C   UNL     1      -0.994  10.330  19.002  0.00  0.00    +0.000 C 
ATOM     14  C   UNL     1       0.295   9.988  19.855  0.00  0.00    +0.000 C 
ATOM     15  C   UNL     1       1.421  10.678  19.050  0.00  0.00    +0.000 C 
ATOM     16  C   UNL     1       0.662   8.452  20.112  0.00  0.00    +0.000 C 
ATOM     17  C   UNL     1       0.277   8.082  21.554  0.00  0.00    +0.000 C 
ATOM     18  C   UNL     1      -0.359   9.328  22.150  0.00  0.00    +0.000 C 
ATOM     19  C   UNL     1       0.180  10.510  21.318  0.00  0.00    +0.000 C 
ENDROOT
BRANCH   5  20
ATOM     20  O   UNL     1      -5.847  14.197  22.607  0.00  0.00    +0.000 OA
ATOM     21  H   UNL     1      -6.266  14.216  23.482  0.00  0.00    +0.000 HD
ENDBRANCH   5  20
BRANCH  16  22
ATOM     22  C   UNL     1       2.066   7.960  19.794  0.00  0.00    +0.000 C 
ATOM     23  N   UNL     1       2.218   7.115  18.828  0.00  0.00    +0.000 NA
BRANCH  23  24
ATOM     24  O   UNL     1       3.539   6.668  18.774  0.00  0.00    +0.000 OA
BRANCH  24  25
ATOM     25  C   UNL     1       3.969   6.804  17.415  0.00  0.00    +0.000 C 
BRANCH  25  26
ATOM     26  C   UNL     1       4.618   5.499  16.989  0.00  0.00    +0.000 C 
BRANCH  26  27
ATOM     27  C   UNL     1       5.835   5.712  16.091  0.00  0.00    +0.000 C 
BRANCH  27  28
ATOM     28  C   UNL     1       6.615   4.404  15.972  0.00  0.00    +0.000 C 
BRANCH  28  29
ATOM     29  N   UNL     1       7.714   4.357  16.926  0.00  0.00    +0.000 NA
ATOM     30  H   UNL     1       7.470   4.892  17.759  0.00  0.00    +0.000 HD
ATOM     31  H   UNL     1       8.524   4.822  16.519  0.00  0.00    +0.000 HD
ENDBRANCH  28  29
ENDBRANCH  27  28
ENDBRANCH  26  27
ENDBRANCH  25  26
ENDBRANCH  24  25
ENDBRANCH  23  24
ENDBRANCH  16  22
BRANCH  19  32
ATOM     32  O   UNL     1       1.529  10.709  21.782  0.00  0.00    +0.000 OA
ATOM     33  H   UNL     1       2.087  10.984  21.037  0.00  0.00    +0.000 HD
ENDBRANCH  19  32
TORSDOF 9
ENDMDL
MODEL 8
REMARK VINA RESULT:      -6.0      1.224      1.373
REMARK  Name = 
REMARK  11 active torsions:
REMARK  status: ('A' for Active; 'I' for Inactive)
REMARK    1  A    between atoms: C_1  and  C_2
REMARK    2  A    between atoms: C_5  and  O_6
REMARK    3  A    between atoms: C_15  and  C_16
REMARK    4  A    between atoms: C_17  and  C_18
REMARK    5  A    between atoms: N_19  and  O_20
REMARK    6  A    between atoms: O_20  and  C_21
REMARK    7  A    between atoms: C_21  and  C_22
REMARK    8  A    between atoms: C_22  and  C_23
REMARK    9  A    between atoms: C_23  and  C_24
REMARK   10  A    between atoms: C_24  and  N_25
REMARK   11  A    between atoms: C_28  and  O_29
REMARK                            x       y       z     vdW  Elec       q    Type
REMARK                         _______ _______ _______ _____ _____    ______ ____
ROOT
ATOM      1  C   UNL     1      -3.988  15.316  21.176  0.00  0.00    +0.000 C 
ATOM      2  C   UNL     1      -4.310  13.997  21.933  0.00  0.00    +0.000 C 
ATOM      3  C   UNL     1      -5.821  13.723  21.632  0.00  0.00    +0.000 C 
ATOM      4  C   UNL     1      -6.467  12.630  22.479  0.00  0.00    +0.000 C 
ATOM      5  C   UNL     1      -6.277  12.868  23.972  0.00  0.00    +0.000 C 
ATOM      6  C   UNL     1      -4.809  13.110  24.313  0.00  0.00    +0.000 C 
ATOM      7  C   UNL     1      -4.152  14.226  23.468  0.00  0.00    +0.000 C 
ATOM      8  C   UNL     1      -2.681  14.408  23.868  0.00  0.00    +0.000 C 
ATOM      9  C   UNL     1      -1.801  13.239  23.452  0.00  0.00    +0.000 C 
ATOM     10  C   UNL     1      -1.857  13.010  21.936  0.00  0.00    +0.000 C 
ATOM     11  C   UNL     1      -3.334  12.831  21.456  0.00  0.00    +0.000 C 
ATOM     12  C   UNL     1      -3.310  12.699  19.932  0.00  0.00    +0.000 C 
ATOM     13  C   UNL     1      -2.469  11.505  19.492  0.00  0.00    +0.000 C 
ATOM     14  C   UNL     1      -0.970  11.467  20.001  0.00  0.00    +0.000 C 
ATOM     15  C   UNL     1      -0.262  12.434  19.023  0.00  0.00    +0.000 C 
ATOM     16  C   UNL     1      -0.205  10.062  20.037  0.00  0.00    +0.000 C 
ATOM     17  C   UNL     1      -0.136   9.570  21.492  0.00  0.00    +0.000 C 
ATOM     18  C   UNL     1      -0.882  10.605  22.320  0.00  0.00    +0.000 C 
ATOM     19  C   UNL     1      -0.849  11.905  21.490  0.00  0.00    +0.000 C 
ENDROOT
BRANCH   5  20
ATOM     20  O   UNL     1      -7.078  13.960  24.415  0.00  0.00    +0.000 OA
ATOM     21  H   UNL     1      -6.564  14.780  24.349  0.00  0.00    +0.000 HD
ENDBRANCH   5  20
BRANCH  16  22
ATOM     22  C   UNL     1       1.157   9.940  19.370  0.00  0.00    +0.000 C 
ATOM     23  N   UNL     1       1.276   9.147  18.356  0.00  0.00    +0.000 NA
BRANCH  23  24
ATOM     24  O   UNL     1       2.613   9.051  17.967  0.00  0.00    +0.000 OA
BRANCH  24  25
ATOM     25  C   UNL     1       2.786   7.752  17.390  0.00  0.00    +0.000 C 
BRANCH  25  26
ATOM     26  C   UNL     1       2.401   6.715  18.429  0.00  0.00    +0.000 C 
BRANCH  26  27
ATOM     27  C   UNL     1       3.589   5.872  18.888  0.00  0.00    +0.000 C 
BRANCH  27  28
ATOM     28  C   UNL     1       3.950   4.864  17.798  0.00  0.00    +0.000 C 
BRANCH  28  29
ATOM     29  N   UNL     1       4.142   3.532  18.354  0.00  0.00    +0.000 NA
ATOM     30  H   UNL     1       4.035   2.834  17.619  0.00  0.00    +0.000 HD
ATOM     31  H   UNL     1       3.401   3.347  19.029  0.00  0.00    +0.000 HD
ENDBRANCH  28  29
ENDBRANCH  27  28
ENDBRANCH  26  27
ENDBRANCH  25  26
ENDBRANCH  24  25
ENDBRANCH  23  24
ENDBRANCH  16  22
BRANCH  19  32
ATOM     32  O   UNL     1       0.488  12.418  21.653  0.00  0.00    +0.000 OA
ATOM     33  H   UNL     1       0.512  13.344  21.364  0.00  0.00    +0.000 HD
ENDBRANCH  19  32
TORSDOF 9
ENDMDL
MODEL 9
REMARK VINA RESULT:      -6.0      2.373      3.665
REMARK  Name = 
REMARK  11 active torsions:
REMARK  status: ('A' for Active; 'I' for Inactive)
REMARK    1  A    between atoms: C_1  and  C_2
REMARK    2  A    between atoms: C_5  and  O_6
REMARK    3  A    between atoms: C_15  and  C_16
REMARK    4  A    between atoms: C_17  and  C_18
REMARK    5  A    between atoms: N_19  and  O_20
REMARK    6  A    between atoms: O_20  and  C_21
REMARK    7  A    between atoms: C_21  and  C_22
REMARK    8  A    between atoms: C_22  and  C_23
REMARK    9  A    between atoms: C_23  and  C_24
REMARK   10  A    between atoms: C_24  and  N_25
REMARK   11  A    between atoms: C_28  and  O_29
REMARK                            x       y       z     vdW  Elec       q    Type
REMARK                         _______ _______ _______ _____ _____    ______ ____
ROOT
ATOM      1  C   UNL     1      -3.350  12.250  23.349  0.00  0.00    +0.000 C 
ATOM      2  C   UNL     1      -2.292  13.189  22.701  0.00  0.00    +0.000 C 
ATOM      3  C   UNL     1      -1.728  14.035  23.890  0.00  0.00    +0.000 C 
ATOM      4  C   UNL     1      -0.866  15.229  23.490  0.00  0.00    +0.000 C 
ATOM      5  C   UNL     1      -1.574  16.145  22.500  0.00  0.00    +0.000 C 
ATOM      6  C   UNL     1      -2.114  15.362  21.306  0.00  0.00    +0.000 C 
ATOM      7  C   UNL     1      -3.000  14.159  21.705  0.00  0.00    +0.000 C 
ATOM      8  C   UNL     1      -3.503  13.424  20.455  0.00  0.00    +0.000 C 
ATOM      9  C   UNL     1      -2.399  12.680  19.717  0.00  0.00    +0.000 C 
ATOM     10  C   UNL     1      -1.713  11.654  20.628  0.00  0.00    +0.000 C 
ATOM     11  C   UNL     1      -1.188  12.335  21.934  0.00  0.00    +0.000 C 
ATOM     12  C   UNL     1      -0.601  11.236  22.822  0.00  0.00    +0.000 C 
ATOM     13  C   UNL     1       0.538  10.505  22.120  0.00  0.00    +0.000 C 
ATOM     14  C   UNL     1       0.205   9.857  20.714  0.00  0.00    +0.000 C 
ATOM     15  C   UNL     1      -0.507   8.543  21.112  0.00  0.00    +0.000 C 
ATOM     16  C   UNL     1       1.408   9.549  19.705  0.00  0.00    +0.000 C 
ATOM     17  C   UNL     1       1.417  10.616  18.598  0.00  0.00    +0.000 C 
ATOM     18  C   UNL     1       0.296  11.585  18.942  0.00  0.00    +0.000 C 
ATOM     19  C   UNL     1      -0.680  10.792  19.837  0.00  0.00    +0.000 C 
ENDROOT
BRANCH   5  20
ATOM     20  O   UNL     1      -2.623  16.866  23.139  0.00  0.00    +0.000 OA
ATOM     21  H   UNL     1      -3.455  16.378  23.034  0.00  0.00    +0.000 HD
ENDBRANCH   5  20
BRANCH  16  22
ATOM     22  C   UNL     1       1.534   8.157  19.101  0.00  0.00    +0.000 C 
ATOM     23  N   UNL     1       2.357   7.324  19.646  0.00  0.00    +0.000 NA
BRANCH  23  24
ATOM     24  O   UNL     1       2.448   6.159  18.882  0.00  0.00    +0.000 OA
BRANCH  24  25
ATOM     25  C   UNL     1       2.901   5.121  19.757  0.00  0.00    +0.000 C 
BRANCH  25  26
ATOM     26  C   UNL     1       1.775   4.784  20.718  0.00  0.00    +0.000 C 
BRANCH  26  27
ATOM     27  C   UNL     1       1.071   3.476  20.364  0.00  0.00    +0.000 C 
BRANCH  27  28
ATOM     28  C   UNL     1       2.103   2.453  19.894  0.00  0.00    +0.000 C 
BRANCH  28  29
ATOM     29  N   UNL     1       1.651   1.758  18.697  0.00  0.00    +0.000 NA
ATOM     30  H   UNL     1       0.949   1.062  18.947  0.00  0.00    +0.000 HD
ATOM     31  H   UNL     1       2.434   1.240  18.301  0.00  0.00    +0.000 HD
ENDBRANCH  28  29
ENDBRANCH  27  28
ENDBRANCH  26  27
ENDBRANCH  25  26
ENDBRANCH  24  25
ENDBRANCH  23  24
ENDBRANCH  16  22
BRANCH  19  32
ATOM     32  O   UNL     1      -1.402   9.933  18.933  0.00  0.00    +0.000 OA
ATOM     33  H   UNL     1      -1.349   9.018  19.252  0.00  0.00    +0.000 HD
ENDBRANCH  19  32
TORSDOF 9
ENDMDL
