MODEL 1
REMARK VINA RESULT:      -6.9      0.000      0.000
REMARK  Name = 
REMARK  10 active torsions:
REMARK  status: ('A' for Active; 'I' for Inactive)
REMARK    1  A    between atoms: C_1  and  O_2
REMARK    2  A    between atoms: O_2  and  C_3
REMARK    3  A    between atoms: C_5  and  O_6
REMARK    4  A    between atoms: O_6  and  C_7
REMARK    5  A    between atoms: C_14  and  C_15
REMARK    6  A    between atoms: C_17  and  O_18
REMARK    7  A    between atoms: O_18  and  C_19
REMARK    8  A    between atoms: C_20  and  O_21
REMARK    9  A    between atoms: O_21  and  C_22
REMARK   10  A    between atoms: C_24  and  C_25
REMARK                            x       y       z     vdW  Elec       q    Type
REMARK                         _______ _______ _______ _____ _____    ______ ____
ROOT
ATOM      1  C   UNL     1       6.292   4.866  15.406  0.00  0.00    +0.000 A 
ATOM      2  C   UNL     1       5.062   4.204  15.488  0.00  0.00    +0.000 A 
ATOM      3  C   UNL     1       4.410   3.948  16.712  0.00  0.00    +0.000 A 
ATOM      4  C   UNL     1       5.021   4.385  17.876  0.00  0.00    +0.000 A 
ATOM      5  C   UNL     1       6.265   5.008  17.772  0.00  0.00    +0.000 A 
ATOM      6  C   UNL     1       6.917   5.272  16.574  0.00  0.00    +0.000 A 
ATOM      7  C   UNL     1       6.764   5.342  19.102  0.00  0.00    +0.000 C 
ATOM      8  O   UNL     1       7.816   5.901  19.351  0.00  0.00    +0.000 OA
ATOM      9  O   UNL     1       5.831   4.909  19.984  0.00  0.00    +0.000 OA
ATOM     10  C   UNL     1       4.655   4.367  19.326  0.00  0.00    +0.000 C 
ENDROOT
BRANCH  10  11
ATOM     11  C   UNL     1       3.482   5.244  19.742  0.00  0.00    +0.000 A 
ATOM     12  C   UNL     1       3.378   6.539  19.185  0.00  0.00    +0.000 A 
ATOM     13  C   UNL     1       2.360   7.430  19.541  0.00  0.00    +0.000 A 
ATOM     14  C   UNL     1       1.412   7.037  20.496  0.00  0.00    +0.000 A 
ATOM     15  C   UNL     1       1.495   5.753  21.048  0.00  0.00    +0.000 A 
ATOM     16  C   UNL     1       2.519   4.852  20.695  0.00  0.00    +0.000 A 
ATOM     17  C   UNL     1       2.536   3.517  21.391  0.00  0.00    +0.000 C 
BRANCH  13  18
ATOM     18  O   UNL     1       2.266   8.705  19.038  0.00  0.00    +0.000 OA
ATOM     19  C   UNL     1       2.053   8.826  17.635  0.00  0.00    +0.000 C 
ENDBRANCH  13  18
BRANCH  14  20
ATOM     20  O   UNL     1       0.445   7.954  20.827  0.00  0.00    +0.000 OA
ATOM     21  C   UNL     1       0.716   8.813  21.929  0.00  0.00    +0.000 C 
ENDBRANCH  14  20
ENDBRANCH  10  11
BRANCH   1  23
ATOM     22  C   UNL     1       6.513   3.985  13.210  0.00  0.00    +0.000 C 
ATOM     23  O   UNL     1       6.762   5.036  14.134  0.00  0.00    +0.000 OA
ENDBRANCH   1  23
BRANCH   3  24
ATOM     24  O   UNL     1       3.242   3.281  16.515  0.00  0.00    +0.000 OA
ATOM     25  C   UNL     1       2.770   2.385  17.495  0.00  0.00    +0.000 C 
ENDBRANCH   3  24
TORSDOF 5
ENDMDL
MODEL 2
REMARK VINA RESULT:      -6.5      4.343      7.729
REMARK  Name = 
REMARK  10 active torsions:
REMARK  status: ('A' for Active; 'I' for Inactive)
REMARK    1  A    between atoms: C_1  and  O_2
REMARK    2  A    between atoms: O_2  and  C_3
REMARK    3  A    between atoms: C_5  and  O_6
REMARK    4  A    between atoms: O_6  and  C_7
REMARK    5  A    between atoms: C_14  and  C_15
REMARK    6  A    between atoms: C_17  and  O_18
REMARK    7  A    between atoms: O_18  and  C_19
REMARK    8  A    between atoms: C_20  and  O_21
REMARK    9  A    between atoms: O_21  and  C_22
REMARK   10  A    between atoms: C_24  and  C_25
REMARK                            x       y       z     vdW  Elec       q    Type
REMARK                         _______ _______ _______ _____ _____    ______ ____
ROOT
ATOM      1  C   UNL     1       1.800   7.120  20.133  0.00  0.00    +0.000 A 
ATOM      2  C   UNL     1       0.870   7.489  21.113  0.00  0.00    +0.000 A 
ATOM      3  C   UNL     1       0.242   8.751  21.134  0.00  0.00    +0.000 A 
ATOM      4  C   UNL     1       0.562   9.653  20.132  0.00  0.00    +0.000 A 
ATOM      5  C   UNL     1       1.520   9.277  19.191  0.00  0.00    +0.000 A 
ATOM      6  C   UNL     1       2.143   8.036  19.152  0.00  0.00    +0.000 A 
ATOM      7  C   UNL     1       1.757  10.375  18.259  0.00  0.00    +0.000 C 
ATOM      8  O   UNL     1       2.527  10.359  17.317  0.00  0.00    +0.000 OA
ATOM      9  O   UNL     1       0.956  11.395  18.654  0.00  0.00    +0.000 OA
ATOM     10  C   UNL     1       0.100  11.028  19.768  0.00  0.00    +0.000 C 
ENDROOT
BRANCH  10  11
ATOM     11  C   UNL     1      -1.335  11.154  19.274  0.00  0.00    +0.000 A 
ATOM     12  C   UNL     1      -1.723  10.411  18.137  0.00  0.00    +0.000 A 
ATOM     13  C   UNL     1      -3.006  10.497  17.585  0.00  0.00    +0.000 A 
ATOM     14  C   UNL     1      -3.942  11.362  18.168  0.00  0.00    +0.000 A 
ATOM     15  C   UNL     1      -3.576  12.097  19.301  0.00  0.00    +0.000 A 
ATOM     16  C   UNL     1      -2.285  12.016  19.860  0.00  0.00    +0.000 A 
ATOM     17  C   UNL     1      -1.990  12.890  21.050  0.00  0.00    +0.000 C 
BRANCH  13  18
ATOM     18  O   UNL     1      -3.388   9.811  16.458  0.00  0.00    +0.000 OA
ATOM     19  C   UNL     1      -2.879  10.286  15.216  0.00  0.00    +0.000 C 
ENDBRANCH  13  18
BRANCH  14  20
ATOM     20  O   UNL     1      -5.180  11.428  17.578  0.00  0.00    +0.000 OA
ATOM     21  C   UNL     1      -6.285  10.945  18.333  0.00  0.00    +0.000 C 
ENDBRANCH  14  20
ENDBRANCH  10  11
BRANCH   1  23
ATOM     22  C   UNL     1       1.362   4.835  20.614  0.00  0.00    +0.000 C 
ATOM     23  O   UNL     1       2.291   5.852  20.267  0.00  0.00    +0.000 OA
ENDBRANCH   1  23
BRANCH   3  24
ATOM     24  O   UNL     1      -0.603   8.860  22.194  0.00  0.00    +0.000 OA
ATOM     25  C   UNL     1      -0.403   9.871  23.154  0.00  0.00    +0.000 C 
ENDBRANCH   3  24
TORSDOF 5
ENDMDL
MODEL 3
REMARK VINA RESULT:      -6.2      0.912      1.052
REMARK  Name = 
REMARK  10 active torsions:
REMARK  status: ('A' for Active; 'I' for Inactive)
REMARK    1  A    between atoms: C_1  and  O_2
REMARK    2  A    between atoms: O_2  and  C_3
REMARK    3  A    between atoms: C_5  and  O_6
REMARK    4  A    between atoms: O_6  and  C_7
REMARK    5  A    between atoms: C_14  and  C_15
REMARK    6  A    between atoms: C_17  and  O_18
REMARK    7  A    between atoms: O_18  and  C_19
REMARK    8  A    between atoms: C_20  and  O_21
REMARK    9  A    between atoms: O_21  and  C_22
REMARK   10  A    between atoms: C_24  and  C_25
REMARK                            x       y       z     vdW  Elec       q    Type
REMARK                         _______ _______ _______ _____ _____    ______ ____
ROOT
ATOM      1  C   UNL     1       6.342   4.282  15.309  0.00  0.00    +0.000 A 
ATOM      2  C   UNL     1       5.053   3.765  15.484  0.00  0.00    +0.000 A 
ATOM      3  C   UNL     1       4.336   3.891  16.692  0.00  0.00    +0.000 A 
ATOM      4  C   UNL     1       4.942   4.566  17.740  0.00  0.00    +0.000 A 
ATOM      5  C   UNL     1       6.241   5.037  17.554  0.00  0.00    +0.000 A 
ATOM      6  C   UNL     1       6.958   4.926  16.369  0.00  0.00    +0.000 A 
ATOM      7  C   UNL     1       6.720   5.665  18.781  0.00  0.00    +0.000 C 
ATOM      8  O   UNL     1       7.810   6.182  18.940  0.00  0.00    +0.000 OA
ATOM      9  O   UNL     1       5.719   5.554  19.687  0.00  0.00    +0.000 OA
ATOM     10  C   UNL     1       4.523   4.956  19.121  0.00  0.00    +0.000 C 
ENDROOT
BRANCH  10  11
ATOM     11  C   UNL     1       3.422   6.003  19.227  0.00  0.00    +0.000 A 
ATOM     12  C   UNL     1       3.396   7.051  18.280  0.00  0.00    +0.000 A 
ATOM     13  C   UNL     1       2.450   8.081  18.325  0.00  0.00    +0.000 A 
ATOM     14  C   UNL     1       1.498   8.088  19.354  0.00  0.00    +0.000 A 
ATOM     15  C   UNL     1       1.504   7.050  20.293  0.00  0.00    +0.000 A 
ATOM     16  C   UNL     1       2.456   6.012  20.254  0.00  0.00    +0.000 A 
ATOM     17  C   UNL     1       2.394   4.977  21.346  0.00  0.00    +0.000 C 
BRANCH  13  18
ATOM     18  O   UNL     1       2.434   9.128  17.436  0.00  0.00    +0.000 OA
ATOM     19  C   UNL     1       2.517  10.438  17.988  0.00  0.00    +0.000 C 
ENDBRANCH  13  18
BRANCH  14  20
ATOM     20  O   UNL     1       0.604   9.131  19.368  0.00  0.00    +0.000 OA
ATOM     21  C   UNL     1       0.056   9.499  20.628  0.00  0.00    +0.000 C 
ENDBRANCH  14  20
ENDBRANCH  10  11
BRANCH   1  23
ATOM     22  C   UNL     1       5.972   3.673  13.042  0.00  0.00    +0.000 C 
ATOM     23  O   UNL     1       6.872   4.075  14.067  0.00  0.00    +0.000 OA
ENDBRANCH   1  23
BRANCH   3  24
ATOM     24  O   UNL     1       3.118   3.292  16.604  0.00  0.00    +0.000 OA
ATOM     25  C   UNL     1       2.724   2.352  17.577  0.00  0.00    +0.000 C 
ENDBRANCH   3  24
TORSDOF 5
ENDMDL
MODEL 4
REMARK VINA RESULT:      -6.2      2.062      6.730
REMARK  Name = 
REMARK  10 active torsions:
REMARK  status: ('A' for Active; 'I' for Inactive)
REMARK    1  A    between atoms: C_1  and  O_2
REMARK    2  A    between atoms: O_2  and  C_3
REMARK    3  A    between atoms: C_5  and  O_6
REMARK    4  A    between atoms: O_6  and  C_7
REMARK    5  A    between atoms: C_14  and  C_15
REMARK    6  A    between atoms: C_17  and  O_18
REMARK    7  A    between atoms: O_18  and  C_19
REMARK    8  A    between atoms: C_20  and  O_21
REMARK    9  A    between atoms: O_21  and  C_22
REMARK   10  A    between atoms: C_24  and  C_25
REMARK                            x       y       z     vdW  Elec       q    Type
REMARK                         _______ _______ _______ _____ _____    ______ ____
ROOT
ATOM      1  C   UNL     1       1.324   8.965  21.543  0.00  0.00    +0.000 A 
ATOM      2  C   UNL     1       1.280   7.566  21.499  0.00  0.00    +0.000 A 
ATOM      3  C   UNL     1       1.509   6.831  20.318  0.00  0.00    +0.000 A 
ATOM      4  C   UNL     1       1.797   7.534  19.160  0.00  0.00    +0.000 A 
ATOM      5  C   UNL     1       1.796   8.928  19.221  0.00  0.00    +0.000 A 
ATOM      6  C   UNL     1       1.579   9.667  20.376  0.00  0.00    +0.000 A 
ATOM      7  C   UNL     1       2.064   9.481  17.897  0.00  0.00    +0.000 C 
ATOM      8  O   UNL     1       2.139  10.663  17.618  0.00  0.00    +0.000 OA
ATOM      9  O   UNL     1       2.208   8.426  17.060  0.00  0.00    +0.000 OA
ATOM     10  C   UNL     1       2.144   7.152  17.757  0.00  0.00    +0.000 C 
ENDROOT
BRANCH  10  11
ATOM     11  C   UNL     1       3.492   6.475  17.550  0.00  0.00    +0.000 A 
ATOM     12  C   UNL     1       4.623   7.287  17.309  0.00  0.00    +0.000 A 
ATOM     13  C   UNL     1       5.893   6.753  17.064  0.00  0.00    +0.000 A 
ATOM     14  C   UNL     1       6.054   5.361  17.041  0.00  0.00    +0.000 A 
ATOM     15  C   UNL     1       4.945   4.543  17.290  0.00  0.00    +0.000 A 
ATOM     16  C   UNL     1       3.663   5.076  17.535  0.00  0.00    +0.000 A 
ATOM     17  C   UNL     1       2.537   4.099  17.739  0.00  0.00    +0.000 C 
BRANCH  13  18
ATOM     18  O   UNL     1       6.995   7.526  16.790  0.00  0.00    +0.000 OA
ATOM     19  C   UNL     1       7.632   8.149  17.901  0.00  0.00    +0.000 C 
ENDBRANCH  13  18
BRANCH  14  20
ATOM     20  O   UNL     1       7.314   4.884  16.776  0.00  0.00    +0.000 OA
ATOM     21  C   UNL     1       8.074   4.409  17.882  0.00  0.00    +0.000 C 
ENDBRANCH  14  20
ENDBRANCH  10  11
BRANCH   1  23
ATOM     22  C   UNL     1      -0.264   9.612  23.187  0.00  0.00    +0.000 C 
ATOM     23  O   UNL     1       1.092   9.501  22.778  0.00  0.00    +0.000 OA
ENDBRANCH   1  23
BRANCH   3  24
ATOM     24  O   UNL     1       1.394   5.494  20.543  0.00  0.00    +0.000 OA
ATOM     25  C   UNL     1       2.449   4.791  21.157  0.00  0.00    +0.000 C 
ENDBRANCH   3  24
TORSDOF 5
ENDMDL
MODEL 5
REMARK VINA RESULT:      -6.1      6.717     10.556
REMARK  Name = 
REMARK  10 active torsions:
REMARK  status: ('A' for Active; 'I' for Inactive)
REMARK    1  A    between atoms: C_1  and  O_2
REMARK    2  A    between atoms: O_2  and  C_3
REMARK    3  A    between atoms: C_5  and  O_6
REMARK    4  A    between atoms: O_6  and  C_7
REMARK    5  A    between atoms: C_14  and  C_15
REMARK    6  A    between atoms: C_17  and  O_18
REMARK    7  A    between atoms: O_18  and  C_19
REMARK    8  A    between atoms: C_20  and  O_21
REMARK    9  A    between atoms: O_21  and  C_22
REMARK   10  A    between atoms: C_24  and  C_25
REMARK                            x       y       z     vdW  Elec       q    Type
REMARK                         _______ _______ _______ _____ _____    ______ ____
ROOT
ATOM      1  C   UNL     1      -1.092  14.732  22.895  0.00  0.00    +0.000 A 
ATOM      2  C   UNL     1      -0.618  15.089  21.627  0.00  0.00    +0.000 A 
ATOM      3  C   UNL     1      -0.187  14.140  20.677  0.00  0.00    +0.000 A 
ATOM      4  C   UNL     1      -0.248  12.800  21.023  0.00  0.00    +0.000 A 
ATOM      5  C   UNL     1      -0.687  12.473  22.306  0.00  0.00    +0.000 A 
ATOM      6  C   UNL     1      -1.121  13.394  23.250  0.00  0.00    +0.000 A 
ATOM      7  C   UNL     1      -0.628  11.026  22.495  0.00  0.00    +0.000 C 
ATOM      8  O   UNL     1      -0.953  10.423  23.501  0.00  0.00    +0.000 OA
ATOM      9  O   UNL     1      -0.146  10.506  21.341  0.00  0.00    +0.000 OA
ATOM     10  C   UNL     1       0.050  11.517  20.316  0.00  0.00    +0.000 C 
ENDROOT
BRANCH  10  11
ATOM     11  C   UNL     1      -0.871  11.148  19.160  0.00  0.00    +0.000 A 
ATOM     12  C   UNL     1      -2.171  11.701  19.133  0.00  0.00    +0.000 A 
ATOM     13  C   UNL     1      -3.101  11.386  18.135  0.00  0.00    +0.000 A 
ATOM     14  C   UNL     1      -2.742  10.476  17.131  0.00  0.00    +0.000 A 
ATOM     15  C   UNL     1      -1.453   9.928  17.139  0.00  0.00    +0.000 A 
ATOM     16  C   UNL     1      -0.514  10.241  18.142  0.00  0.00    +0.000 A 
ATOM     17  C   UNL     1       0.823   9.552  18.075  0.00  0.00    +0.000 C 
BRANCH  13  18
ATOM     18  O   UNL     1      -4.381  11.884  18.114  0.00  0.00    +0.000 OA
ATOM     19  C   UNL     1      -4.911  12.339  19.356  0.00  0.00    +0.000 C 
ENDBRANCH  13  18
BRANCH  14  20
ATOM     20  O   UNL     1      -3.694  10.182  16.188  0.00  0.00    +0.000 OA
ATOM     21  C   UNL     1      -3.266  10.110  14.833  0.00  0.00    +0.000 C 
ENDBRANCH  14  20
ENDBRANCH  10  11
BRANCH   1  23
ATOM     22  C   UNL     1      -1.375  15.621  25.080  0.00  0.00    +0.000 C 
ATOM     23  O   UNL     1      -1.480  15.787  23.673  0.00  0.00    +0.000 OA
ENDBRANCH   1  23
BRANCH   3  24
ATOM     24  O   UNL     1       0.238  14.747  19.536  0.00  0.00    +0.000 OA
ATOM     25  C   UNL     1       1.603  14.717  19.189  0.00  0.00    +0.000 C 
ENDBRANCH   3  24
TORSDOF 5
ENDMDL
MODEL 6
REMARK VINA RESULT:      -5.9      1.139      2.326
REMARK  Name = 
REMARK  10 active torsions:
REMARK  status: ('A' for Active; 'I' for Inactive)
REMARK    1  A    between atoms: C_1  and  O_2
REMARK    2  A    between atoms: O_2  and  C_3
REMARK    3  A    between atoms: C_5  and  O_6
REMARK    4  A    between atoms: O_6  and  C_7
REMARK    5  A    between atoms: C_14  and  C_15
REMARK    6  A    between atoms: C_17  and  O_18
REMARK    7  A    between atoms: O_18  and  C_19
REMARK    8  A    between atoms: C_20  and  O_21
REMARK    9  A    between atoms: O_21  and  C_22
REMARK   10  A    between atoms: C_24  and  C_25
REMARK                            x       y       z     vdW  Elec       q    Type
REMARK                         _______ _______ _______ _____ _____    ______ ____
ROOT
ATOM      1  C   UNL     1       6.189   3.871  15.496  0.00  0.00    +0.000 A 
ATOM      2  C   UNL     1       4.829   3.586  15.666  0.00  0.00    +0.000 A 
ATOM      3  C   UNL     1       4.111   3.948  16.824  0.00  0.00    +0.000 A 
ATOM      4  C   UNL     1       4.790   4.623  17.826  0.00  0.00    +0.000 A 
ATOM      5  C   UNL     1       6.154   4.860  17.649  0.00  0.00    +0.000 A 
ATOM      6  C   UNL     1       6.874   4.516  16.513  0.00  0.00    +0.000 A 
ATOM      7  C   UNL     1       6.696   5.528  18.829  0.00  0.00    +0.000 C 
ATOM      8  O   UNL     1       7.851   5.879  18.983  0.00  0.00    +0.000 OA
ATOM      9  O   UNL     1       5.667   5.671  19.699  0.00  0.00    +0.000 OA
ATOM     10  C   UNL     1       4.404   5.215  19.144  0.00  0.00    +0.000 C 
ENDROOT
BRANCH  10  11
ATOM     11  C   UNL     1       3.485   6.428  19.100  0.00  0.00    +0.000 A 
ATOM     12  C   UNL     1       2.611   6.649  20.188  0.00  0.00    +0.000 A 
ATOM     13  C   UNL     1       1.700   7.711  20.216  0.00  0.00    +0.000 A 
ATOM     14  C   UNL     1       1.637   8.584  19.122  0.00  0.00    +0.000 A 
ATOM     15  C   UNL     1       2.505   8.385  18.042  0.00  0.00    +0.000 A 
ATOM     16  C   UNL     1       3.423   7.316  18.007  0.00  0.00    +0.000 A 
ATOM     17  C   UNL     1       4.271   7.173  16.772  0.00  0.00    +0.000 C 
BRANCH  13  18
ATOM     18  O   UNL     1       0.817   7.918  21.248  0.00  0.00    +0.000 OA
ATOM     19  C   UNL     1       1.181   8.897  22.216  0.00  0.00    +0.000 C 
ENDBRANCH  13  18
BRANCH  14  20
ATOM     20  O   UNL     1       0.714   9.599  19.187  0.00  0.00    +0.000 OA
ATOM     21  C   UNL     1       1.081  10.849  18.615  0.00  0.00    +0.000 C 
ENDBRANCH  14  20
ENDBRANCH  10  11
BRANCH   1  23
ATOM     22  C   UNL     1       5.949   3.736  13.136  0.00  0.00    +0.000 C 
ATOM     23  O   UNL     1       6.710   3.456  14.303  0.00  0.00    +0.000 OA
ENDBRANCH   1  23
BRANCH   3  24
ATOM     24  O   UNL     1       2.815   3.543  16.744  0.00  0.00    +0.000 OA
ATOM     25  C   UNL     1       2.286   2.678  17.722  0.00  0.00    +0.000 C 
ENDBRANCH   3  24
TORSDOF 5
ENDMDL
MODEL 7
REMARK VINA RESULT:      -5.9      6.794     10.673
REMARK  Name = 
REMARK  10 active torsions:
REMARK  status: ('A' for Active; 'I' for Inactive)
REMARK    1  A    between atoms: C_1  and  O_2
REMARK    2  A    between atoms: O_2  and  C_3
REMARK    3  A    between atoms: C_5  and  O_6
REMARK    4  A    between atoms: O_6  and  C_7
REMARK    5  A    between atoms: C_14  and  C_15
REMARK    6  A    between atoms: C_17  and  O_18
REMARK    7  A    between atoms: O_18  and  C_19
REMARK    8  A    between atoms: C_20  and  O_21
REMARK    9  A    between atoms: O_21  and  C_22
REMARK   10  A    between atoms: C_24  and  C_25
REMARK                            x       y       z     vdW  Elec       q    Type
REMARK                         _______ _______ _______ _____ _____    ______ ____
ROOT
ATOM      1  C   UNL     1      -5.580  12.304  17.534  0.00  0.00    +0.000 A 
ATOM      2  C   UNL     1      -5.133  12.474  18.850  0.00  0.00    +0.000 A 
ATOM      3  C   UNL     1      -3.889  11.990  19.304  0.00  0.00    +0.000 A 
ATOM      4  C   UNL     1      -3.080  11.326  18.396  0.00  0.00    +0.000 A 
ATOM      5  C   UNL     1      -3.564  11.134  17.102  0.00  0.00    +0.000 A 
ATOM      6  C   UNL     1      -4.783  11.610  16.637  0.00  0.00    +0.000 A 
ATOM      7  C   UNL     1      -2.596  10.372  16.319  0.00  0.00    +0.000 C 
ATOM      8  O   UNL     1      -2.716  10.049  15.152  0.00  0.00    +0.000 OA
ATOM      9  O   UNL     1      -1.557  10.104  17.146  0.00  0.00    +0.000 OA
ATOM     10  C   UNL     1      -1.712  10.724  18.451  0.00  0.00    +0.000 C 
ENDROOT
BRANCH  10  11
ATOM     11  C   UNL     1      -0.549  11.694  18.612  0.00  0.00    +0.000 A 
ATOM     12  C   UNL     1      -0.818  13.080  18.568  0.00  0.00    +0.000 A 
ATOM     13  C   UNL     1       0.192  14.044  18.663  0.00  0.00    +0.000 A 
ATOM     14  C   UNL     1       1.524  13.627  18.792  0.00  0.00    +0.000 A 
ATOM     15  C   UNL     1       1.805  12.257  18.848  0.00  0.00    +0.000 A 
ATOM     16  C   UNL     1       0.792  11.281  18.752  0.00  0.00    +0.000 A 
ATOM     17  C   UNL     1       1.218   9.838  18.775  0.00  0.00    +0.000 C 
BRANCH  13  18
ATOM     18  O   UNL     1      -0.047  15.395  18.583  0.00  0.00    +0.000 OA
ATOM     19  C   UNL     1      -0.787  15.978  19.651  0.00  0.00    +0.000 C 
ENDBRANCH  13  18
BRANCH  14  20
ATOM     20  O   UNL     1       2.480  14.609  18.860  0.00  0.00    +0.000 OA
ATOM     21  C   UNL     1       3.148  14.780  20.104  0.00  0.00    +0.000 C 
ENDBRANCH  14  20
ENDBRANCH  10  11
BRANCH   1  23
ATOM     22  C   UNL     1      -7.711  12.948  18.363  0.00  0.00    +0.000 C 
ATOM     23  O   UNL     1      -6.803  12.854  17.274  0.00  0.00    +0.000 OA
ENDBRANCH   1  23
BRANCH   3  24
ATOM     24  O   UNL     1      -3.704  12.274  20.620  0.00  0.00    +0.000 OA
ATOM     25  C   UNL     1      -4.781  12.745  21.398  0.00  0.00    +0.000 C 
ENDBRANCH   3  24
TORSDOF 5
ENDMDL
MODEL 8
REMARK VINA RESULT:      -5.8      5.623      9.682
REMARK  Name = 
REMARK  10 active torsions:
REMARK  status: ('A' for Active; 'I' for Inactive)
REMARK    1  A    between atoms: C_1  and  O_2
REMARK    2  A    between atoms: O_2  and  C_3
REMARK    3  A    between atoms: C_5  and  O_6
REMARK    4  A    between atoms: O_6  and  C_7
REMARK    5  A    between atoms: C_14  and  C_15
REMARK    6  A    between atoms: C_17  and  O_18
REMARK    7  A    between atoms: O_18  and  C_19
REMARK    8  A    between atoms: C_20  and  O_21
REMARK    9  A    between atoms: O_21  and  C_22
REMARK   10  A    between atoms: C_24  and  C_25
REMARK                            x       y       z     vdW  Elec       q    Type
REMARK                         _______ _______ _______ _____ _____    ______ ____
ROOT
ATOM      1  C   UNL     1       0.806   9.832  19.620  0.00  0.00    +0.000 A 
ATOM      2  C   UNL     1       0.289   9.696  20.913  0.00  0.00    +0.000 A 
ATOM      3  C   UNL     1      -0.525  10.675  21.518  0.00  0.00    +0.000 A 
ATOM      4  C   UNL     1      -0.826  11.813  20.786  0.00  0.00    +0.000 A 
ATOM      5  C   UNL     1      -0.266  11.943  19.515  0.00  0.00    +0.000 A 
ATOM      6  C   UNL     1       0.532  10.985  18.903  0.00  0.00    +0.000 A 
ATOM      7  C   UNL     1      -0.654  13.223  18.933  0.00  0.00    +0.000 C 
ATOM      8  O   UNL     1      -0.338  13.632  17.831  0.00  0.00    +0.000 OA
ATOM      9  O   UNL     1      -1.424  13.850  19.855  0.00  0.00    +0.000 OA
ATOM     10  C   UNL     1      -1.669  13.025  21.025  0.00  0.00    +0.000 C 
ENDROOT
BRANCH  10  11
ATOM     11  C   UNL     1      -3.174  12.803  21.093  0.00  0.00    +0.000 A 
ATOM     12  C   UNL     1      -3.894  12.693  19.882  0.00  0.00    +0.000 A 
ATOM     13  C   UNL     1      -5.283  12.533  19.846  0.00  0.00    +0.000 A 
ATOM     14  C   UNL     1      -5.997  12.494  21.052  0.00  0.00    +0.000 A 
ATOM     15  C   UNL     1      -5.297  12.591  22.260  0.00  0.00    +0.000 A 
ATOM     16  C   UNL     1      -3.897  12.754  22.302  0.00  0.00    +0.000 A 
ATOM     17  C   UNL     1      -3.259  12.895  23.658  0.00  0.00    +0.000 C 
BRANCH  13  18
ATOM     18  O   UNL     1      -6.003  12.463  18.678  0.00  0.00    +0.000 OA
ATOM     19  C   UNL     1      -5.327  11.935  17.541  0.00  0.00    +0.000 C 
ENDBRANCH  13  18
BRANCH  14  20
ATOM     20  O   UNL     1      -7.360  12.357  20.964  0.00  0.00    +0.000 OA
ATOM     21  C   UNL     1      -7.906  11.080  21.273  0.00  0.00    +0.000 C 
ENDBRANCH  14  20
ENDBRANCH  10  11
BRANCH   1  23
ATOM     22  C   UNL     1       2.185   8.897  17.925  0.00  0.00    +0.000 C 
ATOM     23  O   UNL     1       1.561   8.775  19.197  0.00  0.00    +0.000 OA
ENDBRANCH   1  23
BRANCH   3  24
ATOM     24  O   UNL     1      -0.882  10.307  22.778  0.00  0.00    +0.000 OA
ATOM     25  C   UNL     1      -0.075   9.408  23.503  0.00  0.00    +0.000 C 
ENDBRANCH   3  24
TORSDOF 5
ENDMDL
MODEL 9
REMARK VINA RESULT:      -5.8      3.789      8.356
REMARK  Name = 
REMARK  10 active torsions:
REMARK  status: ('A' for Active; 'I' for Inactive)
REMARK    1  A    between atoms: C_1  and  O_2
REMARK    2  A    between atoms: O_2  and  C_3
REMARK    3  A    between atoms: C_5  and  O_6
REMARK    4  A    between atoms: O_6  and  C_7
REMARK    5  A    between atoms: C_14  and  C_15
REMARK    6  A    between atoms: C_17  and  O_18
REMARK    7  A    between atoms: O_18  and  C_19
REMARK    8  A    between atoms: C_20  and  O_21
REMARK    9  A    between atoms: O_21  and  C_22
REMARK   10  A    between atoms: C_24  and  C_25
REMARK                            x       y       z     vdW  Elec       q    Type
REMARK                         _______ _______ _______ _____ _____    ______ ____
ROOT
ATOM      1  C   UNL     1      -2.842  12.237  19.425  0.00  0.00    +0.000 A 
ATOM      2  C   UNL     1      -2.776  11.220  18.466  0.00  0.00    +0.000 A 
ATOM      3  C   UNL     1      -1.560  10.636  18.053  0.00  0.00    +0.000 A 
ATOM      4  C   UNL     1      -0.389  11.092  18.636  0.00  0.00    +0.000 A 
ATOM      5  C   UNL     1      -0.478  12.134  19.560  0.00  0.00    +0.000 A 
ATOM      6  C   UNL     1      -1.667  12.715  19.981  0.00  0.00    +0.000 A 
ATOM      7  C   UNL     1       0.857  12.507  20.015  0.00  0.00    +0.000 C 
ATOM      8  O   UNL     1       1.119  13.374  20.828  0.00  0.00    +0.000 OA
ATOM      9  O   UNL     1       1.728  11.703  19.357  0.00  0.00    +0.000 OA
ATOM     10  C   UNL     1       1.055  10.719  18.527  0.00  0.00    +0.000 C 
ENDROOT
BRANCH  10  11
ATOM     11  C   UNL     1       1.446   9.352  19.071  0.00  0.00    +0.000 A 
ATOM     12  C   UNL     1       2.147   8.465  18.222  0.00  0.00    +0.000 A 
ATOM     13  C   UNL     1       2.509   7.174  18.620  0.00  0.00    +0.000 A 
ATOM     14  C   UNL     1       2.153   6.729  19.900  0.00  0.00    +0.000 A 
ATOM     15  C   UNL     1       1.468   7.599  20.757  0.00  0.00    +0.000 A 
ATOM     16  C   UNL     1       1.099   8.901  20.361  0.00  0.00    +0.000 A 
ATOM     17  C   UNL     1       0.322   9.729  21.349  0.00  0.00    +0.000 C 
BRANCH  13  18
ATOM     18  O   UNL     1       3.157   6.286  17.795  0.00  0.00    +0.000 OA
ATOM     19  C   UNL     1       4.475   6.638  17.386  0.00  0.00    +0.000 C 
ENDBRANCH  13  18
BRANCH  14  20
ATOM     20  O   UNL     1       2.512   5.447  20.237  0.00  0.00    +0.000 OA
ATOM     21  C   UNL     1       1.459   4.517  20.465  0.00  0.00    +0.000 C 
ENDBRANCH  14  20
ENDBRANCH  10  11
BRANCH   1  23
ATOM     22  C   UNL     1      -4.477  12.726  21.079  0.00  0.00    +0.000 C 
ATOM     23  O   UNL     1      -4.108  12.669  19.707  0.00  0.00    +0.000 OA
ENDBRANCH   1  23
BRANCH   3  24
ATOM     24  O   UNL     1      -1.771   9.685  17.105  0.00  0.00    +0.000 OA
ATOM     25  C   UNL     1      -2.752   9.883  16.113  0.00  0.00    +0.000 C 
ENDBRANCH   3  24
TORSDOF 5
ENDMDL
