MODEL 1
REMARK VINA RESULT:      -8.4      0.000      0.000
REMARK  Name = 
REMARK  5 active torsions:
REMARK  status: ('A' for Active; 'I' for Inactive)
REMARK    1  A    between atoms: C_1  and  C_2
REMARK    2  A    between atoms: C_2  and  C_26
REMARK    3  A    between atoms: C_3  and  C_4
REMARK    4  A    between atoms: C_4  and  C_5
REMARK    5  A    between atoms: C_16  and  O_17
REMARK                            x       y       z     vdW  Elec       q    Type
REMARK                         _______ _______ _______ _____ _____    ______ ____
ROOT
ATOM      1  C   UNL     1       2.252   5.024  18.831  0.00  0.00    +0.000 C 
ATOM      2  O   UNL     1       3.126   3.314  18.952  0.00  0.00    +0.000 OA
ATOM      3  C   UNL     1       3.299   2.524  17.770  0.00  0.00    +0.000 C 
ATOM      4  C   UNL     1       2.272   3.471  17.566  0.00  0.00    +0.000 C 
ATOM      5  C   UNL     1       1.180   2.892  18.982  0.00  0.00    +0.000 C 
ATOM      6  C   UNL     1       1.974   3.490  20.589  0.00  0.00    +0.000 C 
ATOM      7  C   UNL     1       3.690   4.203  20.753  0.00  0.00    +0.000 C 
ATOM      8  C   UNL     1       4.386   4.686  19.571  0.00  0.00    +0.000 C 
ATOM      9  C   UNL     1       5.801   4.769  19.094  0.00  0.00    +0.000 C 
ATOM     10  O   UNL     1       6.756   4.495  19.822  0.00  0.00    +0.000 OA
ATOM     11  C   UNL     1       6.017   5.027  17.615  0.00  0.00    +0.000 A 
ATOM     12  C   UNL     1       7.191   4.661  16.959  0.00  0.00    +0.000 A 
ATOM     13  C   UNL     1       7.373   4.907  15.579  0.00  0.00    +0.000 A 
ATOM     14  C   UNL     1       6.394   5.571  14.839  0.00  0.00    +0.000 A 
ATOM     15  C   UNL     1       5.212   5.917  15.459  0.00  0.00    +0.000 A 
ATOM     16  C   UNL     1       4.999   5.565  16.791  0.00  0.00    +0.000 A 
ATOM     17  O   UNL     1       3.712   5.745  17.175  0.00  0.00    +0.000 OA
ATOM     18  C   UNL     1       3.396   4.743  18.083  0.00  0.00    +0.000 C 
ATOM     19  C   UNL     1       1.474   4.722  20.070  0.00  0.00    +0.000 C 
ATOM     20  O   UNL     1       0.453   5.286  20.446  0.00  0.00    +0.000 OA
ENDROOT
BRANCH  12  21
ATOM     21  O   UNL     1       8.200   3.964  17.568  0.00  0.00    +0.000 OA
ATOM     22  H   UNL     1       8.680   3.455  16.878  0.00  0.00    +0.000 HD
ENDBRANCH  12  21
BRANCH   1  23
ATOM     23  C   UNL     1       2.654   6.553  19.424  0.00  0.00    +0.000 C 
BRANCH  23  26
ATOM     24  C   UNL     1       1.099   9.134  20.316  0.00  0.00    +0.000 C 
ATOM     25  C   UNL     1       1.405   8.731  18.897  0.00  0.00    +0.000 C 
ATOM     26  C   UNL     1       2.007   7.582  18.528  0.00  0.00    +0.000 C 
BRANCH  25  27
ATOM     27  C   UNL     1       0.975   9.714  17.836  0.00  0.00    +0.000 C 
ATOM     28 CL   UNL     1      -0.770  10.041  17.982  0.00  0.00    +0.000 Cl
ENDBRANCH  25  27
ENDBRANCH  23  26
ENDBRANCH   1  23
TORSDOF 4
ENDMDL
MODEL 2
REMARK VINA RESULT:      -8.0      3.196      6.245
REMARK  Name = 
REMARK  5 active torsions:
REMARK  status: ('A' for Active; 'I' for Inactive)
REMARK    1  A    between atoms: C_1  and  C_2
REMARK    2  A    between atoms: C_2  and  C_26
REMARK    3  A    between atoms: C_3  and  C_4
REMARK    4  A    between atoms: C_4  and  C_5
REMARK    5  A    between atoms: C_16  and  O_17
REMARK                            x       y       z     vdW  Elec       q    Type
REMARK                         _______ _______ _______ _____ _____    ______ ____
ROOT
ATOM      1  C   UNL     1       5.453   5.276  16.569  0.00  0.00    +0.000 C 
ATOM      2  O   UNL     1       5.413   5.959  18.367  0.00  0.00    +0.000 OA
ATOM      3  C   UNL     1       4.264   6.681  18.824  0.00  0.00    +0.000 C 
ATOM      4  C   UNL     1       4.298   6.678  17.412  0.00  0.00    +0.000 C 
ATOM      5  C   UNL     1       5.977   7.508  17.249  0.00  0.00    +0.000 C 
ATOM      6  C   UNL     1       7.288   6.220  17.692  0.00  0.00    +0.000 C 
ATOM      7  C   UNL     1       6.959   4.563  18.482  0.00  0.00    +0.000 C 
ATOM      8  C   UNL     1       5.615   4.009  18.463  0.00  0.00    +0.000 C 
ATOM      9  C   UNL     1       4.777   3.143  19.350  0.00  0.00    +0.000 C 
ATOM     10  O   UNL     1       5.238   2.584  20.346  0.00  0.00    +0.000 OA
ATOM     11  C   UNL     1       3.284   3.125  19.084  0.00  0.00    +0.000 A 
ATOM     12  C   UNL     1       2.357   2.784  20.068  0.00  0.00    +0.000 A 
ATOM     13  C   UNL     1       0.969   2.775  19.802  0.00  0.00    +0.000 A 
ATOM     14  C   UNL     1       0.486   3.063  18.526  0.00  0.00    +0.000 A 
ATOM     15  C   UNL     1       1.381   3.431  17.544  0.00  0.00    +0.000 A 
ATOM     16  C   UNL     1       2.736   3.549  17.850  0.00  0.00    +0.000 A 
ATOM     17  O   UNL     1       3.439   4.157  16.863  0.00  0.00    +0.000 OA
ATOM     18  C   UNL     1       4.441   4.910  17.459  0.00  0.00    +0.000 C 
ATOM     19  C   UNL     1       6.866   5.736  16.418  0.00  0.00    +0.000 C 
ATOM     20  O   UNL     1       7.474   5.891  15.365  0.00  0.00    +0.000 OA
ENDROOT
BRANCH  12  21
ATOM     21  O   UNL     1       2.708   2.529  21.366  0.00  0.00    +0.000 OA
ATOM     22  H   UNL     1       1.898   2.589  21.920  0.00  0.00    +0.000 HD
ENDBRANCH  12  21
BRANCH   1  23
ATOM     23  C   UNL     1       5.850   3.762  15.935  0.00  0.00    +0.000 C 
BRANCH  23  26
ATOM     24  C   UNL     1       7.154   4.118  13.098  0.00  0.00    +0.000 C 
ATOM     25  C   UNL     1       5.732   3.702  13.372  0.00  0.00    +0.000 C 
ATOM     26  C   UNL     1       5.167   3.629  14.595  0.00  0.00    +0.000 C 
BRANCH  25  27
ATOM     27  C   UNL     1       4.908   3.365  12.155  0.00  0.00    +0.000 C 
ATOM     28 CL   UNL     1       5.534   1.885  11.386  0.00  0.00    +0.000 Cl
ENDBRANCH  25  27
ENDBRANCH  23  26
ENDBRANCH   1  23
TORSDOF 4
ENDMDL
MODEL 3
REMARK VINA RESULT:      -7.6      1.741      4.945
REMARK  Name = 
REMARK  5 active torsions:
REMARK  status: ('A' for Active; 'I' for Inactive)
REMARK    1  A    between atoms: C_1  and  C_2
REMARK    2  A    between atoms: C_2  and  C_26
REMARK    3  A    between atoms: C_3  and  C_4
REMARK    4  A    between atoms: C_4  and  C_5
REMARK    5  A    between atoms: C_16  and  O_17
REMARK                            x       y       z     vdW  Elec       q    Type
REMARK                         _______ _______ _______ _____ _____    ______ ____
ROOT
ATOM      1  C   UNL     1       5.037   6.424  18.084  0.00  0.00    +0.000 C 
ATOM      2  O   UNL     1       5.695   4.629  17.867  0.00  0.00    +0.000 OA
ATOM      3  C   UNL     1       6.084   3.875  19.021  0.00  0.00    +0.000 C 
ATOM      4  C   UNL     1       6.082   5.253  19.328  0.00  0.00    +0.000 C 
ATOM      5  C   UNL     1       7.332   5.754  18.016  0.00  0.00    +0.000 C 
ATOM      6  C   UNL     1       6.447   5.706  16.347  0.00  0.00    +0.000 C 
ATOM      7  C   UNL     1       4.767   4.961  16.029  0.00  0.00    +0.000 C 
ATOM      8  C   UNL     1       3.872   4.699  17.144  0.00  0.00    +0.000 C 
ATOM      9  C   UNL     1       2.818   3.694  17.486  0.00  0.00    +0.000 C 
ATOM     10  O   UNL     1       2.409   2.867  16.669  0.00  0.00    +0.000 OA
ATOM     11  C   UNL     1       2.397   3.605  18.941  0.00  0.00    +0.000 A 
ATOM     12  C   UNL     1       1.825   2.453  19.480  0.00  0.00    +0.000 A 
ATOM     13  C   UNL     1       1.441   2.388  20.839  0.00  0.00    +0.000 A 
ATOM     14  C   UNL     1       1.581   3.497  21.673  0.00  0.00    +0.000 A 
ATOM     15  C   UNL     1       2.171   4.637  21.169  0.00  0.00    +0.000 A 
ATOM     16  C   UNL     1       2.651   4.649  19.861  0.00  0.00    +0.000 A 
ATOM     17  O   UNL     1       3.420   5.735  19.601  0.00  0.00    +0.000 OA
ATOM     18  C   UNL     1       4.418   5.346  18.719  0.00  0.00    +0.000 C 
ATOM     19  C   UNL     1       5.860   6.873  16.921  0.00  0.00    +0.000 C 
ATOM     20  O   UNL     1       6.167   8.028  16.647  0.00  0.00    +0.000 OA
ENDROOT
BRANCH  12  21
ATOM     21  O   UNL     1       1.681   1.290  18.773  0.00  0.00    +0.000 OA
ATOM     22  H   UNL     1       1.895   1.476  17.832  0.00  0.00    +0.000 HD
ENDBRANCH  12  21
BRANCH   1  23
ATOM     23  C   UNL     1       3.682   7.222  17.468  0.00  0.00    +0.000 C 
BRANCH  23  26
ATOM     24  C   UNL     1       1.005   8.865  17.383  0.00  0.00    +0.000 C 
ATOM     25  C   UNL     1       1.891   8.680  18.587  0.00  0.00    +0.000 C 
ATOM     26  C   UNL     1       3.077   8.036  18.587  0.00  0.00    +0.000 C 
BRANCH  25  27
ATOM     27  C   UNL     1       1.382   9.291  19.868  0.00  0.00    +0.000 C 
ATOM     28 CL   UNL     1       1.147   8.023  21.097  0.00  0.00    +0.000 Cl
ENDBRANCH  25  27
ENDBRANCH  23  26
ENDBRANCH   1  23
TORSDOF 4
ENDMDL
MODEL 4
REMARK VINA RESULT:      -7.5      3.584      5.530
REMARK  Name = 
REMARK  5 active torsions:
REMARK  status: ('A' for Active; 'I' for Inactive)
REMARK    1  A    between atoms: C_1  and  C_2
REMARK    2  A    between atoms: C_2  and  C_26
REMARK    3  A    between atoms: C_3  and  C_4
REMARK    4  A    between atoms: C_4  and  C_5
REMARK    5  A    between atoms: C_16  and  O_17
REMARK                            x       y       z     vdW  Elec       q    Type
REMARK                         _______ _______ _______ _____ _____    ______ ____
ROOT
ATOM      1  C   UNL     1       3.335   3.332  19.919  0.00  0.00    +0.000 C 
ATOM      2  O   UNL     1       2.527   4.648  18.773  0.00  0.00    +0.000 OA
ATOM      3  C   UNL     1       2.710   6.040  19.057  0.00  0.00    +0.000 C 
ATOM      4  C   UNL     1       2.967   5.277  20.217  0.00  0.00    +0.000 C 
ATOM      5  C   UNL     1       1.270   4.473  20.309  0.00  0.00    +0.000 C 
ATOM      6  C   UNL     1       1.198   3.152  18.959  0.00  0.00    +0.000 C 
ATOM      7  C   UNL     1       2.436   2.940  17.580  0.00  0.00    +0.000 C 
ATOM      8  C   UNL     1       3.746   3.562  17.684  0.00  0.00    +0.000 C 
ATOM      9  C   UNL     1       4.752   4.153  16.749  0.00  0.00    +0.000 C 
ATOM     10  O   UNL     1       4.637   4.074  15.525  0.00  0.00    +0.000 OA
ATOM     11  C   UNL     1       5.835   5.022  17.361  0.00  0.00    +0.000 A 
ATOM     12  C   UNL     1       6.513   5.993  16.626  0.00  0.00    +0.000 A 
ATOM     13  C   UNL     1       7.517   6.796  17.213  0.00  0.00    +0.000 A 
ATOM     14  C   UNL     1       7.894   6.605  18.543  0.00  0.00    +0.000 A 
ATOM     15  C   UNL     1       7.218   5.670  19.297  0.00  0.00    +0.000 A 
ATOM     16  C   UNL     1       6.152   4.968  18.739  0.00  0.00    +0.000 A 
ATOM     17  O   UNL     1       5.438   4.284  19.667  0.00  0.00    +0.000 OA
ATOM     18  C   UNL     1       4.107   4.299  19.273  0.00  0.00    +0.000 C 
ATOM     19  C   UNL     1       2.078   2.525  19.892  0.00  0.00    +0.000 C 
ATOM     20  O   UNL     1       1.762   1.640  20.678  0.00  0.00    +0.000 OA
ENDROOT
BRANCH  12  21
ATOM     21  O   UNL     1       6.199   6.303  15.329  0.00  0.00    +0.000 OA
ATOM     22  H   UNL     1       6.421   7.248  15.178  0.00  0.00    +0.000 HD
ENDBRANCH  12  21
BRANCH   1  23
ATOM     23  C   UNL     1       4.257   1.953  19.597  0.00  0.00    +0.000 C 
BRANCH  23  26
ATOM     24  C   UNL     1       5.729  -0.765  20.164  0.00  0.00    +0.000 C 
ATOM     25  C   UNL     1       5.616   0.396  21.117  0.00  0.00    +0.000 C 
ATOM     26  C   UNL     1       4.915   1.525  20.887  0.00  0.00    +0.000 C 
BRANCH  25  27
ATOM     27  C   UNL     1       6.348   0.234  22.427  0.00  0.00    +0.000 C 
ATOM     28 CL   UNL     1       7.229  -1.313  22.444  0.00  0.00    +0.000 Cl
ENDBRANCH  25  27
ENDBRANCH  23  26
ENDBRANCH   1  23
TORSDOF 4
ENDMDL
MODEL 5
REMARK VINA RESULT:      -6.6      4.113      7.257
REMARK  Name = 
REMARK  5 active torsions:
REMARK  status: ('A' for Active; 'I' for Inactive)
REMARK    1  A    between atoms: C_1  and  C_2
REMARK    2  A    between atoms: C_2  and  C_26
REMARK    3  A    between atoms: C_3  and  C_4
REMARK    4  A    between atoms: C_4  and  C_5
REMARK    5  A    between atoms: C_16  and  O_17
REMARK                            x       y       z     vdW  Elec       q    Type
REMARK                         _______ _______ _______ _____ _____    ______ ____
ROOT
ATOM      1  C   UNL     1       0.004  12.028  18.942  0.00  0.00    +0.000 C 
ATOM      2  O   UNL     1      -1.232  10.684  19.546  0.00  0.00    +0.000 OA
ATOM      3  C   UNL     1      -1.621   9.630  18.656  0.00  0.00    +0.000 C 
ATOM      4  C   UNL     1      -1.110  10.718  17.916  0.00  0.00    +0.000 C 
ATOM      5  C   UNL     1      -2.352  11.986  18.537  0.00  0.00    +0.000 C 
ATOM      6  C   UNL     1      -1.864  12.433  20.307  0.00  0.00    +0.000 C 
ATOM      7  C   UNL     1      -0.612  11.527  21.351  0.00  0.00    +0.000 C 
ATOM      8  C   UNL     1       0.342  10.631  20.717  0.00  0.00    +0.000 C 
ATOM      9  C   UNL     1       1.054   9.365  21.072  0.00  0.00    +0.000 C 
ATOM     10  O   UNL     1       1.008   8.881  22.203  0.00  0.00    +0.000 OA
ATOM     11  C   UNL     1       1.690   8.589  19.934  0.00  0.00    +0.000 A 
ATOM     12  C   UNL     1       1.946   7.222  20.017  0.00  0.00    +0.000 A 
ATOM     13  C   UNL     1       2.537   6.515  18.945  0.00  0.00    +0.000 A 
ATOM     14  C   UNL     1       2.927   7.180  17.783  0.00  0.00    +0.000 A 
ATOM     15  C   UNL     1       2.659   8.527  17.666  0.00  0.00    +0.000 A 
ATOM     16  C   UNL     1       1.971   9.188  18.682  0.00  0.00    +0.000 A 
ATOM     17  O   UNL     1       1.564  10.427  18.313  0.00  0.00    +0.000 OA
ATOM     18  C   UNL     1       0.346  10.675  18.929  0.00  0.00    +0.000 C 
ATOM     19  C   UNL     1      -0.831  13.092  19.576  0.00  0.00    +0.000 C 
ATOM     20  O   UNL     1      -0.789  14.293  19.335  0.00  0.00    +0.000 OA
ENDROOT
BRANCH  12  21
ATOM     21  O   UNL     1       1.565   6.455  21.086  0.00  0.00    +0.000 OA
ATOM     22  H   UNL     1       2.277   6.499  21.763  0.00  0.00    +0.000 HD
ENDBRANCH  12  21
BRANCH   1  23
ATOM     23  C   UNL     1       1.403  12.680  19.628  0.00  0.00    +0.000 C 
BRANCH  23  26
ATOM     24  C   UNL     1       2.541  15.597  19.889  0.00  0.00    +0.000 C 
ATOM     25  C   UNL     1       2.673  14.700  18.685  0.00  0.00    +0.000 C 
ATOM     26  C   UNL     1       2.112  13.480  18.562  0.00  0.00    +0.000 C 
BRANCH  25  27
ATOM     27  C   UNL     1       3.492  15.257  17.547  0.00  0.00    +0.000 C 
ATOM     28 CL   UNL     1       2.911  16.885  17.118  0.00  0.00    +0.000 Cl
ENDBRANCH  25  27
ENDBRANCH  23  26
ENDBRANCH   1  23
TORSDOF 4
ENDMDL
MODEL 6
REMARK VINA RESULT:      -6.5      1.168      1.406
REMARK  Name = 
REMARK  5 active torsions:
REMARK  status: ('A' for Active; 'I' for Inactive)
REMARK    1  A    between atoms: C_1  and  C_2
REMARK    2  A    between atoms: C_2  and  C_26
REMARK    3  A    between atoms: C_3  and  C_4
REMARK    4  A    between atoms: C_4  and  C_5
REMARK    5  A    between atoms: C_16  and  O_17
REMARK                            x       y       z     vdW  Elec       q    Type
REMARK                         _______ _______ _______ _____ _____    ______ ____
ROOT
ATOM      1  C   UNL     1       2.141   4.889  18.921  0.00  0.00    +0.000 C 
ATOM      2  O   UNL     1       3.079   3.213  19.037  0.00  0.00    +0.000 OA
ATOM      3  C   UNL     1       3.264   2.424  17.856  0.00  0.00    +0.000 C 
ATOM      4  C   UNL     1       2.200   3.332  17.663  0.00  0.00    +0.000 C 
ATOM      5  C   UNL     1       1.150   2.720  19.097  0.00  0.00    +0.000 C 
ATOM      6  C   UNL     1       1.945   3.355  20.690  0.00  0.00    +0.000 C 
ATOM      7  C   UNL     1       3.636   4.131  20.826  0.00  0.00    +0.000 C 
ATOM      8  C   UNL     1       4.297   4.633  19.632  0.00  0.00    +0.000 C 
ATOM      9  C   UNL     1       5.701   4.766  19.135  0.00  0.00    +0.000 C 
ATOM     10  O   UNL     1       6.675   4.530  19.851  0.00  0.00    +0.000 OA
ATOM     11  C   UNL     1       5.885   5.025  17.652  0.00  0.00    +0.000 A 
ATOM     12  C   UNL     1       7.063   4.699  16.981  0.00  0.00    +0.000 A 
ATOM     13  C   UNL     1       7.216   4.945  15.598  0.00  0.00    +0.000 A 
ATOM     14  C   UNL     1       6.203   5.569  14.869  0.00  0.00    +0.000 A 
ATOM     15  C   UNL     1       5.019   5.874  15.505  0.00  0.00    +0.000 A 
ATOM     16  C   UNL     1       4.837   5.521  16.840  0.00  0.00    +0.000 A 
ATOM     17  O   UNL     1       3.550   5.655  17.242  0.00  0.00    +0.000 OA
ATOM     18  C   UNL     1       3.284   4.647  18.158  0.00  0.00    +0.000 C 
ATOM     19  C   UNL     1       1.392   4.564  20.173  0.00  0.00    +0.000 C 
ATOM     20  O   UNL     1       0.357   5.092  20.561  0.00  0.00    +0.000 OA
ENDROOT
BRANCH  12  21
ATOM     21  O   UNL     1       8.105   4.043  17.579  0.00  0.00    +0.000 OA
ATOM     22  H   UNL     1       8.916   4.210  17.049  0.00  0.00    +0.000 HD
ENDBRANCH  12  21
BRANCH   1  23
ATOM     23  C   UNL     1       2.495   6.435  19.503  0.00  0.00    +0.000 C 
BRANCH  23  26
ATOM     24  C   UNL     1       1.512   9.333  20.215  0.00  0.00    +0.000 C 
ATOM     25  C   UNL     1       0.935   8.047  20.748  0.00  0.00    +0.000 C 
ATOM     26  C   UNL     1       1.418   6.814  20.492  0.00  0.00    +0.000 C 
BRANCH  25  27
ATOM     27  C   UNL     1      -0.268   8.198  21.646  0.00  0.00    +0.000 C 
ATOM     28 CL   UNL     1       0.059   9.419  22.901  0.00  0.00    +0.000 Cl
ENDBRANCH  25  27
ENDBRANCH  23  26
ENDBRANCH   1  23
TORSDOF 4
ENDMDL
MODEL 7
REMARK VINA RESULT:      -6.4      5.748      9.615
REMARK  Name = 
REMARK  5 active torsions:
REMARK  status: ('A' for Active; 'I' for Inactive)
REMARK    1  A    between atoms: C_1  and  C_2
REMARK    2  A    between atoms: C_2  and  C_26
REMARK    3  A    between atoms: C_3  and  C_4
REMARK    4  A    between atoms: C_4  and  C_5
REMARK    5  A    between atoms: C_16  and  O_17
REMARK                            x       y       z     vdW  Elec       q    Type
REMARK                         _______ _______ _______ _____ _____    ______ ____
ROOT
ATOM      1  C   UNL     1       1.061  11.186  19.467  0.00  0.00    +0.000 C 
ATOM      2  O   UNL     1      -0.267   9.865  19.905  0.00  0.00    +0.000 OA
ATOM      3  C   UNL     1      -0.408   9.427  21.262  0.00  0.00    +0.000 C 
ATOM      4  C   UNL     1       0.864  10.010  21.076  0.00  0.00    +0.000 C 
ATOM      5  C   UNL     1       1.428   8.837  19.720  0.00  0.00    +0.000 C 
ATOM      6  C   UNL     1       0.520   9.326  18.137  0.00  0.00    +0.000 C 
ATOM      7  C   UNL     1      -0.918  10.510  18.031  0.00  0.00    +0.000 C 
ATOM      8  C   UNL     1      -1.187  11.418  19.134  0.00  0.00    +0.000 C 
ATOM      9  C   UNL     1      -2.389  12.050  19.760  0.00  0.00    +0.000 C 
ATOM     10  O   UNL     1      -3.512  11.961  19.263  0.00  0.00    +0.000 OA
ATOM     11  C   UNL     1      -2.209  12.655  21.140  0.00  0.00    +0.000 A 
ATOM     12  C   UNL     1      -3.276  12.829  22.021  0.00  0.00    +0.000 A 
ATOM     13  C   UNL     1      -3.089  13.392  23.304  0.00  0.00    +0.000 A 
ATOM     14  C   UNL     1      -1.831  13.835  23.710  0.00  0.00    +0.000 A 
ATOM     15  C   UNL     1      -0.756  13.647  22.868  0.00  0.00    +0.000 A 
ATOM     16  C   UNL     1      -0.933  12.986  21.654  0.00  0.00    +0.000 A 
ATOM     17  O   UNL     1       0.243  12.658  21.066  0.00  0.00    +0.000 OA
ATOM     18  C   UNL     1       0.066  11.447  20.410  0.00  0.00    +0.000 C 
ATOM     19  C   UNL     1       1.446  10.406  18.252  0.00  0.00    +0.000 C 
ATOM     20  O   UNL     1       2.483  10.521  17.610  0.00  0.00    +0.000 OA
ENDROOT
BRANCH  12  21
ATOM     21  O   UNL     1      -4.545  12.391  21.752  0.00  0.00    +0.000 OA
ATOM     22  H   UNL     1      -4.491  11.719  21.035  0.00  0.00    +0.000 HD
ENDBRANCH  12  21
BRANCH   1  23
ATOM     23  C   UNL     1       0.995  12.611  18.563  0.00  0.00    +0.000 C 
BRANCH  23  26
ATOM     24  C   UNL     1       1.523  15.524  19.619  0.00  0.00    +0.000 C 
ATOM     25  C   UNL     1       2.576  14.523  19.219  0.00  0.00    +0.000 C 
ATOM     26  C   UNL     1       2.330  13.304  18.695  0.00  0.00    +0.000 C 
BRANCH  25  27
ATOM     27  C   UNL     1       4.003  14.966  19.423  0.00  0.00    +0.000 C 
ATOM     28 CL   UNL     1       4.972  14.582  17.978  0.00  0.00    +0.000 Cl
ENDBRANCH  25  27
ENDBRANCH  23  26
ENDBRANCH   1  23
TORSDOF 4
ENDMDL
MODEL 8
REMARK VINA RESULT:      -6.3      6.085      9.615
REMARK  Name = 
REMARK  5 active torsions:
REMARK  status: ('A' for Active; 'I' for Inactive)
REMARK    1  A    between atoms: C_1  and  C_2
REMARK    2  A    between atoms: C_2  and  C_26
REMARK    3  A    between atoms: C_3  and  C_4
REMARK    4  A    between atoms: C_4  and  C_5
REMARK    5  A    between atoms: C_16  and  O_17
REMARK                            x       y       z     vdW  Elec       q    Type
REMARK                         _______ _______ _______ _____ _____    ______ ____
ROOT
ATOM      1  C   UNL     1      -0.164  11.270  18.706  0.00  0.00    +0.000 C 
ATOM      2  O   UNL     1       1.271  11.701  19.913  0.00  0.00    +0.000 OA
ATOM      3  C   UNL     1       1.830  13.020  19.904  0.00  0.00    +0.000 C 
ATOM      4  C   UNL     1       1.153  12.778  18.689  0.00  0.00    +0.000 C 
ATOM      5  C   UNL     1       2.170  11.279  18.187  0.00  0.00    +0.000 C 
ATOM      6  C   UNL     1       1.607   9.830  19.261  0.00  0.00    +0.000 C 
ATOM      7  C   UNL     1       0.513   9.955  20.767  0.00  0.00    +0.000 C 
ATOM      8  C   UNL     1      -0.280  11.154  20.984  0.00  0.00    +0.000 C 
ATOM      9  C   UNL     1      -0.779  11.936  22.158  0.00  0.00    +0.000 C 
ATOM     10  O   UNL     1      -0.661  11.530  23.315  0.00  0.00    +0.000 OA
ATOM     11  C   UNL     1      -1.275  13.344  21.887  0.00  0.00    +0.000 A 
ATOM     12  C   UNL     1      -1.306  14.324  22.877  0.00  0.00    +0.000 A 
ATOM     13  C   UNL     1      -1.769  15.632  22.606  0.00  0.00    +0.000 A 
ATOM     14  C   UNL     1      -2.256  15.967  21.342  0.00  0.00    +0.000 A 
ATOM     15  C   UNL     1      -2.209  15.022  20.340  0.00  0.00    +0.000 A 
ATOM     16  C   UNL     1      -1.643  13.774  20.590  0.00  0.00    +0.000 A 
ATOM     17  O   UNL     1      -1.440  13.060  19.455  0.00  0.00    +0.000 OA
ATOM     18  C   UNL     1      -0.281  12.315  19.624  0.00  0.00    +0.000 C 
ATOM     19  C   UNL     1       0.484   9.962  18.391  0.00  0.00    +0.000 C 
ATOM     20  O   UNL     1       0.250   9.246  17.424  0.00  0.00    +0.000 OA
ENDROOT
BRANCH  12  21
ATOM     21  O   UNL     1      -0.812  14.127  24.139  0.00  0.00    +0.000 OA
ATOM     22  H   UNL     1      -1.110  14.874  24.704  0.00  0.00    +0.000 HD
ENDBRANCH  12  21
BRANCH   1  23
ATOM     23  C   UNL     1      -1.653  10.507  18.934  0.00  0.00    +0.000 C 
BRANCH  23  26
ATOM     24  C   UNL     1      -4.496  11.692  18.309  0.00  0.00    +0.000 C 
ATOM     25  C   UNL     1      -3.558  11.067  17.309  0.00  0.00    +0.000 C 
ATOM     26  C   UNL     1      -2.374  10.495  17.607  0.00  0.00    +0.000 C 
BRANCH  25  27
ATOM     27  C   UNL     1      -4.027  11.094  15.875  0.00  0.00    +0.000 C 
ATOM     28 CL   UNL     1      -2.859  10.239  14.837  0.00  0.00    +0.000 Cl
ENDBRANCH  25  27
ENDBRANCH  23  26
ENDBRANCH   1  23
TORSDOF 4
ENDMDL
MODEL 9
REMARK VINA RESULT:      -6.2      7.459     10.703
REMARK  Name = 
REMARK  5 active torsions:
REMARK  status: ('A' for Active; 'I' for Inactive)
REMARK    1  A    between atoms: C_1  and  C_2
REMARK    2  A    between atoms: C_2  and  C_26
REMARK    3  A    between atoms: C_3  and  C_4
REMARK    4  A    between atoms: C_4  and  C_5
REMARK    5  A    between atoms: C_16  and  O_17
REMARK                            x       y       z     vdW  Elec       q    Type
REMARK                         _______ _______ _______ _____ _____    ______ ____
ROOT
ATOM      1  C   UNL     1      -0.564  12.236  19.299  0.00  0.00    +0.000 C 
ATOM      2  O   UNL     1      -0.256  13.452  20.757  0.00  0.00    +0.000 OA
ATOM      3  C   UNL     1      -0.817  14.769  20.710  0.00  0.00    +0.000 C 
ATOM      4  C   UNL     1      -0.760  14.226  19.408  0.00  0.00    +0.000 C 
ATOM      5  C   UNL     1       1.100  13.950  19.386  0.00  0.00    +0.000 C 
ATOM      6  C   UNL     1       1.460  12.446  20.472  0.00  0.00    +0.000 C 
ATOM      7  C   UNL     1       0.246  11.621  21.623  0.00  0.00    +0.000 C 
ATOM      8  C   UNL     1      -1.178  11.872  21.469  0.00  0.00    +0.000 C 
ATOM      9  C   UNL     1      -2.375  11.957  22.361  0.00  0.00    +0.000 C 
ATOM     10  O   UNL     1      -2.327  11.658  23.555  0.00  0.00    +0.000 OA
ATOM     11  C   UNL     1      -3.619  12.608  21.785  0.00  0.00    +0.000 A 
ATOM     12  C   UNL     1      -4.599  13.182  22.593  0.00  0.00    +0.000 A 
ATOM     13  C   UNL     1      -5.751  13.786  22.038  0.00  0.00    +0.000 A 
ATOM     14  C   UNL     1      -5.962  13.783  20.660  0.00  0.00    +0.000 A 
ATOM     15  C   UNL     1      -4.993  13.247  19.840  0.00  0.00    +0.000 A 
ATOM     16  C   UNL     1      -3.810  12.759  20.391  0.00  0.00    +0.000 A 
ATOM     17  O   UNL     1      -2.865  12.506  19.452  0.00  0.00    +0.000 OA
ATOM     18  C   UNL     1      -1.627  12.799  20.007  0.00  0.00    +0.000 C 
ATOM     19  C   UNL     1       0.869  11.814  19.338  0.00  0.00    +0.000 C 
ATOM     20  O   UNL     1       1.483  11.234  18.450  0.00  0.00    +0.000 OA
ENDROOT
BRANCH  12  21
ATOM     21  O   UNL     1      -4.480  13.285  23.953  0.00  0.00    +0.000 OA
ATOM     22  H   UNL     1      -4.843  12.466  24.355  0.00  0.00    +0.000 HD
ENDBRANCH  12  21
BRANCH   1  23
ATOM     23  C   UNL     1      -1.064  10.623  19.247  0.00  0.00    +0.000 C 
BRANCH  23  26
ATOM     24  C   UNL     1      -3.737   9.691  17.883  0.00  0.00    +0.000 C 
ATOM     25  C   UNL     1      -2.422   9.922  17.185  0.00  0.00    +0.000 C 
ATOM     26  C   UNL     1      -1.265  10.248  17.798  0.00  0.00    +0.000 C 
BRANCH  25  27
ATOM     27  C   UNL     1      -2.442   9.751  15.687  0.00  0.00    +0.000 C 
ATOM     28 CL   UNL     1      -3.904  10.506  15.007  0.00  0.00    +0.000 Cl
ENDBRANCH  25  27
ENDBRANCH  23  26
ENDBRANCH   1  23
TORSDOF 4
ENDMDL
