MODEL 1
REMARK VINA RESULT:      -9.3      0.000      0.000
REMARK  Name = 
REMARK  3 active torsions:
REMARK  status: ('A' for Active; 'I' for Inactive)
REMARK    1  A    between atoms: N_1  and  S_2
REMARK    2  A    between atoms: S_2  and  C_5
REMARK    3  A    between atoms: C_9  and  N_10
REMARK                            x       y       z     vdW  Elec       q    Type
REMARK                         _______ _______ _______ _____ _____    ______ ____
ROOT
ATOM      1  N   UNL     1       2.763   6.320  19.612  0.00  0.00    +0.000 NA
ATOM      2  C   UNL     1       2.225   7.469  19.405  0.00  0.00    +0.000 C 
ATOM      3  N   UNL     1       2.225   8.211  18.277  0.00  0.00    +0.000 N 
ATOM      4  C   UNL     1       1.618   9.424  18.360  0.00  0.00    +0.000 C 
ATOM      5  O   UNL     1       1.854  10.352  17.596  0.00  0.00    +0.000 OA
ATOM      6  C   UNL     1       0.786   9.538  19.618  0.00  0.00    +0.000 C 
ATOM      7  C   UNL     1      -0.184  10.468  19.699  0.00  0.00    +0.000 C 
ATOM      8  C   UNL     1      -0.761  10.689  18.317  0.00  0.00    +0.000 C 
ATOM      9  O   UNL     1      -0.841   9.854  17.430  0.00  0.00    +0.000 OA
ATOM     10  N   UNL     1      -1.491  11.840  18.394  0.00  0.00    +0.000 N 
ATOM     11  C   UNL     1      -1.781  12.113  19.720  0.00  0.00    +0.000 A 
ATOM     12  C   UNL     1      -2.754  13.025  20.089  0.00  0.00    +0.000 A 
ATOM     13  C   UNL     1      -3.060  13.096  21.438  0.00  0.00    +0.000 A 
ATOM     14  C   UNL     1      -2.332  12.316  22.355  0.00  0.00    +0.000 A 
ATOM     15 CL   UNL     1      -2.748  12.464  24.026  0.00  0.00    +0.000 Cl
ATOM     16  C   UNL     1      -1.312  11.416  21.951  0.00  0.00    +0.000 A 
ATOM     17  C   UNL     1      -1.071  11.261  20.597  0.00  0.00    +0.000 A 
ATOM     18  S   UNL     1       1.373   8.352  20.713  0.00  0.00    +0.000 S 
ATOM     19  H   UNL     1       2.789   8.003  17.470  0.00  0.00    +0.000 HD
ATOM     20  H   UNL     1      -1.258  12.587  17.754  0.00  0.00    +0.000 HD
ENDROOT
BRANCH   1  25
ATOM     21  C   UNL     1       5.474   4.790  17.431  0.00  0.00    +0.000 A 
ATOM     22  C   UNL     1       4.742   3.746  16.858  0.00  0.00    +0.000 A 
ATOM     23  C   UNL     1       3.410   3.595  17.222  0.00  0.00    +0.000 A 
ATOM     24  C   UNL     1       2.843   4.465  18.168  0.00  0.00    +0.000 A 
ATOM     25  C   UNL     1       3.552   5.523  18.754  0.00  0.00    +0.000 A 
ATOM     26  C   UNL     1       4.896   5.682  18.376  0.00  0.00    +0.000 A 
BRANCH  21  27
ATOM     27  S   UNL     1       7.204   4.906  17.021  0.00  0.00    +0.000 S 
ATOM     28  O   UNL     1       7.396   4.417  15.673  0.00  0.00    +0.000 OA
ATOM     29  O   UNL     1       7.984   4.428  18.140  0.00  0.00    +0.000 OA
BRANCH  27  30
ATOM     30  N   UNL     1       7.467   6.565  16.940  0.00  0.00    +0.000 NA
ATOM     31  H   UNL     1       7.561   6.862  15.967  0.00  0.00    +0.000 HD
ATOM     32  H   UNL     1       8.278   6.809  17.515  0.00  0.00    +0.000 HD
ENDBRANCH  27  30
ENDBRANCH  21  27
ENDBRANCH   1  25
TORSDOF 3
ENDMDL
MODEL 2
REMARK VINA RESULT:      -8.7      0.886      1.078
REMARK  Name = 
REMARK  3 active torsions:
REMARK  status: ('A' for Active; 'I' for Inactive)
REMARK    1  A    between atoms: N_1  and  S_2
REMARK    2  A    between atoms: S_2  and  C_5
REMARK    3  A    between atoms: C_9  and  N_10
REMARK                            x       y       z     vdW  Elec       q    Type
REMARK                         _______ _______ _______ _____ _____    ______ ____
ROOT
ATOM      1  N   UNL     1       2.448   6.615  19.541  0.00  0.00    +0.000 NA
ATOM      2  C   UNL     1       1.940   7.790  19.411  0.00  0.00    +0.000 C 
ATOM      3  N   UNL     1       1.997   8.623  18.350  0.00  0.00    +0.000 N 
ATOM      4  C   UNL     1       1.411   9.837  18.512  0.00  0.00    +0.000 C 
ATOM      5  O   UNL     1       1.694  10.820  17.837  0.00  0.00    +0.000 OA
ATOM      6  C   UNL     1       0.534   9.866  19.745  0.00  0.00    +0.000 C 
ATOM      7  C   UNL     1      -0.420  10.807  19.868  0.00  0.00    +0.000 C 
ATOM      8  C   UNL     1      -0.939  11.155  18.489  0.00  0.00    +0.000 C 
ATOM      9  O   UNL     1      -1.001  10.398  17.533  0.00  0.00    +0.000 OA
ATOM     10  N   UNL     1      -1.650  12.311  18.636  0.00  0.00    +0.000 N 
ATOM     11  C   UNL     1      -1.984  12.481  19.968  0.00  0.00    +0.000 A 
ATOM     12  C   UNL     1      -2.954  13.380  20.377  0.00  0.00    +0.000 A 
ATOM     13  C   UNL     1      -3.309  13.346  21.714  0.00  0.00    +0.000 A 
ATOM     14  C   UNL     1      -2.631  12.476  22.589  0.00  0.00    +0.000 A 
ATOM     15 CL   UNL     1      -3.108  12.495  24.250  0.00  0.00    +0.000 Cl
ATOM     16  C   UNL     1      -1.614  11.590  22.149  0.00  0.00    +0.000 A 
ATOM     17  C   UNL     1      -1.325  11.543  20.795  0.00  0.00    +0.000 A 
ATOM     18  S   UNL     1       1.056   8.581  20.756  0.00  0.00    +0.000 S 
ATOM     19  H   UNL     1       2.587   8.469  17.550  0.00  0.00    +0.000 HD
ATOM     20  H   UNL     1      -1.378  13.103  18.069  0.00  0.00    +0.000 HD
ENDROOT
BRANCH   1  25
ATOM     21  C   UNL     1       5.078   5.348  17.107  0.00  0.00    +0.000 A 
ATOM     22  C   UNL     1       4.500   4.121  16.768  0.00  0.00    +0.000 A 
ATOM     23  C   UNL     1       3.293   3.772  17.359  0.00  0.00    +0.000 A 
ATOM     24  C   UNL     1       2.699   4.637  18.294  0.00  0.00    +0.000 A 
ATOM     25  C   UNL     1       3.253   5.875  18.648  0.00  0.00    +0.000 A 
ATOM     26  C   UNL     1       4.469   6.232  18.041  0.00  0.00    +0.000 A 
BRANCH  21  27
ATOM     27  S   UNL     1       6.672   5.730  16.409  0.00  0.00    +0.000 S 
ATOM     28  O   UNL     1       7.148   6.968  16.986  0.00  0.00    +0.000 OA
ATOM     29  O   UNL     1       6.626   5.503  14.983  0.00  0.00    +0.000 OA
BRANCH  27  30
ATOM     30  N   UNL     1       7.663   4.528  17.044  0.00  0.00    +0.000 NA
ATOM     31  H   UNL     1       7.645   3.700  16.444  0.00  0.00    +0.000 HD
ATOM     32  H   UNL     1       7.383   4.330  18.008  0.00  0.00    +0.000 HD
ENDBRANCH  27  30
ENDBRANCH  21  27
ENDBRANCH   1  25
TORSDOF 3
ENDMDL
MODEL 3
REMARK VINA RESULT:      -8.4      1.234      1.472
REMARK  Name = 
REMARK  3 active torsions:
REMARK  status: ('A' for Active; 'I' for Inactive)
REMARK    1  A    between atoms: N_1  and  S_2
REMARK    2  A    between atoms: S_2  and  C_5
REMARK    3  A    between atoms: C_9  and  N_10
REMARK                            x       y       z     vdW  Elec       q    Type
REMARK                         _______ _______ _______ _____ _____    ______ ____
ROOT
ATOM      1  N   UNL     1       1.929   6.839  20.221  0.00  0.00    +0.000 NA
ATOM      2  C   UNL     1       1.474   8.034  20.076  0.00  0.00    +0.000 C 
ATOM      3  N   UNL     1       1.648   8.884  19.042  0.00  0.00    +0.000 N 
ATOM      4  C   UNL     1       1.093  10.116  19.182  0.00  0.00    +0.000 C 
ATOM      5  O   UNL     1       1.465  11.100  18.554  0.00  0.00    +0.000 OA
ATOM      6  C   UNL     1       0.120  10.153  20.339  0.00  0.00    +0.000 C 
ATOM      7  C   UNL     1      -0.808  11.126  20.405  0.00  0.00    +0.000 C 
ATOM      8  C   UNL     1      -1.200  11.518  18.996  0.00  0.00    +0.000 C 
ATOM      9  O   UNL     1      -1.210  10.783  18.022  0.00  0.00    +0.000 OA
ATOM     10  N   UNL     1      -1.879  12.697  19.110  0.00  0.00    +0.000 N 
ATOM     11  C   UNL     1      -2.316  12.853  20.414  0.00  0.00    +0.000 A 
ATOM     12  C   UNL     1      -3.284  13.779  20.761  0.00  0.00    +0.000 A 
ATOM     13  C   UNL     1      -3.749  13.733  22.065  0.00  0.00    +0.000 A 
ATOM     14  C   UNL     1      -3.176  12.823  22.973  0.00  0.00    +0.000 A 
ATOM     15 CL   UNL     1      -3.787  12.828  24.589  0.00  0.00    +0.000 Cl
ATOM     16  C   UNL     1      -2.158  11.909  22.597  0.00  0.00    +0.000 A 
ATOM     17  C   UNL     1      -1.760  11.876  21.271  0.00  0.00    +0.000 A 
ATOM     18  S   UNL     1       0.511   8.831  21.362  0.00  0.00    +0.000 S 
ATOM     19  H   UNL     1       2.296   8.724  18.289  0.00  0.00    +0.000 HD
ATOM     20  H   UNL     1      -1.535  13.489  18.585  0.00  0.00    +0.000 HD
ENDROOT
BRANCH   1  25
ATOM     21  C   UNL     1       4.816   5.366  18.237  0.00  0.00    +0.000 A 
ATOM     22  C   UNL     1       4.108   4.449  17.453  0.00  0.00    +0.000 A 
ATOM     23  C   UNL     1       2.733   4.357  17.623  0.00  0.00    +0.000 A 
ATOM     24  C   UNL     1       2.094   5.157  18.587  0.00  0.00    +0.000 A 
ATOM     25  C   UNL     1       2.778   6.087  19.382  0.00  0.00    +0.000 A 
ATOM     26  C   UNL     1       4.168   6.187  19.201  0.00  0.00    +0.000 A 
BRANCH  21  27
ATOM     27  S   UNL     1       6.589   5.398  18.068  0.00  0.00    +0.000 S 
ATOM     28  O   UNL     1       7.183   5.000  19.326  0.00  0.00    +0.000 OA
ATOM     29  O   UNL     1       6.973   6.606  17.374  0.00  0.00    +0.000 OA
BRANCH  27  30
ATOM     30  N   UNL     1       6.893   4.130  17.006  0.00  0.00    +0.000 NA
ATOM     31  H   UNL     1       7.393   3.377  17.485  0.00  0.00    +0.000 HD
ATOM     32  H   UNL     1       7.394   4.485  16.187  0.00  0.00    +0.000 HD
ENDBRANCH  27  30
ENDBRANCH  21  27
ENDBRANCH   1  25
TORSDOF 3
ENDMDL
MODEL 4
REMARK VINA RESULT:      -8.0      2.331      2.822
REMARK  Name = 
REMARK  3 active torsions:
REMARK  status: ('A' for Active; 'I' for Inactive)
REMARK    1  A    between atoms: N_1  and  S_2
REMARK    2  A    between atoms: S_2  and  C_5
REMARK    3  A    between atoms: C_9  and  N_10
REMARK                            x       y       z     vdW  Elec       q    Type
REMARK                         _______ _______ _______ _____ _____    ______ ____
ROOT
ATOM      1  N   UNL     1       2.771   8.284  17.944  0.00  0.00    +0.000 NA
ATOM      2  C   UNL     1       1.896   8.627  18.823  0.00  0.00    +0.000 C 
ATOM      3  N   UNL     1       1.425   7.916  19.869  0.00  0.00    +0.000 N 
ATOM      4  C   UNL     1       0.454   8.513  20.608  0.00  0.00    +0.000 C 
ATOM      5  O   UNL     1      -0.332   7.896  21.317  0.00  0.00    +0.000 OA
ATOM      6  C   UNL     1       0.344   9.987  20.285  0.00  0.00    +0.000 C 
ATOM      7  C   UNL     1      -0.255  10.821  21.155  0.00  0.00    +0.000 C 
ATOM      8  C   UNL     1      -0.018  10.310  22.560  0.00  0.00    +0.000 C 
ATOM      9  O   UNL     1       0.962   9.690  22.943  0.00  0.00    +0.000 OA
ATOM     10  N   UNL     1      -0.894  10.987  23.359  0.00  0.00    +0.000 N 
ATOM     11  C   UNL     1      -1.326  12.128  22.706  0.00  0.00    +0.000 A 
ATOM     12  C   UNL     1      -1.964  13.161  23.369  0.00  0.00    +0.000 A 
ATOM     13  C   UNL     1      -2.207  14.313  22.640  0.00  0.00    +0.000 A 
ATOM     14  C   UNL     1      -1.874  14.350  21.272  0.00  0.00    +0.000 A 
ATOM     15 CL   UNL     1      -2.220  15.808  20.413  0.00  0.00    +0.000 Cl
ATOM     16  C   UNL     1      -1.254  13.260  20.608  0.00  0.00    +0.000 A 
ATOM     17  C   UNL     1      -0.912  12.144  21.354  0.00  0.00    +0.000 A 
ATOM     18  S   UNL     1       1.063  10.213  18.743  0.00  0.00    +0.000 S 
ATOM     19  H   UNL     1       1.613   6.938  20.010  0.00  0.00    +0.000 HD
ATOM     20  H   UNL     1      -1.534  10.442  23.920  0.00  0.00    +0.000 HD
ENDROOT
BRANCH   1  25
ATOM     21  C   UNL     1       5.218   5.486  17.153  0.00  0.00    +0.000 A 
ATOM     22  C   UNL     1       4.410   4.385  17.457  0.00  0.00    +0.000 A 
ATOM     23  C   UNL     1       3.119   4.618  17.911  0.00  0.00    +0.000 A 
ATOM     24  C   UNL     1       2.667   5.939  18.080  0.00  0.00    +0.000 A 
ATOM     25  C   UNL     1       3.452   7.059  17.779  0.00  0.00    +0.000 A 
ATOM     26  C   UNL     1       4.755   6.822  17.308  0.00  0.00    +0.000 A 
BRANCH  21  27
ATOM     27  S   UNL     1       6.900   5.163  16.664  0.00  0.00    +0.000 S 
ATOM     28  O   UNL     1       7.611   6.421  16.584  0.00  0.00    +0.000 OA
ATOM     29  O   UNL     1       6.899   4.201  15.586  0.00  0.00    +0.000 OA
BRANCH  27  30
ATOM     30  N   UNL     1       7.540   4.369  18.001  0.00  0.00    +0.000 NA
ATOM     31  H   UNL     1       8.516   4.639  18.141  0.00  0.00    +0.000 HD
ATOM     32  H   UNL     1       7.416   3.359  17.888  0.00  0.00    +0.000 HD
ENDBRANCH  27  30
ENDBRANCH  21  27
ENDBRANCH   1  25
TORSDOF 3
ENDMDL
MODEL 5
REMARK VINA RESULT:      -8.0      1.904      2.211
REMARK  Name = 
REMARK  3 active torsions:
REMARK  status: ('A' for Active; 'I' for Inactive)
REMARK    1  A    between atoms: N_1  and  S_2
REMARK    2  A    between atoms: S_2  and  C_5
REMARK    3  A    between atoms: C_9  and  N_10
REMARK                            x       y       z     vdW  Elec       q    Type
REMARK                         _______ _______ _______ _____ _____    ______ ____
ROOT
ATOM      1  N   UNL     1       1.622   7.081  20.990  0.00  0.00    +0.000 NA
ATOM      2  C   UNL     1       1.328   8.285  20.647  0.00  0.00    +0.000 C 
ATOM      3  N   UNL     1       1.371   8.850  19.422  0.00  0.00    +0.000 N 
ATOM      4  C   UNL     1       1.054  10.169  19.361  0.00  0.00    +0.000 C 
ATOM      5  O   UNL     1       1.404  10.908  18.448  0.00  0.00    +0.000 OA
ATOM      6  C   UNL     1       0.404  10.639  20.644  0.00  0.00    +0.000 C 
ATOM      7  C   UNL     1      -0.327  11.769  20.650  0.00  0.00    +0.000 C 
ATOM      8  C   UNL     1      -0.984  11.930  19.296  0.00  0.00    +0.000 C 
ATOM      9  O   UNL     1      -1.336  11.025  18.556  0.00  0.00    +0.000 OA
ATOM     10  N   UNL     1      -1.435  13.218  19.248  0.00  0.00    +0.000 N 
ATOM     11  C   UNL     1      -1.518  13.726  20.533  0.00  0.00    +0.000 A 
ATOM     12  C   UNL     1      -2.226  14.878  20.827  0.00  0.00    +0.000 A 
ATOM     13  C   UNL     1      -2.366  15.197  22.167  0.00  0.00    +0.000 A 
ATOM     14  C   UNL     1      -1.732  14.400  23.139  0.00  0.00    +0.000 A 
ATOM     15 CL   UNL     1      -1.928  14.862  24.792  0.00  0.00    +0.000 Cl
ATOM     16  C   UNL     1      -0.980  13.244  22.805  0.00  0.00    +0.000 A 
ATOM     17  C   UNL     1      -0.922  12.858  21.477  0.00  0.00    +0.000 A 
ATOM     18  S   UNL     1       0.830   9.507  21.862  0.00  0.00    +0.000 S 
ATOM     19  H   UNL     1       1.788   8.411  18.619  0.00  0.00    +0.000 HD
ATOM     20  H   UNL     1      -1.114  13.799  18.485  0.00  0.00    +0.000 HD
ENDROOT
BRANCH   1  25
ATOM     21  C   UNL     1       3.513   4.818  18.592  0.00  0.00    +0.000 A 
ATOM     22  C   UNL     1       2.721   3.670  18.692  0.00  0.00    +0.000 A 
ATOM     23  C   UNL     1       1.623   3.696  19.540  0.00  0.00    +0.000 A 
ATOM     24  C   UNL     1       1.351   4.851  20.294  0.00  0.00    +0.000 A 
ATOM     25  C   UNL     1       2.124   6.017  20.210  0.00  0.00    +0.000 A 
ATOM     26  C   UNL     1       3.229   5.993  19.341  0.00  0.00    +0.000 A 
BRANCH  21  27
ATOM     27  S   UNL     1       4.969   4.728  17.570  0.00  0.00    +0.000 S 
ATOM     28  O   UNL     1       5.456   6.070  17.335  0.00  0.00    +0.000 OA
ATOM     29  O   UNL     1       4.733   3.788  16.498  0.00  0.00    +0.000 OA
BRANCH  27  30
ATOM     30  N   UNL     1       6.103   4.009  18.583  0.00  0.00    +0.000 NA
ATOM     31  H   UNL     1       7.024   4.429  18.440  0.00  0.00    +0.000 HD
ATOM     32  H   UNL     1       6.096   2.996  18.437  0.00  0.00    +0.000 HD
ENDBRANCH  27  30
ENDBRANCH  21  27
ENDBRANCH   1  25
TORSDOF 3
ENDMDL
MODEL 6
REMARK VINA RESULT:      -7.9      4.263      9.795
REMARK  Name = 
REMARK  3 active torsions:
REMARK  status: ('A' for Active; 'I' for Inactive)
REMARK    1  A    between atoms: N_1  and  S_2
REMARK    2  A    between atoms: S_2  and  C_5
REMARK    3  A    between atoms: C_9  and  N_10
REMARK                            x       y       z     vdW  Elec       q    Type
REMARK                         _______ _______ _______ _____ _____    ______ ____
ROOT
ATOM      1  N   UNL     1      -0.818  10.870  18.732  0.00  0.00    +0.000 NA
ATOM      2  C   UNL     1       0.054  10.023  19.152  0.00  0.00    +0.000 C 
ATOM      3  N   UNL     1       0.209   9.514  20.393  0.00  0.00    +0.000 N 
ATOM      4  C   UNL     1       1.260   8.671  20.565  0.00  0.00    +0.000 C 
ATOM      5  O   UNL     1       1.768   8.437  21.656  0.00  0.00    +0.000 OA
ATOM      6  C   UNL     1       1.838   8.231  19.238  0.00  0.00    +0.000 C 
ATOM      7  C   UNL     1       2.598   7.123  19.171  0.00  0.00    +0.000 C 
ATOM      8  C   UNL     1       2.116   6.140  20.216  0.00  0.00    +0.000 C 
ATOM      9  O   UNL     1       0.969   6.024  20.619  0.00  0.00    +0.000 OA
ATOM     10  N   UNL     1       3.097   5.196  20.325  0.00  0.00    +0.000 N 
ATOM     11  C   UNL     1       3.902   5.237  19.200  0.00  0.00    +0.000 A 
ATOM     12  C   UNL     1       4.775   4.212  18.880  0.00  0.00    +0.000 A 
ATOM     13  C   UNL     1       5.409   4.295  17.652  0.00  0.00    +0.000 A 
ATOM     14  C   UNL     1       5.203   5.427  16.842  0.00  0.00    +0.000 A 
ATOM     15 CL   UNL     1       6.038   5.481  15.330  0.00  0.00    +0.000 Cl
ATOM     16  C   UNL     1       4.329   6.482  17.212  0.00  0.00    +0.000 A 
ATOM     17  C   UNL     1       3.611   6.358  18.390  0.00  0.00    +0.000 A 
ATOM     18  S   UNL     1       1.335   9.385  18.070  0.00  0.00    +0.000 S 
ATOM     19  H   UNL     1      -0.277   9.858  21.203  0.00  0.00    +0.000 HD
ATOM     20  H   UNL     1       3.499   5.040  21.239  0.00  0.00    +0.000 HD
ENDROOT
BRANCH   1  25
ATOM     21  C   UNL     1      -2.977  12.657  21.299  0.00  0.00    +0.000 A 
ATOM     22  C   UNL     1      -4.160  12.767  20.563  0.00  0.00    +0.000 A 
ATOM     23  C   UNL     1      -4.184  12.261  19.270  0.00  0.00    +0.000 A 
ATOM     24  C   UNL     1      -3.024  11.683  18.726  0.00  0.00    +0.000 A 
ATOM     25  C   UNL     1      -1.827  11.555  19.442  0.00  0.00    +0.000 A 
ATOM     26  C   UNL     1      -1.807  12.057  20.755  0.00  0.00    +0.000 A 
BRANCH  21  27
ATOM     27  S   UNL     1      -2.942  13.398  22.919  0.00  0.00    +0.000 S 
ATOM     28  O   UNL     1      -3.770  14.584  22.905  0.00  0.00    +0.000 OA
ATOM     29  O   UNL     1      -1.580  13.405  23.402  0.00  0.00    +0.000 OA
BRANCH  27  30
ATOM     30  N   UNL     1      -3.770  12.282  23.866  0.00  0.00    +0.000 NA
ATOM     31  H   UNL     1      -3.423  12.305  24.827  0.00  0.00    +0.000 HD
ATOM     32  H   UNL     1      -3.703  11.355  23.437  0.00  0.00    +0.000 HD
ENDBRANCH  27  30
ENDBRANCH  21  27
ENDBRANCH   1  25
TORSDOF 3
ENDMDL
MODEL 7
REMARK VINA RESULT:      -7.8      3.102      3.613
REMARK  Name = 
REMARK  3 active torsions:
REMARK  status: ('A' for Active; 'I' for Inactive)
REMARK    1  A    between atoms: N_1  and  S_2
REMARK    2  A    between atoms: S_2  and  C_5
REMARK    3  A    between atoms: C_9  and  N_10
REMARK                            x       y       z     vdW  Elec       q    Type
REMARK                         _______ _______ _______ _____ _____    ______ ____
ROOT
ATOM      1  N   UNL     1       2.678   7.990  18.414  0.00  0.00    +0.000 NA
ATOM      2  C   UNL     1       1.773   8.423  19.219  0.00  0.00    +0.000 C 
ATOM      3  N   UNL     1       1.197   7.790  20.263  0.00  0.00    +0.000 N 
ATOM      4  C   UNL     1       0.220   8.476  20.911  0.00  0.00    +0.000 C 
ATOM      5  O   UNL     1      -0.644   7.939  21.594  0.00  0.00    +0.000 OA
ATOM      6  C   UNL     1       0.219   9.937  20.519  0.00  0.00    +0.000 C 
ATOM      7  C   UNL     1      -0.381  10.844  21.311  0.00  0.00    +0.000 C 
ATOM      8  C   UNL     1      -0.263  10.386  22.749  0.00  0.00    +0.000 C 
ATOM      9  O   UNL     1       0.652   9.730  23.221  0.00  0.00    +0.000 OA
ATOM     10  N   UNL     1      -1.143  11.149  23.461  0.00  0.00    +0.000 N 
ATOM     11  C   UNL     1      -1.465  12.281  22.732  0.00  0.00    +0.000 A 
ATOM     12  C   UNL     1      -2.079  13.380  23.308  0.00  0.00    +0.000 A 
ATOM     13  C   UNL     1      -2.207  14.507  22.516  0.00  0.00    +0.000 A 
ATOM     14  C   UNL     1      -1.789  14.461  21.172  0.00  0.00    +0.000 A 
ATOM     15 CL   UNL     1      -1.993  15.895  20.230  0.00  0.00    +0.000 Cl
ATOM     16  C   UNL     1      -1.196  13.308  20.597  0.00  0.00    +0.000 A 
ATOM     17  C   UNL     1      -0.968  12.211  21.410  0.00  0.00    +0.000 A 
ATOM     18  S   UNL     1       1.044  10.049  19.017  0.00  0.00    +0.000 S 
ATOM     19  H   UNL     1       1.317   6.811  20.457  0.00  0.00    +0.000 HD
ATOM     20  H   UNL     1      -1.849  10.669  24.002  0.00  0.00    +0.000 HD
ENDROOT
BRANCH   1  25
ATOM     21  C   UNL     1       3.813   4.394  18.890  0.00  0.00    +0.000 A 
ATOM     22  C   UNL     1       4.894   4.378  18.002  0.00  0.00    +0.000 A 
ATOM     23  C   UNL     1       5.184   5.536  17.293  0.00  0.00    +0.000 A 
ATOM     24  C   UNL     1       4.379   6.676  17.459  0.00  0.00    +0.000 A 
ATOM     25  C   UNL     1       3.294   6.722  18.345  0.00  0.00    +0.000 A 
ATOM     26  C   UNL     1       3.008   5.553  19.071  0.00  0.00    +0.000 A 
BRANCH  21  27
ATOM     27  S   UNL     1       3.403   2.870  19.716  0.00  0.00    +0.000 S 
ATOM     28  O   UNL     1       2.721   2.003  18.779  0.00  0.00    +0.000 OA
ATOM     29  O   UNL     1       2.869   3.174  21.024  0.00  0.00    +0.000 OA
BRANCH  27  30
ATOM     30  N   UNL     1       4.905   2.160  19.975  0.00  0.00    +0.000 NA
ATOM     31  H   UNL     1       5.108   2.114  20.975  0.00  0.00    +0.000 HD
ATOM     32  H   UNL     1       5.617   2.668  19.443  0.00  0.00    +0.000 HD
ENDBRANCH  27  30
ENDBRANCH  21  27
ENDBRANCH   1  25
TORSDOF 3
ENDMDL
MODEL 8
REMARK VINA RESULT:      -7.8      1.968      2.575
REMARK  Name = 
REMARK  3 active torsions:
REMARK  status: ('A' for Active; 'I' for Inactive)
REMARK    1  A    between atoms: N_1  and  S_2
REMARK    2  A    between atoms: S_2  and  C_5
REMARK    3  A    between atoms: C_9  and  N_10
REMARK                            x       y       z     vdW  Elec       q    Type
REMARK                         _______ _______ _______ _____ _____    ______ ____
ROOT
ATOM      1  N   UNL     1       1.589   7.593  20.365  0.00  0.00    +0.000 NA
ATOM      2  C   UNL     1       1.098   8.782  20.392  0.00  0.00    +0.000 C 
ATOM      3  N   UNL     1       1.299   9.800  19.528  0.00  0.00    +0.000 N 
ATOM      4  C   UNL     1       0.689  10.974  19.837  0.00  0.00    +0.000 C 
ATOM      5  O   UNL     1       1.059  12.061  19.408  0.00  0.00    +0.000 OA
ATOM      6  C   UNL     1      -0.352  10.787  20.917  0.00  0.00    +0.000 C 
ATOM      7  C   UNL     1      -1.320  11.708  21.084  0.00  0.00    +0.000 C 
ATOM      8  C   UNL     1      -1.642  12.322  19.738  0.00  0.00    +0.000 C 
ATOM      9  O   UNL     1      -1.565  11.762  18.656  0.00  0.00    +0.000 OA
ATOM     10  N   UNL     1      -2.372  13.444  20.003  0.00  0.00    +0.000 N 
ATOM     11  C   UNL     1      -2.892  13.365  21.284  0.00  0.00    +0.000 A 
ATOM     12  C   UNL     1      -3.914  14.190  21.717  0.00  0.00    +0.000 A 
ATOM     13  C   UNL     1      -4.454  13.911  22.961  0.00  0.00    +0.000 A 
ATOM     14  C   UNL     1      -3.901  12.877  23.740  0.00  0.00    +0.000 A 
ATOM     15 CL   UNL     1      -4.607  12.590  25.290  0.00  0.00    +0.000 Cl
ATOM     16  C   UNL     1      -2.828  12.069  23.284  0.00  0.00    +0.000 A 
ATOM     17  C   UNL     1      -2.351  12.273  22.000  0.00  0.00    +0.000 A 
ATOM     18  S   UNL     1       0.029   9.321  21.728  0.00  0.00    +0.000 S 
ATOM     19  H   UNL     1       1.997   9.788  18.804  0.00  0.00    +0.000 HD
ATOM     20  H   UNL     1      -2.028  14.324  19.642  0.00  0.00    +0.000 HD
ENDROOT
BRANCH   1  25
ATOM     21  C   UNL     1       4.232   5.505  18.604  0.00  0.00    +0.000 A 
ATOM     22  C   UNL     1       4.393   6.273  17.447  0.00  0.00    +0.000 A 
ATOM     23  C   UNL     1       3.625   7.421  17.302  0.00  0.00    +0.000 A 
ATOM     24  C   UNL     1       2.694   7.766  18.296  0.00  0.00    +0.000 A 
ATOM     25  C   UNL     1       2.515   7.019  19.468  0.00  0.00    +0.000 A 
ATOM     26  C   UNL     1       3.301   5.864  19.619  0.00  0.00    +0.000 A 
BRANCH  21  27
ATOM     27  S   UNL     1       5.158   3.988  18.723  0.00  0.00    +0.000 S 
ATOM     28  O   UNL     1       4.426   3.061  19.558  0.00  0.00    +0.000 OA
ATOM     29  O   UNL     1       6.550   4.305  18.947  0.00  0.00    +0.000 OA
BRANCH  27  30
ATOM     30  N   UNL     1       5.063   3.362  17.165  0.00  0.00    +0.000 NA
ATOM     31  H   UNL     1       5.256   2.358  17.174  0.00  0.00    +0.000 HD
ATOM     32  H   UNL     1       5.691   3.885  16.549  0.00  0.00    +0.000 HD
ENDBRANCH  27  30
ENDBRANCH  21  27
ENDBRANCH   1  25
TORSDOF 3
ENDMDL
MODEL 9
REMARK VINA RESULT:      -7.7      2.451      2.927
REMARK  Name = 
REMARK  3 active torsions:
REMARK  status: ('A' for Active; 'I' for Inactive)
REMARK    1  A    between atoms: N_1  and  S_2
REMARK    2  A    between atoms: S_2  and  C_5
REMARK    3  A    between atoms: C_9  and  N_10
REMARK                            x       y       z     vdW  Elec       q    Type
REMARK                         _______ _______ _______ _____ _____    ______ ____
ROOT
ATOM      1  N   UNL     1       1.568   7.419  20.797  0.00  0.00    +0.000 NA
ATOM      2  C   UNL     1       1.083   8.586  20.557  0.00  0.00    +0.000 C 
ATOM      3  N   UNL     1       1.007   9.243  19.380  0.00  0.00    +0.000 N 
ATOM      4  C   UNL     1       0.490  10.498  19.430  0.00  0.00    +0.000 C 
ATOM      5  O   UNL     1       0.699  11.351  18.575  0.00  0.00    +0.000 OA
ATOM      6  C   UNL     1      -0.193  10.760  20.755  0.00  0.00    +0.000 C 
ATOM      7  C   UNL     1      -1.089  11.759  20.862  0.00  0.00    +0.000 C 
ATOM      8  C   UNL     1      -1.797  11.920  19.533  0.00  0.00    +0.000 C 
ATOM      9  O   UNL     1      -2.024  11.032  18.728  0.00  0.00    +0.000 OA
ATOM     10  N   UNL     1      -2.442  13.122  19.595  0.00  0.00    +0.000 N 
ATOM     11  C   UNL     1      -2.569  13.509  20.918  0.00  0.00    +0.000 A 
ATOM     12  C   UNL     1      -3.439  14.511  21.313  0.00  0.00    +0.000 A 
ATOM     13  C   UNL     1      -3.592  14.699  22.676  0.00  0.00    +0.000 A 
ATOM     14  C   UNL     1      -2.818  13.938  23.572  0.00  0.00    +0.000 A 
ATOM     15 CL   UNL     1      -3.042  14.234  25.259  0.00  0.00    +0.000 Cl
ATOM     16  C   UNL     1      -1.906  12.942  23.137  0.00  0.00    +0.000 A 
ATOM     17  C   UNL     1      -1.823  12.674  21.781  0.00  0.00    +0.000 A 
ATOM     18  S   UNL     1       0.434   9.617  21.872  0.00  0.00    +0.000 S 
ATOM     19  H   UNL     1       1.467   8.939  18.539  0.00  0.00    +0.000 HD
ATOM     20  H   UNL     1      -2.234  13.803  18.878  0.00  0.00    +0.000 HD
ENDROOT
BRANCH   1  25
ATOM     21  C   UNL     1       3.125   4.405  19.084  0.00  0.00    +0.000 A 
ATOM     22  C   UNL     1       3.711   5.045  17.987  0.00  0.00    +0.000 A 
ATOM     23  C   UNL     1       3.557   6.419  17.864  0.00  0.00    +0.000 A 
ATOM     24  C   UNL     1       2.802   7.124  18.817  0.00  0.00    +0.000 A 
ATOM     25  C   UNL     1       2.208   6.510  19.928  0.00  0.00    +0.000 A 
ATOM     26  C   UNL     1       2.375   5.120  20.057  0.00  0.00    +0.000 A 
BRANCH  21  27
ATOM     27  S   UNL     1       3.256   2.630  19.169  0.00  0.00    +0.000 S 
ATOM     28  O   UNL     1       3.214   2.096  17.825  0.00  0.00    +0.000 OA
ATOM     29  O   UNL     1       2.396   2.146  20.225  0.00  0.00    +0.000 OA
BRANCH  27  30
ATOM     30  N   UNL     1       4.833   2.389  19.700  0.00  0.00    +0.000 NA
ATOM     31  H   UNL     1       4.959   2.787  20.633  0.00  0.00    +0.000 HD
ATOM     32  H   UNL     1       5.486   2.770  19.010  0.00  0.00    +0.000 HD
ENDBRANCH  27  30
ENDBRANCH  21  27
ENDBRANCH   1  25
TORSDOF 3
ENDMDL
