MODEL 1
REMARK VINA RESULT:      -7.9      0.000      0.000
REMARK  Name = 
REMARK  7 active torsions:
REMARK  status: ('A' for Active; 'I' for Inactive)
REMARK    1  A    between atoms: C_2  and  C_21
REMARK    2  A    between atoms: N_3  and  C_4
REMARK    3  A    between atoms: C_4  and  C_5
REMARK    4  A    between atoms: C_9  and  C_10
REMARK    5  A    between atoms: N_12  and  C_13
REMARK    6  A    between atoms: C_13  and  C_14
REMARK    7  A    between atoms: C_24  and  O_25
REMARK                            x       y       z     vdW  Elec       q    Type
REMARK                         _______ _______ _______ _____ _____    ______ ____
ROOT
ATOM      1  C   UNL     1       2.642   7.926  18.313  0.00  0.00    +0.000 A 
ATOM      2  C   UNL     1       1.940   7.460  19.435  0.00  0.00    +0.000 A 
ATOM      3  C   UNL     1       2.254   6.224  19.998  0.00  0.00    +0.000 A 
ATOM      4  C   UNL     1       3.264   5.440  19.440  0.00  0.00    +0.000 A 
ATOM      5  C   UNL     1       3.955   5.877  18.303  0.00  0.00    +0.000 A 
ATOM      6  C   UNL     1       3.642   7.120  17.742  0.00  0.00    +0.000 A 
ENDROOT
BRANCH   5   7
ATOM      7  C   UNL     1       5.037   5.005  17.767  0.00  0.00    +0.000 C 
ATOM      8  O   UNL     1       5.019   3.803  18.010  0.00  0.00    +0.000 OA
ATOM      9  N   UNL     1       6.001   5.605  16.989  0.00  0.00    +0.000 N 
ATOM     10  H   UNL     1       5.940   6.588  16.762  0.00  0.00    +0.000 HD
BRANCH   9  11
ATOM     11  C   UNL     1       7.102   4.854  16.428  0.00  0.00    +0.000 C 
BRANCH  11  12
ATOM     12  C   UNL     1       6.904   4.651  14.950  0.00  0.00    +0.000 A 
ATOM     13  C   UNL     1       5.912   3.774  14.487  0.00  0.00    +0.000 A 
ATOM     14  C   UNL     1       5.757   3.538  13.120  0.00  0.00    +0.000 A 
ATOM     15  C   UNL     1       6.595   4.172  12.204  0.00  0.00    +0.000 A 
ATOM     16  C   UNL     1       7.580   5.050  12.653  0.00  0.00    +0.000 A 
ATOM     17  C   UNL     1       7.737   5.287  14.019  0.00  0.00    +0.000 A 
ENDBRANCH  11  12
ENDBRANCH   9  11
ENDBRANCH   5   7
BRANCH   1  18
ATOM     18  C   UNL     1       2.323   9.271  17.715  0.00  0.00    +0.000 C 
BRANCH  18  21
ATOM     19  O   UNL     1       0.915  11.325  19.062  0.00  0.00    +0.000 OA
ATOM     20  C   UNL     1       0.304  10.525  18.363  0.00  0.00    +0.000 C 
ATOM     21  N   UNL     1       0.898   9.498  17.664  0.00  0.00    +0.000 N 
ATOM     22  H   UNL     1       0.380   9.047  16.923  0.00  0.00    +0.000 HD
BRANCH  20  23
ATOM     23  C   UNL     1      -1.170  10.641  18.208  0.00  0.00    +0.000 A 
ATOM     24  C   UNL     1      -1.813   9.845  17.252  0.00  0.00    +0.000 A 
ATOM     25  C   UNL     1      -3.194   9.955  17.064  0.00  0.00    +0.000 A 
ATOM     26  C   UNL     1      -3.917  10.866  17.827  0.00  0.00    +0.000 A 
ATOM     27  C   UNL     1      -3.287  11.667  18.774  0.00  0.00    +0.000 A 
ATOM     28  C   UNL     1      -1.909  11.559  18.965  0.00  0.00    +0.000 A 
BRANCH  26  29
ATOM     29  O   UNL     1      -5.263  11.014  17.673  0.00  0.00    +0.000 OA
ATOM     30  H   UNL     1      -5.441  11.900  17.315  0.00  0.00    +0.000 HD
ENDBRANCH  26  29
ENDBRANCH  20  23
ENDBRANCH  18  21
ENDBRANCH   1  18
TORSDOF 7
ENDMDL
MODEL 2
REMARK VINA RESULT:      -7.9      1.486      2.393
REMARK  Name = 
REMARK  7 active torsions:
REMARK  status: ('A' for Active; 'I' for Inactive)
REMARK    1  A    between atoms: C_2  and  C_21
REMARK    2  A    between atoms: N_3  and  C_4
REMARK    3  A    between atoms: C_4  and  C_5
REMARK    4  A    between atoms: C_9  and  C_10
REMARK    5  A    between atoms: N_12  and  C_13
REMARK    6  A    between atoms: C_13  and  C_14
REMARK    7  A    between atoms: C_24  and  O_25
REMARK                            x       y       z     vdW  Elec       q    Type
REMARK                         _______ _______ _______ _____ _____    ______ ____
ROOT
ATOM      1  C   UNL     1       1.514   8.929  19.008  0.00  0.00    +0.000 A 
ATOM      2  C   UNL     1       0.981   8.966  20.305  0.00  0.00    +0.000 A 
ATOM      3  C   UNL     1       1.173   7.895  21.177  0.00  0.00    +0.000 A 
ATOM      4  C   UNL     1       1.890   6.774  20.757  0.00  0.00    +0.000 A 
ATOM      5  C   UNL     1       2.404   6.708  19.455  0.00  0.00    +0.000 A 
ATOM      6  C   UNL     1       2.214   7.786  18.584  0.00  0.00    +0.000 A 
ENDROOT
BRANCH   5   7
ATOM      7  C   UNL     1       3.179   5.495  19.073  0.00  0.00    +0.000 C 
ATOM      8  O   UNL     1       3.942   4.985  19.887  0.00  0.00    +0.000 OA
ATOM      9  N   UNL     1       2.967   4.985  17.812  0.00  0.00    +0.000 N 
ATOM     10  H   UNL     1       2.280   5.400  17.198  0.00  0.00    +0.000 HD
BRANCH   9  11
ATOM     11  C   UNL     1       3.676   3.818  17.335  0.00  0.00    +0.000 C 
BRANCH  11  12
ATOM     12  C   UNL     1       4.930   4.223  16.607  0.00  0.00    +0.000 A 
ATOM     13  C   UNL     1       4.912   4.387  15.214  0.00  0.00    +0.000 A 
ATOM     14  C   UNL     1       6.081   4.710  14.524  0.00  0.00    +0.000 A 
ATOM     15  C   UNL     1       7.280   4.865  15.219  0.00  0.00    +0.000 A 
ATOM     16  C   UNL     1       7.308   4.710  16.604  0.00  0.00    +0.000 A 
ATOM     17  C   UNL     1       6.139   4.387  17.296  0.00  0.00    +0.000 A 
ENDBRANCH  11  12
ENDBRANCH   9  11
ENDBRANCH   5   7
BRANCH   1  18
ATOM     18  C   UNL     1       1.329  10.093  18.070  0.00  0.00    +0.000 C 
BRANCH  18  21
ATOM     19  O   UNL     1      -0.292  12.139  19.165  0.00  0.00    +0.000 OA
ATOM     20  C   UNL     1      -0.773  11.340  18.371  0.00  0.00    +0.000 C 
ATOM     21  N   UNL     1      -0.067  10.317  17.780  0.00  0.00    +0.000 N 
ATOM     22  H   UNL     1      -0.450   9.867  16.961  0.00  0.00    +0.000 HD
BRANCH  20  23
ATOM     23  C   UNL     1      -2.200  11.453  17.969  0.00  0.00    +0.000 A 
ATOM     24  C   UNL     1      -3.139  11.868  18.922  0.00  0.00    +0.000 A 
ATOM     25  C   UNL     1      -4.492  11.956  18.581  0.00  0.00    +0.000 A 
ATOM     26  C   UNL     1      -4.894  11.619  17.292  0.00  0.00    +0.000 A 
ATOM     27  C   UNL     1      -3.971  11.198  16.341  0.00  0.00    +0.000 A 
ATOM     28  C   UNL     1      -2.620  11.111  16.678  0.00  0.00    +0.000 A 
BRANCH  26  29
ATOM     29  O   UNL     1      -6.202  11.680  16.916  0.00  0.00    +0.000 OA
ATOM     30  H   UNL     1      -6.740  11.212  17.577  0.00  0.00    +0.000 HD
ENDBRANCH  26  29
ENDBRANCH  20  23
ENDBRANCH  18  21
ENDBRANCH   1  18
TORSDOF 7
ENDMDL
MODEL 3
REMARK VINA RESULT:      -7.9      3.289     10.837
REMARK  Name = 
REMARK  7 active torsions:
REMARK  status: ('A' for Active; 'I' for Inactive)
REMARK    1  A    between atoms: C_2  and  C_21
REMARK    2  A    between atoms: N_3  and  C_4
REMARK    3  A    between atoms: C_4  and  C_5
REMARK    4  A    between atoms: C_9  and  C_10
REMARK    5  A    between atoms: N_12  and  C_13
REMARK    6  A    between atoms: C_13  and  C_14
REMARK    7  A    between atoms: C_24  and  O_25
REMARK                            x       y       z     vdW  Elec       q    Type
REMARK                         _______ _______ _______ _____ _____    ______ ____
ROOT
ATOM      1  C   UNL     1       1.489   7.891  20.167  0.00  0.00    +0.000 A 
ATOM      2  C   UNL     1       1.585   8.692  19.019  0.00  0.00    +0.000 A 
ATOM      3  C   UNL     1       1.116  10.005  19.035  0.00  0.00    +0.000 A 
ATOM      4  C   UNL     1       0.540  10.525  20.195  0.00  0.00    +0.000 A 
ATOM      5  C   UNL     1       0.410   9.730  21.341  0.00  0.00    +0.000 A 
ATOM      6  C   UNL     1       0.885   8.415  21.324  0.00  0.00    +0.000 A 
ENDROOT
BRANCH   5   7
ATOM      7  C   UNL     1      -0.193  10.349  22.553  0.00  0.00    +0.000 C 
ATOM      8  O   UNL     1       0.102   9.916  23.662  0.00  0.00    +0.000 OA
ATOM      9  N   UNL     1      -1.042  11.415  22.359  0.00  0.00    +0.000 N 
ATOM     10  H   UNL     1      -1.206  11.779  21.431  0.00  0.00    +0.000 HD
BRANCH   9  11
ATOM     11  C   UNL     1      -1.691  12.081  23.466  0.00  0.00    +0.000 C 
BRANCH  11  12
ATOM     12  C   UNL     1      -3.098  12.471  23.097  0.00  0.00    +0.000 A 
ATOM     13  C   UNL     1      -4.069  12.628  24.096  0.00  0.00    +0.000 A 
ATOM     14  C   UNL     1      -5.388  12.936  23.759  0.00  0.00    +0.000 A 
ATOM     15  C   UNL     1      -5.749  13.084  22.421  0.00  0.00    +0.000 A 
ATOM     16  C   UNL     1      -4.791  12.936  21.420  0.00  0.00    +0.000 A 
ATOM     17  C   UNL     1      -3.471  12.628  21.755  0.00  0.00    +0.000 A 
ENDBRANCH  11  12
ENDBRANCH   9  11
ENDBRANCH   5   7
BRANCH   1  18
ATOM     18  C   UNL     1       2.014   6.480  20.162  0.00  0.00    +0.000 C 
BRANCH  18  21
ATOM     19  O   UNL     1       2.015   4.699  17.961  0.00  0.00    +0.000 OA
ATOM     20  C   UNL     1       2.987   5.416  18.164  0.00  0.00    +0.000 C 
ATOM     21  N   UNL     1       3.079   6.318  19.200  0.00  0.00    +0.000 N 
ATOM     22  H   UNL     1       3.783   7.042  19.159  0.00  0.00    +0.000 HD
BRANCH  20  23
ATOM     23  C   UNL     1       4.157   5.366  17.249  0.00  0.00    +0.000 A 
ATOM     24  C   UNL     1       4.534   4.133  16.701  0.00  0.00    +0.000 A 
ATOM     25  C   UNL     1       5.647   4.051  15.860  0.00  0.00    +0.000 A 
ATOM     26  C   UNL     1       6.380   5.201  15.582  0.00  0.00    +0.000 A 
ATOM     27  C   UNL     1       6.020   6.429  16.128  0.00  0.00    +0.000 A 
ATOM     28  C   UNL     1       4.907   6.515  16.966  0.00  0.00    +0.000 A 
BRANCH  26  29
ATOM     29  O   UNL     1       7.478   5.169  14.776  0.00  0.00    +0.000 OA
ATOM     30  H   UNL     1       7.311   4.551  14.045  0.00  0.00    +0.000 HD
ENDBRANCH  26  29
ENDBRANCH  20  23
ENDBRANCH  18  21
ENDBRANCH   1  18
TORSDOF 7
ENDMDL
MODEL 4
REMARK VINA RESULT:      -7.9      3.022     10.896
REMARK  Name = 
REMARK  7 active torsions:
REMARK  status: ('A' for Active; 'I' for Inactive)
REMARK    1  A    between atoms: C_2  and  C_21
REMARK    2  A    between atoms: N_3  and  C_4
REMARK    3  A    between atoms: C_4  and  C_5
REMARK    4  A    between atoms: C_9  and  C_10
REMARK    5  A    between atoms: N_12  and  C_13
REMARK    6  A    between atoms: C_13  and  C_14
REMARK    7  A    between atoms: C_24  and  O_25
REMARK                            x       y       z     vdW  Elec       q    Type
REMARK                         _______ _______ _______ _____ _____    ______ ____
ROOT
ATOM      1  C   UNL     1       1.799   7.748  20.004  0.00  0.00    +0.000 A 
ATOM      2  C   UNL     1       1.829   8.492  18.816  0.00  0.00    +0.000 A 
ATOM      3  C   UNL     1       1.293   9.779  18.776  0.00  0.00    +0.000 A 
ATOM      4  C   UNL     1       0.714  10.328  19.921  0.00  0.00    +0.000 A 
ATOM      5  C   UNL     1       0.648   9.588  21.108  0.00  0.00    +0.000 A 
ATOM      6  C   UNL     1       1.192   8.299  21.147  0.00  0.00    +0.000 A 
ENDROOT
BRANCH   5   7
ATOM      7  C   UNL     1       0.038  10.237  22.301  0.00  0.00    +0.000 C 
ATOM      8  O   UNL     1       0.324   9.829  23.422  0.00  0.00    +0.000 OA
ATOM      9  N   UNL     1      -0.808  11.299  22.075  0.00  0.00    +0.000 N 
ATOM     10  H   UNL     1      -0.964  11.642  21.138  0.00  0.00    +0.000 HD
BRANCH   9  11
ATOM     11  C   UNL     1      -1.463  11.993  23.162  0.00  0.00    +0.000 C 
BRANCH  11  12
ATOM     12  C   UNL     1      -2.874  12.357  22.781  0.00  0.00    +0.000 A 
ATOM     13  C   UNL     1      -3.213  12.540  21.433  0.00  0.00    +0.000 A 
ATOM     14  C   UNL     1      -4.504  12.930  21.074  0.00  0.00    +0.000 A 
ATOM     15  C   UNL     1      -5.467  13.144  22.060  0.00  0.00    +0.000 A 
ATOM     16  C   UNL     1      -5.142  12.958  23.403  0.00  0.00    +0.000 A 
ATOM     17  C   UNL     1      -3.850  12.569  23.764  0.00  0.00    +0.000 A 
ENDBRANCH  11  12
ENDBRANCH   9  11
ENDBRANCH   5   7
BRANCH   1  18
ATOM     18  C   UNL     1       2.397   6.367  20.059  0.00  0.00    +0.000 C 
BRANCH  18  21
ATOM     19  O   UNL     1       3.942   4.034  19.630  0.00  0.00    +0.000 OA
ATOM     20  C   UNL     1       4.083   5.002  18.892  0.00  0.00    +0.000 C 
ATOM     21  N   UNL     1       3.375   6.176  19.014  0.00  0.00    +0.000 N 
ATOM     22  H   UNL     1       3.356   6.820  18.236  0.00  0.00    +0.000 HD
BRANCH  20  23
ATOM     23  C   UNL     1       5.049   4.947  17.764  0.00  0.00    +0.000 A 
ATOM     24  C   UNL     1       6.390   4.648  18.036  0.00  0.00    +0.000 A 
ATOM     25  C   UNL     1       7.326   4.618  16.999  0.00  0.00    +0.000 A 
ATOM     26  C   UNL     1       6.915   4.897  15.699  0.00  0.00    +0.000 A 
ATOM     27  C   UNL     1       5.587   5.204  15.419  0.00  0.00    +0.000 A 
ATOM     28  C   UNL     1       4.650   5.233  16.452  0.00  0.00    +0.000 A 
BRANCH  26  29
ATOM     29  O   UNL     1       7.792   4.889  14.657  0.00  0.00    +0.000 OA
ATOM     30  H   UNL     1       7.849   3.986  14.302  0.00  0.00    +0.000 HD
ENDBRANCH  26  29
ENDBRANCH  20  23
ENDBRANCH  18  21
ENDBRANCH   1  18
TORSDOF 7
ENDMDL
MODEL 5
REMARK VINA RESULT:      -7.8      3.942      5.472
REMARK  Name = 
REMARK  7 active torsions:
REMARK  status: ('A' for Active; 'I' for Inactive)
REMARK    1  A    between atoms: C_2  and  C_21
REMARK    2  A    between atoms: N_3  and  C_4
REMARK    3  A    between atoms: C_4  and  C_5
REMARK    4  A    between atoms: C_9  and  C_10
REMARK    5  A    between atoms: N_12  and  C_13
REMARK    6  A    between atoms: C_13  and  C_14
REMARK    7  A    between atoms: C_24  and  O_25
REMARK                            x       y       z     vdW  Elec       q    Type
REMARK                         _______ _______ _______ _____ _____    ______ ____
ROOT
ATOM      1  C   UNL     1      -0.141  11.181  21.370  0.00  0.00    +0.000 A 
ATOM      2  C   UNL     1      -0.388  10.656  22.646  0.00  0.00    +0.000 A 
ATOM      3  C   UNL     1       0.068   9.383  22.986  0.00  0.00    +0.000 A 
ATOM      4  C   UNL     1       0.766   8.620  22.049  0.00  0.00    +0.000 A 
ATOM      5  C   UNL     1       0.997   9.116  20.760  0.00  0.00    +0.000 A 
ATOM      6  C   UNL     1       0.543  10.396  20.423  0.00  0.00    +0.000 A 
ENDROOT
BRANCH   5   7
ATOM      7  C   UNL     1       1.767   8.264  19.813  0.00  0.00    +0.000 C 
ATOM      8  O   UNL     1       1.907   8.629  18.650  0.00  0.00    +0.000 OA
ATOM      9  N   UNL     1       2.314   7.104  20.313  0.00  0.00    +0.000 N 
ATOM     10  H   UNL     1       2.227   6.875  21.293  0.00  0.00    +0.000 HD
BRANCH   9  11
ATOM     11  C   UNL     1       3.070   6.198  19.477  0.00  0.00    +0.000 C 
BRANCH  11  12
ATOM     12  C   UNL     1       2.344   4.888  19.327  0.00  0.00    +0.000 A 
ATOM     13  C   UNL     1       2.503   4.126  18.160  0.00  0.00    +0.000 A 
ATOM     14  C   UNL     1       1.793   2.936  17.990  0.00  0.00    +0.000 A 
ATOM     15  C   UNL     1       0.914   2.501  18.981  0.00  0.00    +0.000 A 
ATOM     16  C   UNL     1       0.753   3.248  20.146  0.00  0.00    +0.000 A 
ATOM     17  C   UNL     1       1.462   4.438  20.319  0.00  0.00    +0.000 A 
ENDBRANCH  11  12
ENDBRANCH   9  11
ENDBRANCH   5   7
BRANCH   1  18
ATOM     18  C   UNL     1      -0.610  12.564  21.005  0.00  0.00    +0.000 C 
BRANCH  18  21
ATOM     19  O   UNL     1      -3.315  12.583  21.839  0.00  0.00    +0.000 OA
ATOM     20  C   UNL     1      -3.047  12.522  20.646  0.00  0.00    +0.000 C 
ATOM     21  N   UNL     1      -1.766  12.516  20.141  0.00  0.00    +0.000 N 
ATOM     22  H   UNL     1      -1.624  12.720  19.162  0.00  0.00    +0.000 HD
BRANCH  20  23
ATOM     23  C   UNL     1      -4.137  12.477  19.635  0.00  0.00    +0.000 A 
ATOM     24  C   UNL     1      -3.942  11.734  18.464  0.00  0.00    +0.000 A 
ATOM     25  C   UNL     1      -4.937  11.696  17.484  0.00  0.00    +0.000 A 
ATOM     26  C   UNL     1      -6.116  12.411  17.680  0.00  0.00    +0.000 A 
ATOM     27  C   UNL     1      -6.316  13.159  18.835  0.00  0.00    +0.000 A 
ATOM     28  C   UNL     1      -5.325  13.196  19.817  0.00  0.00    +0.000 A 
BRANCH  26  29
ATOM     29  O   UNL     1      -7.111  12.412  16.749  0.00  0.00    +0.000 OA
ATOM     30  H   UNL     1      -7.244  13.322  16.435  0.00  0.00    +0.000 HD
ENDBRANCH  26  29
ENDBRANCH  20  23
ENDBRANCH  18  21
ENDBRANCH   1  18
TORSDOF 7
ENDMDL
MODEL 6
REMARK VINA RESULT:      -7.7      3.348     10.506
REMARK  Name = 
REMARK  7 active torsions:
REMARK  status: ('A' for Active; 'I' for Inactive)
REMARK    1  A    between atoms: C_2  and  C_21
REMARK    2  A    between atoms: N_3  and  C_4
REMARK    3  A    between atoms: C_4  and  C_5
REMARK    4  A    between atoms: C_9  and  C_10
REMARK    5  A    between atoms: N_12  and  C_13
REMARK    6  A    between atoms: C_13  and  C_14
REMARK    7  A    between atoms: C_24  and  O_25
REMARK                            x       y       z     vdW  Elec       q    Type
REMARK                         _______ _______ _______ _____ _____    ______ ____
ROOT
ATOM      1  C   UNL     1       0.927   9.953  18.428  0.00  0.00    +0.000 A 
ATOM      2  C   UNL     1       1.065  10.825  19.518  0.00  0.00    +0.000 A 
ATOM      3  C   UNL     1      -0.029  11.559  19.976  0.00  0.00    +0.000 A 
ATOM      4  C   UNL     1      -1.266  11.435  19.342  0.00  0.00    +0.000 A 
ATOM      5  C   UNL     1      -1.414  10.590  18.234  0.00  0.00    +0.000 A 
ATOM      6  C   UNL     1      -0.317   9.852  17.780  0.00  0.00    +0.000 A 
ENDROOT
BRANCH   5   7
ATOM      7  C   UNL     1      -2.765  10.484  17.615  0.00  0.00    +0.000 C 
ATOM      8  O   UNL     1      -3.266   9.377  17.449  0.00  0.00    +0.000 OA
ATOM      9  N   UNL     1      -3.400  11.659  17.286  0.00  0.00    +0.000 N 
ATOM     10  H   UNL     1      -2.976  12.551  17.501  0.00  0.00    +0.000 HD
BRANCH   9  11
ATOM     11  C   UNL     1      -4.708  11.669  16.669  0.00  0.00    +0.000 C 
BRANCH  11  12
ATOM     12  C   UNL     1      -5.761  12.061  17.671  0.00  0.00    +0.000 A 
ATOM     13  C   UNL     1      -6.675  13.080  17.369  0.00  0.00    +0.000 A 
ATOM     14  C   UNL     1      -7.620  13.487  18.312  0.00  0.00    +0.000 A 
ATOM     15  C   UNL     1      -7.657  12.881  19.568  0.00  0.00    +0.000 A 
ATOM     16  C   UNL     1      -6.757  11.863  19.876  0.00  0.00    +0.000 A 
ATOM     17  C   UNL     1      -5.811  11.455  18.935  0.00  0.00    +0.000 A 
ENDBRANCH  11  12
ENDBRANCH   9  11
ENDBRANCH   5   7
BRANCH   1  18
ATOM     18  C   UNL     1       2.099   9.141  17.944  0.00  0.00    +0.000 C 
BRANCH  18  21
ATOM     19  O   UNL     1       4.062   7.107  17.792  0.00  0.00    +0.000 OA
ATOM     20  C   UNL     1       2.898   6.813  18.036  0.00  0.00    +0.000 C 
ATOM     21  N   UNL     1       1.875   7.728  18.138  0.00  0.00    +0.000 N 
ATOM     22  H   UNL     1       1.012   7.450  18.585  0.00  0.00    +0.000 HD
BRANCH  20  23
ATOM     23  C   UNL     1       2.519   5.394  18.270  0.00  0.00    +0.000 A 
ATOM     24  C   UNL     1       1.882   5.054  19.470  0.00  0.00    +0.000 A 
ATOM     25  C   UNL     1       1.540   3.725  19.730  0.00  0.00    +0.000 A 
ATOM     26  C   UNL     1       1.847   2.745  18.791  0.00  0.00    +0.000 A 
ATOM     27  C   UNL     1       2.487   3.070  17.599  0.00  0.00    +0.000 A 
ATOM     28  C   UNL     1       2.828   4.397  17.336  0.00  0.00    +0.000 A 
BRANCH  26  29
ATOM     29  O   UNL     1       1.542   1.434  19.003  0.00  0.00    +0.000 OA
ATOM     30  H   UNL     1       1.645   0.949  18.167  0.00  0.00    +0.000 HD
ENDBRANCH  26  29
ENDBRANCH  20  23
ENDBRANCH  18  21
ENDBRANCH   1  18
TORSDOF 7
ENDMDL
MODEL 7
REMARK VINA RESULT:      -7.7      0.385      1.001
REMARK  Name = 
REMARK  7 active torsions:
REMARK  status: ('A' for Active; 'I' for Inactive)
REMARK    1  A    between atoms: C_2  and  C_21
REMARK    2  A    between atoms: N_3  and  C_4
REMARK    3  A    between atoms: C_4  and  C_5
REMARK    4  A    between atoms: C_9  and  C_10
REMARK    5  A    between atoms: N_12  and  C_13
REMARK    6  A    between atoms: C_13  and  C_14
REMARK    7  A    between atoms: C_24  and  O_25
REMARK                            x       y       z     vdW  Elec       q    Type
REMARK                         _______ _______ _______ _____ _____    ______ ____
ROOT
ATOM      1  C   UNL     1       2.682   7.867  18.357  0.00  0.00    +0.000 A 
ATOM      2  C   UNL     1       1.858   7.290  19.334  0.00  0.00    +0.000 A 
ATOM      3  C   UNL     1       2.186   6.055  19.893  0.00  0.00    +0.000 A 
ATOM      4  C   UNL     1       3.335   5.384  19.475  0.00  0.00    +0.000 A 
ATOM      5  C   UNL     1       4.154   5.931  18.479  0.00  0.00    +0.000 A 
ATOM      6  C   UNL     1       3.826   7.172  17.923  0.00  0.00    +0.000 A 
ENDROOT
BRANCH   5   7
ATOM      7  C   UNL     1       5.378   5.177  18.091  0.00  0.00    +0.000 C 
ATOM      8  O   UNL     1       5.988   4.538  18.942  0.00  0.00    +0.000 OA
ATOM      9  N   UNL     1       5.745   5.215  16.765  0.00  0.00    +0.000 N 
ATOM     10  H   UNL     1       5.176   5.701  16.087  0.00  0.00    +0.000 HD
BRANCH   9  11
ATOM     11  C   UNL     1       6.923   4.527  16.283  0.00  0.00    +0.000 C 
BRANCH  11  12
ATOM     12  C   UNL     1       6.896   4.424  14.781  0.00  0.00    +0.000 A 
ATOM     13  C   UNL     1       7.765   5.205  14.006  0.00  0.00    +0.000 A 
ATOM     14  C   UNL     1       7.710   5.156  12.613  0.00  0.00    +0.000 A 
ATOM     15  C   UNL     1       6.782   4.329  11.981  0.00  0.00    +0.000 A 
ATOM     16  C   UNL     1       5.917   3.544  12.741  0.00  0.00    +0.000 A 
ATOM     17  C   UNL     1       5.971   3.592  14.135  0.00  0.00    +0.000 A 
ENDBRANCH  11  12
ENDBRANCH   9  11
ENDBRANCH   5   7
BRANCH   1  18
ATOM     18  C   UNL     1       2.346   9.210  17.766  0.00  0.00    +0.000 C 
BRANCH  18  21
ATOM     19  O   UNL     1       0.990  11.462  18.816  0.00  0.00    +0.000 OA
ATOM     20  C   UNL     1       0.352  10.560  18.287  0.00  0.00    +0.000 C 
ATOM     21  N   UNL     1       0.919   9.430  17.741  0.00  0.00    +0.000 N 
ATOM     22  H   UNL     1       0.371   8.864  17.108  0.00  0.00    +0.000 HD
BRANCH  20  23
ATOM     23  C   UNL     1      -1.128  10.653  18.181  0.00  0.00    +0.000 A 
ATOM     24  C   UNL     1      -1.796   9.803  17.290  0.00  0.00    +0.000 A 
ATOM     25  C   UNL     1      -3.183   9.888  17.148  0.00  0.00    +0.000 A 
ATOM     26  C   UNL     1      -3.890  10.830  17.890  0.00  0.00    +0.000 A 
ATOM     27  C   UNL     1      -3.235  11.685  18.771  0.00  0.00    +0.000 A 
ATOM     28  C   UNL     1      -1.850  11.601  18.917  0.00  0.00    +0.000 A 
BRANCH  26  29
ATOM     29  O   UNL     1      -5.242  10.957  17.778  0.00  0.00    +0.000 OA
ATOM     30  H   UNL     1      -5.652  10.679  18.614  0.00  0.00    +0.000 HD
ENDBRANCH  26  29
ENDBRANCH  20  23
ENDBRANCH  18  21
ENDBRANCH   1  18
TORSDOF 7
ENDMDL
MODEL 8
REMARK VINA RESULT:      -7.7      3.488      5.368
REMARK  Name = 
REMARK  7 active torsions:
REMARK  status: ('A' for Active; 'I' for Inactive)
REMARK    1  A    between atoms: C_2  and  C_21
REMARK    2  A    between atoms: N_3  and  C_4
REMARK    3  A    between atoms: C_4  and  C_5
REMARK    4  A    between atoms: C_9  and  C_10
REMARK    5  A    between atoms: N_12  and  C_13
REMARK    6  A    between atoms: C_13  and  C_14
REMARK    7  A    between atoms: C_24  and  O_25
REMARK                            x       y       z     vdW  Elec       q    Type
REMARK                         _______ _______ _______ _____ _____    ______ ____
ROOT
ATOM      1  C   UNL     1      -0.042  10.819  20.351  0.00  0.00    +0.000 A 
ATOM      2  C   UNL     1      -0.128  10.181  21.597  0.00  0.00    +0.000 A 
ATOM      3  C   UNL     1       0.521   8.965  21.812  0.00  0.00    +0.000 A 
ATOM      4  C   UNL     1       1.252   8.373  20.782  0.00  0.00    +0.000 A 
ATOM      5  C   UNL     1       1.324   8.983  19.522  0.00  0.00    +0.000 A 
ATOM      6  C   UNL     1       0.677  10.205  19.310  0.00  0.00    +0.000 A 
ENDROOT
BRANCH   5   7
ATOM      7  C   UNL     1       2.138   8.313  18.470  0.00  0.00    +0.000 C 
ATOM      8  O   UNL     1       2.291   8.864  17.384  0.00  0.00    +0.000 OA
ATOM      9  N   UNL     1       2.709   7.103  18.791  0.00  0.00    +0.000 N 
ATOM     10  H   UNL     1       2.609   6.718  19.720  0.00  0.00    +0.000 HD
BRANCH   9  11
ATOM     11  C   UNL     1       3.508   6.363  17.840  0.00  0.00    +0.000 C 
BRANCH  11  12
ATOM     12  C   UNL     1       3.114   4.910  17.838  0.00  0.00    +0.000 A 
ATOM     13  C   UNL     1       1.798   4.538  18.146  0.00  0.00    +0.000 A 
ATOM     14  C   UNL     1       1.437   3.190  18.199  0.00  0.00    +0.000 A 
ATOM     15  C   UNL     1       2.389   2.203  17.949  0.00  0.00    +0.000 A 
ATOM     16  C   UNL     1       3.699   2.563  17.636  0.00  0.00    +0.000 A 
ATOM     17  C   UNL     1       4.062   3.909  17.583  0.00  0.00    +0.000 A 
ENDBRANCH  11  12
ENDBRANCH   9  11
ENDBRANCH   5   7
BRANCH   1  18
ATOM     18  C   UNL     1      -0.721  12.143  20.120  0.00  0.00    +0.000 C 
BRANCH  18  21
ATOM     19  O   UNL     1      -3.477  12.340  19.501  0.00  0.00    +0.000 OA
ATOM     20  C   UNL     1      -3.105  12.446  20.664  0.00  0.00    +0.000 C 
ATOM     21  N   UNL     1      -1.791  12.357  21.066  0.00  0.00    +0.000 N 
ATOM     22  H   UNL     1      -1.588  12.199  22.043  0.00  0.00    +0.000 HD
BRANCH  20  23
ATOM     23  C   UNL     1      -4.098  12.659  21.750  0.00  0.00    +0.000 A 
ATOM     24  C   UNL     1      -5.429  12.926  21.405  0.00  0.00    +0.000 A 
ATOM     25  C   UNL     1      -6.378  13.159  22.403  0.00  0.00    +0.000 A 
ATOM     26  C   UNL     1      -5.985  13.132  23.738  0.00  0.00    +0.000 A 
ATOM     27  C   UNL     1      -4.665  12.876  24.092  0.00  0.00    +0.000 A 
ATOM     28  C   UNL     1      -3.715  12.641  23.097  0.00  0.00    +0.000 A 
BRANCH  26  29
ATOM     29  O   UNL     1      -6.873  13.363  24.746  0.00  0.00    +0.000 OA
ATOM     30  H   UNL     1      -7.750  13.048  24.469  0.00  0.00    +0.000 HD
ENDBRANCH  26  29
ENDBRANCH  20  23
ENDBRANCH  18  21
ENDBRANCH   1  18
TORSDOF 7
ENDMDL
MODEL 9
REMARK VINA RESULT:      -7.7      2.331      3.021
REMARK  Name = 
REMARK  7 active torsions:
REMARK  status: ('A' for Active; 'I' for Inactive)
REMARK    1  A    between atoms: C_2  and  C_21
REMARK    2  A    between atoms: N_3  and  C_4
REMARK    3  A    between atoms: C_4  and  C_5
REMARK    4  A    between atoms: C_9  and  C_10
REMARK    5  A    between atoms: N_12  and  C_13
REMARK    6  A    between atoms: C_13  and  C_14
REMARK    7  A    between atoms: C_24  and  O_25
REMARK                            x       y       z     vdW  Elec       q    Type
REMARK                         _______ _______ _______ _____ _____    ______ ____
ROOT
ATOM      1  C   UNL     1       2.246   7.172  19.722  0.00  0.00    +0.000 A 
ATOM      2  C   UNL     1       2.113   8.233  18.814  0.00  0.00    +0.000 A 
ATOM      3  C   UNL     1       2.812   8.220  17.607  0.00  0.00    +0.000 A 
ATOM      4  C   UNL     1       3.657   7.152  17.303  0.00  0.00    +0.000 A 
ATOM      5  C   UNL     1       3.824   6.098  18.211  0.00  0.00    +0.000 A 
ATOM      6  C   UNL     1       3.118   6.111  19.418  0.00  0.00    +0.000 A 
ENDROOT
BRANCH   5   7
ATOM      7  C   UNL     1       4.722   4.977  17.819  0.00  0.00    +0.000 C 
ATOM      8  O   UNL     1       4.913   4.055  18.605  0.00  0.00    +0.000 OA
ATOM      9  N   UNL     1       5.274   5.024  16.559  0.00  0.00    +0.000 N 
ATOM     10  H   UNL     1       5.037   5.771  15.921  0.00  0.00    +0.000 HD
BRANCH   9  11
ATOM     11  C   UNL     1       6.169   3.993  16.082  0.00  0.00    +0.000 C 
BRANCH  11  12
ATOM     12  C   UNL     1       6.485   4.202  14.625  0.00  0.00    +0.000 A 
ATOM     13  C   UNL     1       5.825   3.443  13.647  0.00  0.00    +0.000 A 
ATOM     14  C   UNL     1       6.150   3.591  12.298  0.00  0.00    +0.000 A 
ATOM     15  C   UNL     1       7.140   4.494  11.914  0.00  0.00    +0.000 A 
ATOM     16  C   UNL     1       7.799   5.257  12.877  0.00  0.00    +0.000 A 
ATOM     17  C   UNL     1       7.476   5.110  14.227  0.00  0.00    +0.000 A 
ENDBRANCH  11  12
ENDBRANCH   9  11
ENDBRANCH   5   7
BRANCH   1  18
ATOM     18  C   UNL     1       1.476   7.170  21.016  0.00  0.00    +0.000 C 
BRANCH  18  21
ATOM     19  O   UNL     1       1.727   9.401  22.740  0.00  0.00    +0.000 OA
ATOM     20  C   UNL     1       0.776   9.330  21.971  0.00  0.00    +0.000 C 
ATOM     21  N   UNL     1       0.571   8.292  21.090  0.00  0.00    +0.000 N 
ATOM     22  H   UNL     1      -0.076   8.420  20.325  0.00  0.00    +0.000 HD
BRANCH  20  23
ATOM     23  C   UNL     1      -0.234  10.419  21.930  0.00  0.00    +0.000 A 
ATOM     24  C   UNL     1      -0.979  10.694  23.084  0.00  0.00    +0.000 A 
ATOM     25  C   UNL     1      -1.956  11.693  23.066  0.00  0.00    +0.000 A 
ATOM     26  C   UNL     1      -2.186  12.402  21.891  0.00  0.00    +0.000 A 
ATOM     27  C   UNL     1      -1.458  12.132  20.737  0.00  0.00    +0.000 A 
ATOM     28  C   UNL     1      -0.481  11.136  20.752  0.00  0.00    +0.000 A 
BRANCH  26  29
ATOM     29  O   UNL     1      -3.134  13.378  21.822  0.00  0.00    +0.000 OA
ATOM     30  H   UNL     1      -3.442  13.452  20.903  0.00  0.00    +0.000 HD
ENDBRANCH  26  29
ENDBRANCH  20  23
ENDBRANCH  18  21
ENDBRANCH   1  18
TORSDOF 7
ENDMDL
