MODEL 1
REMARK VINA RESULT:      -7.8      0.000      0.000
REMARK  Name = 
REMARK  4 active torsions:
REMARK  status: ('A' for Active; 'I' for Inactive)
REMARK    1  A    between atoms: C_2  and  C_3
REMARK    2  A    between atoms: N_15  and  C_16
REMARK    3  A    between atoms: C_16  and  C_17
REMARK    4  A    between atoms: C_17  and  C_18
REMARK                            x       y       z     vdW  Elec       q    Type
REMARK                         _______ _______ _______ _____ _____    ______ ____
ROOT
ATOM      1  O   UNL     1       5.829   4.075  19.731  0.00  0.00    +0.000 OA
ATOM      2  C   UNL     1       5.175   4.023  18.683  0.00  0.00    +0.000 C 
ATOM      3  N   UNL     1       5.696   4.514  17.490  0.00  0.00    +0.000 N 
ATOM      4  C   UNL     1       4.988   4.571  16.207  0.00  0.00    +0.000 C 
ATOM      5  C   UNL     1       5.388   5.779  15.353  0.00  0.00    +0.000 C 
ATOM      6  N   UNL     1       6.841   5.906  15.129  0.00  0.00    +0.000 NA
ATOM      7  C   UNL     1       7.491   5.933  16.465  0.00  0.00    +0.000 C 
ATOM      8  C   UNL     1       7.142   4.749  17.397  0.00  0.00    +0.000 C 
ENDROOT
BRANCH   2   9
ATOM      9  C   UNL     1       3.767   3.491  18.747  0.00  0.00    +0.000 A 
ATOM     10  C   UNL     1       3.528   2.309  18.130  0.00  0.00    +0.000 A 
ATOM     11  C   UNL     1       2.230   1.652  18.192  0.00  0.00    +0.000 A 
ATOM     12  C   UNL     1       1.258   2.209  18.932  0.00  0.00    +0.000 A 
ATOM     13  N   UNL     1       1.495   3.428  19.558  0.00  0.00    +0.000 N 
ATOM     14  C   UNL     1       0.700   4.141  20.419  0.00  0.00    +0.000 A 
ATOM     15  C   UNL     1       1.398   5.286  20.708  0.00  0.00    +0.000 A 
ATOM     16  N   UNL     1       2.583   5.317  20.024  0.00  0.00    +0.000 NA
ATOM     17  C   UNL     1       2.686   4.143  19.427  0.00  0.00    +0.000 A 
ENDBRANCH   2   9
BRANCH   6  18
ATOM     18  C   UNL     1       7.396   4.824  14.290  0.00  0.00    +0.000 C 
BRANCH  18  19
ATOM     19  C   UNL     1       7.071   4.965  12.791  0.00  0.00    +0.000 C 
BRANCH  19  20
ATOM     20  C   UNL     1       6.762   3.631  12.160  0.00  0.00    +0.000 A 
ATOM     21  C   UNL     1       7.783   2.841  11.619  0.00  0.00    +0.000 A 
ATOM     22  C   UNL     1       7.479   1.604  11.047  0.00  0.00    +0.000 A 
ATOM     23  C   UNL     1       6.160   1.161  11.018  0.00  0.00    +0.000 A 
ATOM     24  F   UNL     1       5.884  -0.030  10.471  0.00  0.00    +0.000 F 
ATOM     25  C   UNL     1       5.137   1.925  11.554  0.00  0.00    +0.000 A 
ATOM     26  C   UNL     1       5.444   3.155  12.122  0.00  0.00    +0.000 A 
ATOM     27  F   UNL     1       4.453   3.895  12.637  0.00  0.00    +0.000 F 
ENDBRANCH  19  20
ENDBRANCH  18  19
ENDBRANCH   6  18
TORSDOF 4
ENDMDL
MODEL 2
REMARK VINA RESULT:      -7.7      5.867      9.072
REMARK  Name = 
REMARK  4 active torsions:
REMARK  status: ('A' for Active; 'I' for Inactive)
REMARK    1  A    between atoms: C_2  and  C_3
REMARK    2  A    between atoms: N_15  and  C_16
REMARK    3  A    between atoms: C_16  and  C_17
REMARK    4  A    between atoms: C_17  and  C_18
REMARK                            x       y       z     vdW  Elec       q    Type
REMARK                         _______ _______ _______ _____ _____    ______ ____
ROOT
ATOM      1  O   UNL     1       3.779   7.727  16.656  0.00  0.00    +0.000 OA
ATOM      2  C   UNL     1       3.273   7.308  17.703  0.00  0.00    +0.000 C 
ATOM      3  N   UNL     1       2.413   8.106  18.452  0.00  0.00    +0.000 N 
ATOM      4  C   UNL     1       1.814   7.742  19.739  0.00  0.00    +0.000 C 
ATOM      5  C   UNL     1       1.623   8.942  20.674  0.00  0.00    +0.000 C 
ATOM      6  N   UNL     1       0.876  10.063  20.072  0.00  0.00    +0.000 NA
ATOM      7  C   UNL     1       1.584  10.442  18.822  0.00  0.00    +0.000 C 
ATOM      8  C   UNL     1       1.821   9.290  17.818  0.00  0.00    +0.000 C 
ENDROOT
BRANCH   2   9
ATOM      9  C   UNL     1       3.675   5.940  18.191  0.00  0.00    +0.000 A 
ATOM     10  C   UNL     1       4.942   5.801  18.650  0.00  0.00    +0.000 A 
ATOM     11  C   UNL     1       5.423   4.551  19.224  0.00  0.00    +0.000 A 
ATOM     12  C   UNL     1       4.566   3.526  19.352  0.00  0.00    +0.000 A 
ATOM     13  N   UNL     1       3.268   3.662  18.872  0.00  0.00    +0.000 N 
ATOM     14  C   UNL     1       2.205   2.799  18.961  0.00  0.00    +0.000 A 
ATOM     15  C   UNL     1       1.175   3.407  18.290  0.00  0.00    +0.000 A 
ATOM     16  N   UNL     1       1.581   4.601  17.759  0.00  0.00    +0.000 NA
ATOM     17  C   UNL     1       2.805   4.801  18.213  0.00  0.00    +0.000 A 
ENDBRANCH   2   9
BRANCH   6  18
ATOM     18  C   UNL     1      -0.541   9.740  19.805  0.00  0.00    +0.000 C 
BRANCH  18  19
ATOM     19  C   UNL     1      -1.415  10.969  19.495  0.00  0.00    +0.000 C 
BRANCH  19  20
ATOM     20  C   UNL     1      -2.189  10.794  18.213  0.00  0.00    +0.000 A 
ATOM     21  C   UNL     1      -1.712   9.958  17.197  0.00  0.00    +0.000 A 
ATOM     22  C   UNL     1      -2.448   9.800  16.021  0.00  0.00    +0.000 A 
ATOM     23  C   UNL     1      -3.654  10.475  15.863  0.00  0.00    +0.000 A 
ATOM     24  F   UNL     1      -4.352  10.310  14.732  0.00  0.00    +0.000 F 
ATOM     25  C   UNL     1      -4.147  11.301  16.860  0.00  0.00    +0.000 A 
ATOM     26  C   UNL     1      -3.411  11.455  18.029  0.00  0.00    +0.000 A 
ATOM     27  F   UNL     1      -3.887  12.258  18.991  0.00  0.00    +0.000 F 
ENDBRANCH  19  20
ENDBRANCH  18  19
ENDBRANCH   6  18
TORSDOF 4
ENDMDL
MODEL 3
REMARK VINA RESULT:      -7.6      0.791      1.799
REMARK  Name = 
REMARK  4 active torsions:
REMARK  status: ('A' for Active; 'I' for Inactive)
REMARK    1  A    between atoms: C_2  and  C_3
REMARK    2  A    between atoms: N_15  and  C_16
REMARK    3  A    between atoms: C_16  and  C_17
REMARK    4  A    between atoms: C_17  and  C_18
REMARK                            x       y       z     vdW  Elec       q    Type
REMARK                         _______ _______ _______ _____ _____    ______ ____
ROOT
ATOM      1  O   UNL     1       6.141   4.985  20.115  0.00  0.00    +0.000 OA
ATOM      2  C   UNL     1       5.327   4.901  19.188  0.00  0.00    +0.000 C 
ATOM      3  N   UNL     1       5.714   5.136  17.872  0.00  0.00    +0.000 N 
ATOM      4  C   UNL     1       4.825   5.134  16.706  0.00  0.00    +0.000 C 
ATOM      5  C   UNL     1       5.249   6.135  15.626  0.00  0.00    +0.000 C 
ATOM      6  N   UNL     1       6.650   5.993  15.187  0.00  0.00    +0.000 NA
ATOM      7  C   UNL     1       7.503   6.092  16.400  0.00  0.00    +0.000 C 
ATOM      8  C   UNL     1       7.145   5.117  17.545  0.00  0.00    +0.000 C 
ENDROOT
BRANCH   2   9
ATOM      9  C   UNL     1       3.887   4.618  19.528  0.00  0.00    +0.000 A 
ATOM     10  C   UNL     1       3.191   5.614  20.128  0.00  0.00    +0.000 A 
ATOM     11  C   UNL     1       1.771   5.492  20.431  0.00  0.00    +0.000 A 
ATOM     12  C   UNL     1       1.122   4.379  20.051  0.00  0.00    +0.000 A 
ATOM     13  N   UNL     1       1.836   3.351  19.445  0.00  0.00    +0.000 N 
ATOM     14  C   UNL     1       1.386   2.173  18.904  0.00  0.00    +0.000 A 
ATOM     15  C   UNL     1       2.508   1.509  18.473  0.00  0.00    +0.000 A 
ATOM     16  N   UNL     1       3.636   2.226  18.766  0.00  0.00    +0.000 NA
ATOM     17  C   UNL     1       3.216   3.384  19.243  0.00  0.00    +0.000 A 
ENDBRANCH   2   9
BRANCH   6  18
ATOM     18  C   UNL     1       6.906   4.732  14.460  0.00  0.00    +0.000 C 
BRANCH  18  19
ATOM     19  C   UNL     1       6.931   4.887  12.928  0.00  0.00    +0.000 C 
BRANCH  19  20
ATOM     20  C   UNL     1       6.672   3.575  12.231  0.00  0.00    +0.000 A 
ATOM     21  C   UNL     1       7.732   2.804  11.739  0.00  0.00    +0.000 A 
ATOM     22  C   UNL     1       7.473   1.588  11.105  0.00  0.00    +0.000 A 
ATOM     23  C   UNL     1       6.161   1.145  10.965  0.00  0.00    +0.000 A 
ATOM     24  F   UNL     1       5.929  -0.027  10.360  0.00  0.00    +0.000 F 
ATOM     25  C   UNL     1       5.100   1.890  11.452  0.00  0.00    +0.000 A 
ATOM     26  C   UNL     1       5.362   3.100  12.082  0.00  0.00    +0.000 A 
ATOM     27  F   UNL     1       4.333   3.822  12.548  0.00  0.00    +0.000 F 
ENDBRANCH  19  20
ENDBRANCH  18  19
ENDBRANCH   6  18
TORSDOF 4
ENDMDL
MODEL 4
REMARK VINA RESULT:      -7.2      5.445      8.346
REMARK  Name = 
REMARK  4 active torsions:
REMARK  status: ('A' for Active; 'I' for Inactive)
REMARK    1  A    between atoms: C_2  and  C_3
REMARK    2  A    between atoms: N_15  and  C_16
REMARK    3  A    between atoms: C_16  and  C_17
REMARK    4  A    between atoms: C_17  and  C_18
REMARK                            x       y       z     vdW  Elec       q    Type
REMARK                         _______ _______ _______ _____ _____    ______ ____
ROOT
ATOM      1  O   UNL     1       0.954   9.190  21.237  0.00  0.00    +0.000 OA
ATOM      2  C   UNL     1       1.046   9.249  20.005  0.00  0.00    +0.000 C 
ATOM      3  N   UNL     1       1.806   8.322  19.299  0.00  0.00    +0.000 N 
ATOM      4  C   UNL     1       2.044   8.337  17.853  0.00  0.00    +0.000 C 
ATOM      5  C   UNL     1       3.427   7.801  17.466  0.00  0.00    +0.000 C 
ATOM      6  N   UNL     1       3.730   6.464  18.011  0.00  0.00    +0.000 NA
ATOM      7  C   UNL     1       3.558   6.540  19.484  0.00  0.00    +0.000 C 
ATOM      8  C   UNL     1       2.188   7.072  19.966  0.00  0.00    +0.000 C 
ENDROOT
BRANCH   2   9
ATOM      9  C   UNL     1       0.381  10.401  19.296  0.00  0.00    +0.000 A 
ATOM     10  C   UNL     1      -0.792  10.141  18.669  0.00  0.00    +0.000 A 
ATOM     11  C   UNL     1      -1.570  11.188  18.020  0.00  0.00    +0.000 A 
ATOM     12  C   UNL     1      -1.137  12.457  18.096  0.00  0.00    +0.000 A 
ATOM     13  N   UNL     1       0.072  12.725  18.729  0.00  0.00    +0.000 N 
ATOM     14  C   UNL     1       0.670  13.930  19.001  0.00  0.00    +0.000 A 
ATOM     15  C   UNL     1       1.863  13.624  19.607  0.00  0.00    +0.000 A 
ATOM     16  N   UNL     1       2.033  12.268  19.683  0.00  0.00    +0.000 NA
ATOM     17  C   UNL     1       0.900  11.736  19.261  0.00  0.00    +0.000 A 
ENDBRANCH   2   9
BRANCH   6  18
ATOM     18  C   UNL     1       2.890   5.396  17.431  0.00  0.00    +0.000 C 
BRANCH  18  19
ATOM     19  C   UNL     1       3.330   3.972  17.818  0.00  0.00    +0.000 C 
BRANCH  19  20
ATOM     20  C   UNL     1       2.681   3.517  19.100  0.00  0.00    +0.000 A 
ATOM     21  C   UNL     1       1.303   3.663  19.296  0.00  0.00    +0.000 A 
ATOM     22  C   UNL     1       0.718   3.227  20.486  0.00  0.00    +0.000 A 
ATOM     23  C   UNL     1       1.508   2.646  21.474  0.00  0.00    +0.000 A 
ATOM     24  F   UNL     1       0.932   2.227  22.608  0.00  0.00    +0.000 F 
ATOM     25  C   UNL     1       2.872   2.486  21.295  0.00  0.00    +0.000 A 
ATOM     26  C   UNL     1       3.450   2.922  20.110  0.00  0.00    +0.000 A 
ATOM     27  F   UNL     1       4.771   2.770  19.941  0.00  0.00    +0.000 F 
ENDBRANCH  19  20
ENDBRANCH  18  19
ENDBRANCH   6  18
TORSDOF 4
ENDMDL
MODEL 5
REMARK VINA RESULT:      -7.2      5.436      8.413
REMARK  Name = 
REMARK  4 active torsions:
REMARK  status: ('A' for Active; 'I' for Inactive)
REMARK    1  A    between atoms: C_2  and  C_3
REMARK    2  A    between atoms: N_15  and  C_16
REMARK    3  A    between atoms: C_16  and  C_17
REMARK    4  A    between atoms: C_17  and  C_18
REMARK                            x       y       z     vdW  Elec       q    Type
REMARK                         _______ _______ _______ _____ _____    ______ ____
ROOT
ATOM      1  O   UNL     1       0.865   9.481  21.449  0.00  0.00    +0.000 OA
ATOM      2  C   UNL     1       0.935   9.568  20.218  0.00  0.00    +0.000 C 
ATOM      3  N   UNL     1       1.635   8.625  19.473  0.00  0.00    +0.000 N 
ATOM      4  C   UNL     1       1.845   8.666  18.022  0.00  0.00    +0.000 C 
ATOM      5  C   UNL     1       3.192   8.075  17.593  0.00  0.00    +0.000 C 
ATOM      6  N   UNL     1       3.442   6.711  18.097  0.00  0.00    +0.000 NA
ATOM      7  C   UNL     1       3.303   6.757  19.575  0.00  0.00    +0.000 C 
ATOM      8  C   UNL     1       1.970   7.341  20.099  0.00  0.00    +0.000 C 
ENDROOT
BRANCH   2   9
ATOM      9  C   UNL     1       0.313  10.768  19.553  0.00  0.00    +0.000 A 
ATOM     10  C   UNL     1       0.974  11.946  19.667  0.00  0.00    +0.000 A 
ATOM     11  C   UNL     1       0.517  13.157  18.999  0.00  0.00    +0.000 A 
ATOM     12  C   UNL     1      -0.560  13.089  18.201  0.00  0.00    +0.000 A 
ATOM     13  N   UNL     1      -1.247  11.885  18.090  0.00  0.00    +0.000 N 
ATOM     14  C   UNL     1      -2.309  11.552  17.286  0.00  0.00    +0.000 A 
ATOM     15  C   UNL     1      -2.620  10.253  17.600  0.00  0.00    +0.000 A 
ATOM     16  N   UNL     1      -1.806   9.788  18.596  0.00  0.00    +0.000 NA
ATOM     17  C   UNL     1      -0.909  10.734  18.803  0.00  0.00    +0.000 A 
ENDBRANCH   2   9
BRANCH   6  18
ATOM     18  C   UNL     1       2.539   5.700  17.508  0.00  0.00    +0.000 C 
BRANCH  18  19
ATOM     19  C   UNL     1       3.005   4.248  17.717  0.00  0.00    +0.000 C 
BRANCH  19  20
ATOM     20  C   UNL     1       2.495   3.680  19.018  0.00  0.00    +0.000 A 
ATOM     21  C   UNL     1       1.124   3.652  19.299  0.00  0.00    +0.000 A 
ATOM     22  C   UNL     1       0.670   3.114  20.505  0.00  0.00    +0.000 A 
ATOM     23  C   UNL     1       1.584   2.607  21.423  0.00  0.00    +0.000 A 
ATOM     24  F   UNL     1       1.134   2.089  22.573  0.00  0.00    +0.000 F 
ATOM     25  C   UNL     1       2.944   2.619  21.161  0.00  0.00    +0.000 A 
ATOM     26  C   UNL     1       3.391   3.155  19.959  0.00  0.00    +0.000 A 
ATOM     27  F   UNL     1       4.707   3.171  19.709  0.00  0.00    +0.000 F 
ENDBRANCH  19  20
ENDBRANCH  18  19
ENDBRANCH   6  18
TORSDOF 4
ENDMDL
MODEL 6
REMARK VINA RESULT:      -7.1      7.161     11.877
REMARK  Name = 
REMARK  4 active torsions:
REMARK  status: ('A' for Active; 'I' for Inactive)
REMARK    1  A    between atoms: C_2  and  C_3
REMARK    2  A    between atoms: N_15  and  C_16
REMARK    3  A    between atoms: C_16  and  C_17
REMARK    4  A    between atoms: C_17  and  C_18
REMARK                            x       y       z     vdW  Elec       q    Type
REMARK                         _______ _______ _______ _____ _____    ______ ____
ROOT
ATOM      1  O   UNL     1       2.384   7.764  18.124  0.00  0.00    +0.000 OA
ATOM      2  C   UNL     1       2.066   7.449  19.276  0.00  0.00    +0.000 C 
ATOM      3  N   UNL     1       1.537   8.388  20.155  0.00  0.00    +0.000 N 
ATOM      4  C   UNL     1       1.193   8.147  21.560  0.00  0.00    +0.000 C 
ATOM      5  C   UNL     1       1.413   9.373  22.452  0.00  0.00    +0.000 C 
ATOM      6  N   UNL     1       0.739  10.596  21.974  0.00  0.00    +0.000 NA
ATOM      7  C   UNL     1       1.197  10.835  20.581  0.00  0.00    +0.000 C 
ATOM      8  C   UNL     1       1.014   9.646  19.609  0.00  0.00    +0.000 C 
ENDROOT
BRANCH   2   9
ATOM      9  C   UNL     1       2.345   6.039  19.731  0.00  0.00    +0.000 A 
ATOM     10  C   UNL     1       1.342   5.392  20.373  0.00  0.00    +0.000 A 
ATOM     11  C   UNL     1       1.461   4.001  20.787  0.00  0.00    +0.000 A 
ATOM     12  C   UNL     1       2.577   3.325  20.472  0.00  0.00    +0.000 A 
ATOM     13  N   UNL     1       3.613   3.989  19.823  0.00  0.00    +0.000 N 
ATOM     14  C   UNL     1       4.797   3.500  19.333  0.00  0.00    +0.000 A 
ATOM     15  C   UNL     1       5.465   4.585  18.824  0.00  0.00    +0.000 A 
ATOM     16  N   UNL     1       4.745   5.731  19.018  0.00  0.00    +0.000 NA
ATOM     17  C   UNL     1       3.582   5.349  19.514  0.00  0.00    +0.000 A 
ENDBRANCH   2   9
BRANCH   6  18
ATOM     18  C   UNL     1      -0.735  10.511  22.042  0.00  0.00    +0.000 C 
BRANCH  18  19
ATOM     19  C   UNL     1      -1.460  11.749  21.484  0.00  0.00    +0.000 C 
BRANCH  19  20
ATOM     20  C   UNL     1      -1.946  12.655  22.587  0.00  0.00    +0.000 A 
ATOM     21  C   UNL     1      -3.211  12.472  23.158  0.00  0.00    +0.000 A 
ATOM     22  C   UNL     1      -3.640  13.314  24.185  0.00  0.00    +0.000 A 
ATOM     23  C   UNL     1      -2.808  14.333  24.638  0.00  0.00    +0.000 A 
ATOM     24  F   UNL     1      -3.231  15.130  25.628  0.00  0.00    +0.000 F 
ATOM     25  C   UNL     1      -1.551  14.526  24.090  0.00  0.00    +0.000 A 
ATOM     26  C   UNL     1      -1.128  13.685  23.069  0.00  0.00    +0.000 A 
ATOM     27  F   UNL     1       0.088  13.876  22.537  0.00  0.00    +0.000 F 
ENDBRANCH  19  20
ENDBRANCH  18  19
ENDBRANCH   6  18
TORSDOF 4
ENDMDL
MODEL 7
REMARK VINA RESULT:      -7.1      7.022     11.672
REMARK  Name = 
REMARK  4 active torsions:
REMARK  status: ('A' for Active; 'I' for Inactive)
REMARK    1  A    between atoms: C_2  and  C_3
REMARK    2  A    between atoms: N_15  and  C_16
REMARK    3  A    between atoms: C_16  and  C_17
REMARK    4  A    between atoms: C_17  and  C_18
REMARK                            x       y       z     vdW  Elec       q    Type
REMARK                         _______ _______ _______ _____ _____    ______ ____
ROOT
ATOM      1  O   UNL     1       2.502   7.822  18.090  0.00  0.00    +0.000 OA
ATOM      2  C   UNL     1       2.117   7.517  19.225  0.00  0.00    +0.000 C 
ATOM      3  N   UNL     1       1.558   8.469  20.071  0.00  0.00    +0.000 N 
ATOM      4  C   UNL     1       1.136   8.239  21.456  0.00  0.00    +0.000 C 
ATOM      5  C   UNL     1       1.328   9.466  22.355  0.00  0.00    +0.000 C 
ATOM      6  N   UNL     1       0.702  10.697  21.838  0.00  0.00    +0.000 NA
ATOM      7  C   UNL     1       1.239  10.923  20.471  0.00  0.00    +0.000 C 
ATOM      8  C   UNL     1       1.087   9.733  19.494  0.00  0.00    +0.000 C 
ENDROOT
BRANCH   2   9
ATOM      9  C   UNL     1       2.346   6.105  19.699  0.00  0.00    +0.000 A 
ATOM     10  C   UNL     1       1.316   5.495  20.334  0.00  0.00    +0.000 A 
ATOM     11  C   UNL     1       1.386   4.106  20.764  0.00  0.00    +0.000 A 
ATOM     12  C   UNL     1       2.486   3.392  20.472  0.00  0.00    +0.000 A 
ATOM     13  N   UNL     1       3.549   4.018  19.830  0.00  0.00    +0.000 N 
ATOM     14  C   UNL     1       4.725   3.487  19.361  0.00  0.00    +0.000 A 
ATOM     15  C   UNL     1       5.433   4.545  18.849  0.00  0.00    +0.000 A 
ATOM     16  N   UNL     1       4.745   5.715  19.022  0.00  0.00    +0.000 NA
ATOM     17  C   UNL     1       3.565   5.375  19.506  0.00  0.00    +0.000 A 
ENDBRANCH   2   9
BRANCH   6  18
ATOM     18  C   UNL     1      -0.774  10.638  21.827  0.00  0.00    +0.000 C 
BRANCH  18  19
ATOM     19  C   UNL     1      -1.447  11.904  21.265  0.00  0.00    +0.000 C 
BRANCH  19  20
ATOM     20  C   UNL     1      -2.678  12.277  22.053  0.00  0.00    +0.000 A 
ATOM     21  C   UNL     1      -2.710  12.127  23.445  0.00  0.00    +0.000 A 
ATOM     22  C   UNL     1      -3.855  12.487  24.158  0.00  0.00    +0.000 A 
ATOM     23  C   UNL     1      -4.961  12.994  23.482  0.00  0.00    +0.000 A 
ATOM     24  F   UNL     1      -6.050  13.340  24.180  0.00  0.00    +0.000 F 
ATOM     25  C   UNL     1      -4.946  13.156  22.107  0.00  0.00    +0.000 A 
ATOM     26  C   UNL     1      -3.804  12.797  21.401  0.00  0.00    +0.000 A 
ATOM     27  F   UNL     1      -3.793  12.950  20.070  0.00  0.00    +0.000 F 
ENDBRANCH  19  20
ENDBRANCH  18  19
ENDBRANCH   6  18
TORSDOF 4
ENDMDL
MODEL 8
REMARK VINA RESULT:      -7.0      5.357      8.189
REMARK  Name = 
REMARK  4 active torsions:
REMARK  status: ('A' for Active; 'I' for Inactive)
REMARK    1  A    between atoms: C_2  and  C_3
REMARK    2  A    between atoms: N_15  and  C_16
REMARK    3  A    between atoms: C_16  and  C_17
REMARK    4  A    between atoms: C_17  and  C_18
REMARK                            x       y       z     vdW  Elec       q    Type
REMARK                         _______ _______ _______ _____ _____    ______ ____
ROOT
ATOM      1  O   UNL     1       0.848   9.090  21.151  0.00  0.00    +0.000 OA
ATOM      2  C   UNL     1       0.978   9.159  19.923  0.00  0.00    +0.000 C 
ATOM      3  N   UNL     1       1.806   8.274  19.240  0.00  0.00    +0.000 N 
ATOM      4  C   UNL     1       2.092   8.306  17.803  0.00  0.00    +0.000 C 
ATOM      5  C   UNL     1       3.512   7.842  17.461  0.00  0.00    +0.000 C 
ATOM      6  N   UNL     1       3.864   6.520  18.013  0.00  0.00    +0.000 NA
ATOM      7  C   UNL     1       3.639   6.581  19.480  0.00  0.00    +0.000 C 
ATOM      8  C   UNL     1       2.229   7.042  19.917  0.00  0.00    +0.000 C 
ENDROOT
BRANCH   2   9
ATOM      9  C   UNL     1       0.280  10.278  19.195  0.00  0.00    +0.000 A 
ATOM     10  C   UNL     1      -0.942  10.006  18.676  0.00  0.00    +0.000 A 
ATOM     11  C   UNL     1      -1.750  11.027  18.023  0.00  0.00    +0.000 A 
ATOM     12  C   UNL     1      -1.292  12.288  17.985  0.00  0.00    +0.000 A 
ATOM     13  N   UNL     1      -0.033  12.569  18.507  0.00  0.00    +0.000 N 
ATOM     14  C   UNL     1       0.605  13.775  18.655  0.00  0.00    +0.000 A 
ATOM     15  C   UNL     1       1.835  13.481  19.187  0.00  0.00    +0.000 A 
ATOM     16  N   UNL     1       1.987  12.130  19.336  0.00  0.00    +0.000 NA
ATOM     17  C   UNL     1       0.817  11.598  19.035  0.00  0.00    +0.000 A 
ENDBRANCH   2   9
BRANCH   6  18
ATOM     18  C   UNL     1       3.098   5.413  17.403  0.00  0.00    +0.000 C 
BRANCH  18  19
ATOM     19  C   UNL     1       3.571   4.012  17.833  0.00  0.00    +0.000 C 
BRANCH  19  20
ATOM     20  C   UNL     1       2.838   3.529  19.059  0.00  0.00    +0.000 A 
ATOM     21  C   UNL     1       3.541   3.129  20.202  0.00  0.00    +0.000 A 
ATOM     22  C   UNL     1       2.845   2.693  21.331  0.00  0.00    +0.000 A 
ATOM     23  C   UNL     1       1.454   2.658  21.316  0.00  0.00    +0.000 A 
ATOM     24  F   UNL     1       0.799   2.243  22.408  0.00  0.00    +0.000 F 
ATOM     25  C   UNL     1       0.741   3.056  20.197  0.00  0.00    +0.000 A 
ATOM     26  C   UNL     1       1.437   3.490  19.076  0.00  0.00    +0.000 A 
ATOM     27  F   UNL     1       0.746   3.870  17.993  0.00  0.00    +0.000 F 
ENDBRANCH  19  20
ENDBRANCH  18  19
ENDBRANCH   6  18
TORSDOF 4
ENDMDL
MODEL 9
REMARK VINA RESULT:      -7.0      4.445      6.847
REMARK  Name = 
REMARK  4 active torsions:
REMARK  status: ('A' for Active; 'I' for Inactive)
REMARK    1  A    between atoms: C_2  and  C_3
REMARK    2  A    between atoms: N_15  and  C_16
REMARK    3  A    between atoms: C_16  and  C_17
REMARK    4  A    between atoms: C_17  and  C_18
REMARK                            x       y       z     vdW  Elec       q    Type
REMARK                         _______ _______ _______ _____ _____    ______ ____
ROOT
ATOM      1  O   UNL     1       1.177  10.043  18.467  0.00  0.00    +0.000 OA
ATOM      2  C   UNL     1       1.189   9.282  19.441  0.00  0.00    +0.000 C 
ATOM      3  N   UNL     1       1.812   8.040  19.371  0.00  0.00    +0.000 N 
ATOM      4  C   UNL     1       1.828   7.031  20.434  0.00  0.00    +0.000 C 
ATOM      5  C   UNL     1       1.827   5.594  19.900  0.00  0.00    +0.000 C 
ATOM      6  N   UNL     1       2.897   5.312  18.925  0.00  0.00    +0.000 NA
ATOM      7  C   UNL     1       2.770   6.310  17.831  0.00  0.00    +0.000 C 
ATOM      8  C   UNL     1       2.762   7.790  18.281  0.00  0.00    +0.000 C 
ENDROOT
BRANCH   2   9
ATOM      9  C   UNL     1       0.441   9.700  20.681  0.00  0.00    +0.000 A 
ATOM     10  C   UNL     1       0.800   9.105  21.844  0.00  0.00    +0.000 A 
ATOM     11  C   UNL     1       0.209   9.484  23.120  0.00  0.00    +0.000 A 
ATOM     12  C   UNL     1      -0.678  10.492  23.149  0.00  0.00    +0.000 A 
ATOM     13  N   UNL     1      -1.057  11.097  21.956  0.00  0.00    +0.000 N 
ATOM     14  C   UNL     1      -1.870  12.182  21.742  0.00  0.00    +0.000 A 
ATOM     15  C   UNL     1      -1.937  12.333  20.380  0.00  0.00    +0.000 A 
ATOM     16  N   UNL     1      -1.221  11.353  19.748  0.00  0.00    +0.000 NA
ATOM     17  C   UNL     1      -0.600  10.685  20.703  0.00  0.00    +0.000 A 
ENDBRANCH   2   9
BRANCH   6  18
ATOM     18  C   UNL     1       4.249   5.344  19.520  0.00  0.00    +0.000 C 
BRANCH  18  19
ATOM     19  C   UNL     1       5.155   4.178  19.082  0.00  0.00    +0.000 C 
BRANCH  19  20
ATOM     20  C   UNL     1       5.728   4.404  17.706  0.00  0.00    +0.000 A 
ATOM     21  C   UNL     1       5.137   3.821  16.580  0.00  0.00    +0.000 A 
ATOM     22  C   UNL     1       5.676   4.049  15.312  0.00  0.00    +0.000 A 
ATOM     23  C   UNL     1       6.800   4.858  15.174  0.00  0.00    +0.000 A 
ATOM     24  F   UNL     1       7.303   5.073  13.951  0.00  0.00    +0.000 F 
ATOM     25  C   UNL     1       7.395   5.450  16.276  0.00  0.00    +0.000 A 
ATOM     26  C   UNL     1       6.855   5.220  17.535  0.00  0.00    +0.000 A 
ATOM     27  F   UNL     1       7.434   5.790  18.600  0.00  0.00    +0.000 F 
ENDBRANCH  19  20
ENDBRANCH  18  19
ENDBRANCH   6  18
TORSDOF 4
ENDMDL
