MODEL 1
REMARK VINA RESULT:      -6.6      0.000      0.000
REMARK  Name = 
REMARK  9 active torsions:
REMARK  status: ('A' for Active; 'I' for Inactive)
REMARK    1  A    between atoms: C_2  and  C_3
REMARK    2  A    between atoms: C_5  and  C_6
REMARK    3  A    between atoms: C_9  and  N_10
REMARK    4  A    between atoms: N_17  and  C_18
REMARK    5  A    between atoms: N_17  and  C_21
REMARK    6  A    between atoms: C_18  and  C_19
REMARK    7  A    between atoms: C_19  and  O_20
REMARK    8  A    between atoms: C_21  and  C_22
REMARK    9  A    between atoms: C_22  and  O_23
REMARK                            x       y       z     vdW  Elec       q    Type
REMARK                         _______ _______ _______ _____ _____    ______ ____
ROOT
ATOM      1  C   UNL     1       3.584   5.235  18.394  0.00  0.00    +0.000 A 
ATOM      2  C   UNL     1       2.940   6.496  18.277  0.00  0.00    +0.000 A 
ATOM      3  C   UNL     1       2.487   6.826  19.538  0.00  0.00    +0.000 A 
ATOM      4  N   UNL     1       2.921   5.798  20.333  0.00  0.00    +0.000 N 
ATOM      5  N   UNL     1       3.562   4.818  19.673  0.00  0.00    +0.000 NA
ATOM      6  H   UNL     1       2.818   5.706  21.337  0.00  0.00    +0.000 HD
ENDROOT
BRANCH   3   7
ATOM      7  C   UNL     1       1.752   7.995  20.017  0.00  0.00    +0.000 A 
ATOM      8  C   UNL     1       1.463   9.080  19.177  0.00  0.00    +0.000 A 
ATOM      9  C   UNL     1       0.764  10.194  19.660  0.00  0.00    +0.000 A 
ATOM     10  C   UNL     1       0.348  10.224  20.997  0.00  0.00    +0.000 A 
ATOM     11  C   UNL     1       0.633   9.154  21.850  0.00  0.00    +0.000 A 
ATOM     12  C   UNL     1       1.333   8.050  21.357  0.00  0.00    +0.000 A 
BRANCH  10  13
ATOM     13  N   UNL     1      -0.391  11.385  21.507  0.00  0.00    +0.000 N 
ATOM     14  O   UNL     1      -1.034  12.061  20.694  0.00  0.00    +0.000 OA
ATOM     15  O   UNL     1      -0.317  11.625  22.721  0.00  0.00    +0.000 OA
ENDBRANCH  10  13
ENDBRANCH   3   7
BRANCH   1  17
ATOM     16  O   UNL     1       3.525   3.642  16.680  0.00  0.00    +0.000 OA
ATOM     17  C   UNL     1       4.190   4.498  17.263  0.00  0.00    +0.000 C 
ATOM     18  N   UNL     1       5.529   4.731  16.903  0.00  0.00    +0.000 N 
BRANCH  18  19
ATOM     19  C   UNL     1       6.086   3.919  15.807  0.00  0.00    +0.000 C 
BRANCH  19  20
ATOM     20  C   UNL     1       6.309   4.689  14.495  0.00  0.00    +0.000 C 
BRANCH  20  21
ATOM     21  O   UNL     1       7.609   5.272  14.459  0.00  0.00    +0.000 OA
ATOM     22  H   UNL     1       8.201   4.638  14.903  0.00  0.00    +0.000 HD
ENDBRANCH  20  21
ENDBRANCH  19  20
ENDBRANCH  18  19
BRANCH  18  23
ATOM     23  C   UNL     1       6.491   5.462  17.751  0.00  0.00    +0.000 C 
BRANCH  23  24
ATOM     24  C   UNL     1       6.618   6.956  17.418  0.00  0.00    +0.000 C 
BRANCH  24  25
ATOM     25  O   UNL     1       7.771   7.209  16.620  0.00  0.00    +0.000 OA
ATOM     26  H   UNL     1       7.448   7.518  15.755  0.00  0.00    +0.000 HD
ENDBRANCH  24  25
ENDBRANCH  23  24
ENDBRANCH  18  23
ENDBRANCH   1  17
TORSDOF 9
ENDMDL
MODEL 2
REMARK VINA RESULT:      -6.6      1.179      1.729
REMARK  Name = 
REMARK  9 active torsions:
REMARK  status: ('A' for Active; 'I' for Inactive)
REMARK    1  A    between atoms: C_2  and  C_3
REMARK    2  A    between atoms: C_5  and  C_6
REMARK    3  A    between atoms: C_9  and  N_10
REMARK    4  A    between atoms: N_17  and  C_18
REMARK    5  A    between atoms: N_17  and  C_21
REMARK    6  A    between atoms: C_18  and  C_19
REMARK    7  A    between atoms: C_19  and  O_20
REMARK    8  A    between atoms: C_21  and  C_22
REMARK    9  A    between atoms: C_22  and  O_23
REMARK                            x       y       z     vdW  Elec       q    Type
REMARK                         _______ _______ _______ _____ _____    ______ ____
ROOT
ATOM      1  C   UNL     1       3.952   5.550  18.212  0.00  0.00    +0.000 A 
ATOM      2  C   UNL     1       3.256   6.746  17.888  0.00  0.00    +0.000 A 
ATOM      3  C   UNL     1       2.644   7.174  19.048  0.00  0.00    +0.000 A 
ATOM      4  N   UNL     1       3.041   6.265  19.994  0.00  0.00    +0.000 N 
ATOM      5  N   UNL     1       3.807   5.269  19.519  0.00  0.00    +0.000 NA
ATOM      6  H   UNL     1       2.829   6.271  20.985  0.00  0.00    +0.000 HD
ENDROOT
BRANCH   3   7
ATOM      7  C   UNL     1       1.795   8.333  19.313  0.00  0.00    +0.000 A 
ATOM      8  C   UNL     1       1.190   8.533  20.563  0.00  0.00    +0.000 A 
ATOM      9  C   UNL     1       0.373   9.648  20.793  0.00  0.00    +0.000 A 
ATOM     10  C   UNL     1       0.158  10.573  19.764  0.00  0.00    +0.000 A 
ATOM     11  C   UNL     1       0.747  10.385  18.511  0.00  0.00    +0.000 A 
ATOM     12  C   UNL     1       1.558   9.269  18.293  0.00  0.00    +0.000 A 
BRANCH  10  13
ATOM     13  N   UNL     1      -0.691  11.746  20.001  0.00  0.00    +0.000 N 
ATOM     14  O   UNL     1      -0.139  12.798  20.347  0.00  0.00    +0.000 OA
ATOM     15  O   UNL     1      -1.915  11.609  19.851  0.00  0.00    +0.000 OA
ENDBRANCH  10  13
ENDBRANCH   3   7
BRANCH   1  17
ATOM     16  O   UNL     1       4.234   3.702  16.805  0.00  0.00    +0.000 OA
ATOM     17  C   UNL     1       4.723   4.744  17.242  0.00  0.00    +0.000 C 
ATOM     18  N   UNL     1       6.023   5.131  16.873  0.00  0.00    +0.000 N 
BRANCH  18  19
ATOM     19  C   UNL     1       6.757   4.249  15.949  0.00  0.00    +0.000 C 
BRANCH  19  20
ATOM     20  C   UNL     1       6.780   4.734  14.490  0.00  0.00    +0.000 C 
BRANCH  20  21
ATOM     21  O   UNL     1       7.905   5.576  14.249  0.00  0.00    +0.000 OA
ATOM     22  H   UNL     1       8.670   5.125  14.648  0.00  0.00    +0.000 HD
ENDBRANCH  20  21
ENDBRANCH  19  20
ENDBRANCH  18  19
BRANCH  18  23
ATOM     23  C   UNL     1       6.812   6.147  17.598  0.00  0.00    +0.000 C 
BRANCH  23  24
ATOM     24  C   UNL     1       7.720   5.575  18.697  0.00  0.00    +0.000 C 
BRANCH  24  25
ATOM     25  O   UNL     1       6.991   5.345  19.899  0.00  0.00    +0.000 OA
ATOM     26  H   UNL     1       6.047   5.423  19.671  0.00  0.00    +0.000 HD
ENDBRANCH  24  25
ENDBRANCH  23  24
ENDBRANCH  18  23
ENDBRANCH   1  17
TORSDOF 9
ENDMDL
MODEL 3
REMARK VINA RESULT:      -6.5      1.045      1.105
REMARK  Name = 
REMARK  9 active torsions:
REMARK  status: ('A' for Active; 'I' for Inactive)
REMARK    1  A    between atoms: C_2  and  C_3
REMARK    2  A    between atoms: C_5  and  C_6
REMARK    3  A    between atoms: C_9  and  N_10
REMARK    4  A    between atoms: N_17  and  C_18
REMARK    5  A    between atoms: N_17  and  C_21
REMARK    6  A    between atoms: C_18  and  C_19
REMARK    7  A    between atoms: C_19  and  O_20
REMARK    8  A    between atoms: C_21  and  C_22
REMARK    9  A    between atoms: C_22  and  O_23
REMARK                            x       y       z     vdW  Elec       q    Type
REMARK                         _______ _______ _______ _____ _____    ______ ____
ROOT
ATOM      1  C   UNL     1       3.792   5.060  18.260  0.00  0.00    +0.000 A 
ATOM      2  C   UNL     1       3.049   6.256  18.071  0.00  0.00    +0.000 A 
ATOM      3  C   UNL     1       2.683   6.697  19.327  0.00  0.00    +0.000 A 
ATOM      4  N   UNL     1       3.259   5.793  20.182  0.00  0.00    +0.000 N 
ATOM      5  N   UNL     1       3.911   4.789  19.572  0.00  0.00    +0.000 NA
ATOM      6  H   UNL     1       3.249   5.808  21.196  0.00  0.00    +0.000 HD
ENDROOT
BRANCH   3   7
ATOM      7  C   UNL     1       1.907   7.862  19.747  0.00  0.00    +0.000 A 
ATOM      8  C   UNL     1       1.622   8.915  18.865  0.00  0.00    +0.000 A 
ATOM      9  C   UNL     1       0.884  10.026  19.291  0.00  0.00    +0.000 A 
ATOM     10  C   UNL     1       0.425  10.086  20.612  0.00  0.00    +0.000 A 
ATOM     11  C   UNL     1       0.705   9.050  21.506  0.00  0.00    +0.000 A 
ATOM     12  C   UNL     1       1.444   7.948  21.070  0.00  0.00    +0.000 A 
BRANCH  10  13
ATOM     13  N   UNL     1      -0.356  11.245  21.063  0.00  0.00    +0.000 N 
ATOM     14  O   UNL     1      -1.242  11.671  20.312  0.00  0.00    +0.000 OA
ATOM     15  O   UNL     1      -0.071  11.736  22.166  0.00  0.00    +0.000 OA
ENDBRANCH  10  13
ENDBRANCH   3   7
BRANCH   1  17
ATOM     16  O   UNL     1       3.771   3.210  16.827  0.00  0.00    +0.000 OA
ATOM     17  C   UNL     1       4.351   4.243  17.162  0.00  0.00    +0.000 C 
ATOM     18  N   UNL     1       5.564   4.609  16.552  0.00  0.00    +0.000 N 
BRANCH  18  19
ATOM     19  C   UNL     1       6.094   3.716  15.506  0.00  0.00    +0.000 C 
BRANCH  19  20
ATOM     20  C   UNL     1       5.885   4.224  14.070  0.00  0.00    +0.000 C 
BRANCH  20  21
ATOM     21  O   UNL     1       6.221   3.218  13.119  0.00  0.00    +0.000 OA
ATOM     22  H   UNL     1       5.748   3.451  12.300  0.00  0.00    +0.000 HD
ENDBRANCH  20  21
ENDBRANCH  19  20
ENDBRANCH  18  19
BRANCH  18  23
ATOM     23  C   UNL     1       6.493   5.610  17.113  0.00  0.00    +0.000 C 
BRANCH  23  24
ATOM     24  C   UNL     1       7.428   5.063  18.201  0.00  0.00    +0.000 C 
BRANCH  24  25
ATOM     25  O   UNL     1       8.304   4.069  17.676  0.00  0.00    +0.000 OA
ATOM     26  H   UNL     1       8.965   3.888  18.368  0.00  0.00    +0.000 HD
ENDBRANCH  24  25
ENDBRANCH  23  24
ENDBRANCH  18  23
ENDBRANCH   1  17
TORSDOF 9
ENDMDL
MODEL 4
REMARK VINA RESULT:      -6.5      2.503      3.760
REMARK  Name = 
REMARK  9 active torsions:
REMARK  status: ('A' for Active; 'I' for Inactive)
REMARK    1  A    between atoms: C_2  and  C_3
REMARK    2  A    between atoms: C_5  and  C_6
REMARK    3  A    between atoms: C_9  and  N_10
REMARK    4  A    between atoms: N_17  and  C_18
REMARK    5  A    between atoms: N_17  and  C_21
REMARK    6  A    between atoms: C_18  and  C_19
REMARK    7  A    between atoms: C_19  and  O_20
REMARK    8  A    between atoms: C_21  and  C_22
REMARK    9  A    between atoms: C_22  and  O_23
REMARK                            x       y       z     vdW  Elec       q    Type
REMARK                         _______ _______ _______ _____ _____    ______ ____
ROOT
ATOM      1  C   UNL     1       3.077   6.183  18.665  0.00  0.00    +0.000 A 
ATOM      2  C   UNL     1       2.342   6.587  19.813  0.00  0.00    +0.000 A 
ATOM      3  C   UNL     1       1.941   7.887  19.587  0.00  0.00    +0.000 A 
ATOM      4  N   UNL     1       2.397   8.168  18.326  0.00  0.00    +0.000 N 
ATOM      5  N   UNL     1       3.101   7.175  17.757  0.00  0.00    +0.000 NA
ATOM      6  H   UNL     1       2.258   9.019  17.793  0.00  0.00    +0.000 HD
ENDROOT
BRANCH   3   7
ATOM      7  C   UNL     1       1.169   8.810  20.417  0.00  0.00    +0.000 A 
ATOM      8  C   UNL     1       0.482   9.901  19.863  0.00  0.00    +0.000 A 
ATOM      9  C   UNL     1      -0.245  10.778  20.679  0.00  0.00    +0.000 A 
ATOM     10  C   UNL     1      -0.287  10.563  22.061  0.00  0.00    +0.000 A 
ATOM     11  C   UNL     1       0.397   9.486  22.630  0.00  0.00    +0.000 A 
ATOM     12  C   UNL     1       1.121   8.620  21.808  0.00  0.00    +0.000 A 
BRANCH  10  13
ATOM     13  N   UNL     1      -1.053  11.475  22.920  0.00  0.00    +0.000 N 
ATOM     14  O   UNL     1      -2.100  11.050  23.424  0.00  0.00    +0.000 OA
ATOM     15  O   UNL     1      -0.610  12.623  23.079  0.00  0.00    +0.000 OA
ENDBRANCH  10  13
ENDBRANCH   3   7
BRANCH   1  17
ATOM     16  O   UNL     1       4.944   4.787  18.460  0.00  0.00    +0.000 OA
ATOM     17  C   UNL     1       3.716   4.859  18.505  0.00  0.00    +0.000 C 
ATOM     18  N   UNL     1       2.927   3.706  18.345  0.00  0.00    +0.000 N 
BRANCH  18  19
ATOM     19  C   UNL     1       3.629   2.429  18.130  0.00  0.00    +0.000 C 
BRANCH  19  20
ATOM     20  C   UNL     1       3.998   1.681  19.421  0.00  0.00    +0.000 C 
BRANCH  20  21
ATOM     21  O   UNL     1       5.224   2.169  19.961  0.00  0.00    +0.000 OA
ATOM     22  H   UNL     1       5.126   2.135  20.929  0.00  0.00    +0.000 HD
ENDBRANCH  20  21
ENDBRANCH  19  20
ENDBRANCH  18  19
BRANCH  18  23
ATOM     23  C   UNL     1       1.484   3.739  18.035  0.00  0.00    +0.000 C 
BRANCH  23  24
ATOM     24  C   UNL     1       0.619   2.879  18.969  0.00  0.00    +0.000 C 
BRANCH  24  25
ATOM     25  O   UNL     1       0.622   3.398  20.296  0.00  0.00    +0.000 OA
ATOM     26  H   UNL     1       1.178   2.800  20.827  0.00  0.00    +0.000 HD
ENDBRANCH  24  25
ENDBRANCH  23  24
ENDBRANCH  18  23
ENDBRANCH   1  17
TORSDOF 9
ENDMDL
MODEL 5
REMARK VINA RESULT:      -6.5      0.452      1.141
REMARK  Name = 
REMARK  9 active torsions:
REMARK  status: ('A' for Active; 'I' for Inactive)
REMARK    1  A    between atoms: C_2  and  C_3
REMARK    2  A    between atoms: C_5  and  C_6
REMARK    3  A    between atoms: C_9  and  N_10
REMARK    4  A    between atoms: N_17  and  C_18
REMARK    5  A    between atoms: N_17  and  C_21
REMARK    6  A    between atoms: C_18  and  C_19
REMARK    7  A    between atoms: C_19  and  O_20
REMARK    8  A    between atoms: C_21  and  C_22
REMARK    9  A    between atoms: C_22  and  O_23
REMARK                            x       y       z     vdW  Elec       q    Type
REMARK                         _______ _______ _______ _____ _____    ______ ____
ROOT
ATOM      1  C   UNL     1       3.575   5.272  18.396  0.00  0.00    +0.000 A 
ATOM      2  C   UNL     1       3.001   6.564  18.254  0.00  0.00    +0.000 A 
ATOM      3  C   UNL     1       2.470   6.898  19.483  0.00  0.00    +0.000 A 
ATOM      4  N   UNL     1       2.793   5.838  20.289  0.00  0.00    +0.000 N 
ATOM      5  N   UNL     1       3.435   4.839  19.662  0.00  0.00    +0.000 NA
ATOM      6  H   UNL     1       2.608   5.737  21.281  0.00  0.00    +0.000 HD
ENDROOT
BRANCH   3   7
ATOM      7  C   UNL     1       1.756   8.093  19.927  0.00  0.00    +0.000 A 
ATOM      8  C   UNL     1       1.357   8.261  21.261  0.00  0.00    +0.000 A 
ATOM      9  C   UNL     1       0.667   9.412  21.663  0.00  0.00    +0.000 A 
ATOM     10  C   UNL     1       0.372  10.406  20.722  0.00  0.00    +0.000 A 
ATOM     11  C   UNL     1       0.756  10.252  19.388  0.00  0.00    +0.000 A 
ATOM     12  C   UNL     1       1.442   9.099  18.998  0.00  0.00    +0.000 A 
BRANCH  10  13
ATOM     13  N   UNL     1      -0.345  11.618  21.139  0.00  0.00    +0.000 N 
ATOM     14  O   UNL     1      -1.481  11.482  21.610  0.00  0.00    +0.000 OA
ATOM     15  O   UNL     1       0.228  12.706  20.982  0.00  0.00    +0.000 OA
ENDBRANCH  10  13
ENDBRANCH   3   7
BRANCH   1  17
ATOM     16  O   UNL     1       3.607   3.629  16.730  0.00  0.00    +0.000 OA
ATOM     17  C   UNL     1       4.230   4.524  17.302  0.00  0.00    +0.000 C 
ATOM     18  N   UNL     1       5.568   4.791  16.962  0.00  0.00    +0.000 N 
BRANCH  18  19
ATOM     19  C   UNL     1       6.176   3.967  15.904  0.00  0.00    +0.000 C 
BRANCH  19  20
ATOM     20  C   UNL     1       6.320   4.677  14.548  0.00  0.00    +0.000 C 
BRANCH  20  21
ATOM     21  O   UNL     1       7.573   5.349  14.454  0.00  0.00    +0.000 OA
ATOM     22  H   UNL     1       7.590   5.767  13.574  0.00  0.00    +0.000 HD
ENDBRANCH  20  21
ENDBRANCH  19  20
ENDBRANCH  18  19
BRANCH  18  23
ATOM     23  C   UNL     1       6.485   5.579  17.809  0.00  0.00    +0.000 C 
BRANCH  23  24
ATOM     24  C   UNL     1       6.635   7.047  17.381  0.00  0.00    +0.000 C 
BRANCH  24  25
ATOM     25  O   UNL     1       7.826   7.243  16.624  0.00  0.00    +0.000 OA
ATOM     26  H   UNL     1       7.581   7.134  15.688  0.00  0.00    +0.000 HD
ENDBRANCH  24  25
ENDBRANCH  23  24
ENDBRANCH  18  23
ENDBRANCH   1  17
TORSDOF 9
ENDMDL
MODEL 6
REMARK VINA RESULT:      -6.4      2.764      4.101
REMARK  Name = 
REMARK  9 active torsions:
REMARK  status: ('A' for Active; 'I' for Inactive)
REMARK    1  A    between atoms: C_2  and  C_3
REMARK    2  A    between atoms: C_5  and  C_6
REMARK    3  A    between atoms: C_9  and  N_10
REMARK    4  A    between atoms: N_17  and  C_18
REMARK    5  A    between atoms: N_17  and  C_21
REMARK    6  A    between atoms: C_18  and  C_19
REMARK    7  A    between atoms: C_19  and  O_20
REMARK    8  A    between atoms: C_21  and  C_22
REMARK    9  A    between atoms: C_22  and  O_23
REMARK                            x       y       z     vdW  Elec       q    Type
REMARK                         _______ _______ _______ _____ _____    ______ ____
ROOT
ATOM      1  C   UNL     1       2.860   6.445  19.362  0.00  0.00    +0.000 A 
ATOM      2  C   UNL     1       2.204   6.937  20.523  0.00  0.00    +0.000 A 
ATOM      3  C   UNL     1       1.594   8.120  20.160  0.00  0.00    +0.000 A 
ATOM      4  N   UNL     1       1.866   8.243  18.822  0.00  0.00    +0.000 N 
ATOM      5  N   UNL     1       2.641   7.267  18.321  0.00  0.00    +0.000 NA
ATOM      6  H   UNL     1       1.546   8.969  18.190  0.00  0.00    +0.000 HD
ENDROOT
BRANCH   3   7
ATOM      7  C   UNL     1       0.791   9.063  20.935  0.00  0.00    +0.000 A 
ATOM      8  C   UNL     1       0.406   8.791  22.257  0.00  0.00    +0.000 A 
ATOM      9  C   UNL     1      -0.371   9.706  22.979  0.00  0.00    +0.000 A 
ATOM     10  C   UNL     1      -0.769  10.904  22.375  0.00  0.00    +0.000 A 
ATOM     11  C   UNL     1      -0.400  11.188  21.058  0.00  0.00    +0.000 A 
ATOM     12  C   UNL     1       0.373  10.268  20.347  0.00  0.00    +0.000 A 
BRANCH  10  13
ATOM     13  N   UNL     1      -1.577  11.870  23.130  0.00  0.00    +0.000 N 
ATOM     14  O   UNL     1      -1.065  12.962  23.404  0.00  0.00    +0.000 OA
ATOM     15  O   UNL     1      -2.724  11.527  23.457  0.00  0.00    +0.000 OA
ENDBRANCH  10  13
ENDBRANCH   3   7
BRANCH   1  17
ATOM     16  O   UNL     1       4.825   5.255  18.913  0.00  0.00    +0.000 OA
ATOM     17  C   UNL     1       3.665   5.204  19.321  0.00  0.00    +0.000 C 
ATOM     18  N   UNL     1       3.089   3.974  19.684  0.00  0.00    +0.000 N 
BRANCH  18  19
ATOM     19  C   UNL     1       3.929   2.770  19.561  0.00  0.00    +0.000 C 
BRANCH  19  20
ATOM     20  C   UNL     1       3.495   1.804  18.447  0.00  0.00    +0.000 C 
BRANCH  20  21
ATOM     21  O   UNL     1       4.349   0.663  18.399  0.00  0.00    +0.000 OA
ATOM     22  H   UNL     1       3.879  -0.046  18.873  0.00  0.00    +0.000 HD
ENDBRANCH  20  21
ENDBRANCH  19  20
ENDBRANCH  18  19
BRANCH  18  23
ATOM     23  C   UNL     1       1.636   3.765  19.842  0.00  0.00    +0.000 C 
BRANCH  23  24
ATOM     24  C   UNL     1       1.247   2.955  21.088  0.00  0.00    +0.000 C 
BRANCH  24  25
ATOM     25  O   UNL     1       2.061   3.304  22.204  0.00  0.00    +0.000 OA
ATOM     26  H   UNL     1       2.788   2.656  22.231  0.00  0.00    +0.000 HD
ENDBRANCH  24  25
ENDBRANCH  23  24
ENDBRANCH  18  23
ENDBRANCH   1  17
TORSDOF 9
ENDMDL
MODEL 7
REMARK VINA RESULT:      -6.3      1.351      2.416
REMARK  Name = 
REMARK  9 active torsions:
REMARK  status: ('A' for Active; 'I' for Inactive)
REMARK    1  A    between atoms: C_2  and  C_3
REMARK    2  A    between atoms: C_5  and  C_6
REMARK    3  A    between atoms: C_9  and  N_10
REMARK    4  A    between atoms: N_17  and  C_18
REMARK    5  A    between atoms: N_17  and  C_21
REMARK    6  A    between atoms: C_18  and  C_19
REMARK    7  A    between atoms: C_19  and  O_20
REMARK    8  A    between atoms: C_21  and  C_22
REMARK    9  A    between atoms: C_22  and  O_23
REMARK                            x       y       z     vdW  Elec       q    Type
REMARK                         _______ _______ _______ _____ _____    ______ ____
ROOT
ATOM      1  C   UNL     1       3.578   6.451  18.355  0.00  0.00    +0.000 A 
ATOM      2  C   UNL     1       2.817   7.650  18.424  0.00  0.00    +0.000 A 
ATOM      3  C   UNL     1       2.193   7.651  19.654  0.00  0.00    +0.000 A 
ATOM      4  N   UNL     1       2.644   6.509  20.263  0.00  0.00    +0.000 N 
ATOM      5  N   UNL     1       3.457   5.758  19.501  0.00  0.00    +0.000 NA
ATOM      6  H   UNL     1       2.438   6.186  21.202  0.00  0.00    +0.000 HD
ENDROOT
BRANCH   3   7
ATOM      7  C   UNL     1       1.286   8.618  20.269  0.00  0.00    +0.000 A 
ATOM      8  C   UNL     1       0.963   8.563  21.633  0.00  0.00    +0.000 A 
ATOM      9  C   UNL     1       0.085   9.496  22.199  0.00  0.00    +0.000 A 
ATOM     10  C   UNL     1      -0.477  10.495  21.395  0.00  0.00    +0.000 A 
ATOM     11  C   UNL     1      -0.172  10.560  20.033  0.00  0.00    +0.000 A 
ATOM     12  C   UNL     1       0.703   9.623  19.479  0.00  0.00    +0.000 A 
BRANCH  10  13
ATOM     13  N   UNL     1      -1.392  11.480  21.984  0.00  0.00    +0.000 N 
ATOM     14  O   UNL     1      -1.609  11.409  23.200  0.00  0.00    +0.000 OA
ATOM     15  O   UNL     1      -1.902  12.317  21.225  0.00  0.00    +0.000 OA
ENDBRANCH  10  13
ENDBRANCH   3   7
BRANCH   1  17
ATOM     16  O   UNL     1       4.992   6.896  16.544  0.00  0.00    +0.000 OA
ATOM     17  C   UNL     1       4.383   6.039  17.185  0.00  0.00    +0.000 C 
ATOM     18  N   UNL     1       4.401   4.694  16.775  0.00  0.00    +0.000 N 
BRANCH  18  19
ATOM     19  C   UNL     1       5.175   4.365  15.565  0.00  0.00    +0.000 C 
BRANCH  19  20
ATOM     20  C   UNL     1       6.689   4.235  15.796  0.00  0.00    +0.000 C 
BRANCH  20  21
ATOM     21  O   UNL     1       7.376   5.400  15.345  0.00  0.00    +0.000 OA
ATOM     22  H   UNL     1       7.392   5.345  14.373  0.00  0.00    +0.000 HD
ENDBRANCH  20  21
ENDBRANCH  19  20
ENDBRANCH  18  19
BRANCH  18  23
ATOM     23  C   UNL     1       3.441   3.680  17.254  0.00  0.00    +0.000 C 
BRANCH  23  24
ATOM     24  C   UNL     1       4.054   2.621  18.183  0.00  0.00    +0.000 C 
BRANCH  24  25
ATOM     25  O   UNL     1       5.144   3.159  18.927  0.00  0.00    +0.000 OA
ATOM     26  H   UNL     1       5.958   2.849  18.490  0.00  0.00    +0.000 HD
ENDBRANCH  24  25
ENDBRANCH  23  24
ENDBRANCH  18  23
ENDBRANCH   1  17
TORSDOF 9
ENDMDL
MODEL 8
REMARK VINA RESULT:      -6.3      2.412      3.895
REMARK  Name = 
REMARK  9 active torsions:
REMARK  status: ('A' for Active; 'I' for Inactive)
REMARK    1  A    between atoms: C_2  and  C_3
REMARK    2  A    between atoms: C_5  and  C_6
REMARK    3  A    between atoms: C_9  and  N_10
REMARK    4  A    between atoms: N_17  and  C_18
REMARK    5  A    between atoms: N_17  and  C_21
REMARK    6  A    between atoms: C_18  and  C_19
REMARK    7  A    between atoms: C_19  and  O_20
REMARK    8  A    between atoms: C_21  and  C_22
REMARK    9  A    between atoms: C_22  and  O_23
REMARK                            x       y       z     vdW  Elec       q    Type
REMARK                         _______ _______ _______ _____ _____    ______ ____
ROOT
ATOM      1  C   UNL     1       3.003   6.610  18.566  0.00  0.00    +0.000 A 
ATOM      2  C   UNL     1       2.341   6.976  19.770  0.00  0.00    +0.000 A 
ATOM      3  C   UNL     1       1.847   8.249  19.578  0.00  0.00    +0.000 A 
ATOM      4  N   UNL     1       2.183   8.550  18.283  0.00  0.00    +0.000 N 
ATOM      5  N   UNL     1       2.895   7.597  17.659  0.00  0.00    +0.000 NA
ATOM      6  H   UNL     1       1.951   9.389  17.763  0.00  0.00    +0.000 HD
ENDROOT
BRANCH   3   7
ATOM      7  C   UNL     1       1.093   9.130  20.467  0.00  0.00    +0.000 A 
ATOM      8  C   UNL     1       0.871   8.804  21.813  0.00  0.00    +0.000 A 
ATOM      9  C   UNL     1       0.138   9.659  22.646  0.00  0.00    +0.000 A 
ATOM     10  C   UNL     1      -0.379  10.853  22.128  0.00  0.00    +0.000 A 
ATOM     11  C   UNL     1      -0.174  11.190  20.788  0.00  0.00    +0.000 A 
ATOM     12  C   UNL     1       0.557  10.328  19.967  0.00  0.00    +0.000 A 
BRANCH  10  13
ATOM     13  N   UNL     1      -1.143  11.757  22.998  0.00  0.00    +0.000 N 
ATOM     14  O   UNL     1      -2.289  11.418  23.318  0.00  0.00    +0.000 OA
ATOM     15  O   UNL     1      -0.595  12.812  23.351  0.00  0.00    +0.000 OA
ENDBRANCH  10  13
ENDBRANCH   3   7
BRANCH   1  17
ATOM     16  O   UNL     1       4.930   5.318  18.259  0.00  0.00    +0.000 OA
ATOM     17  C   UNL     1       3.703   5.324  18.355  0.00  0.00    +0.000 C 
ATOM     18  N   UNL     1       2.969   4.134  18.205  0.00  0.00    +0.000 N 
BRANCH  18  19
ATOM     19  C   UNL     1       3.727   2.900  17.937  0.00  0.00    +0.000 C 
BRANCH  19  20
ATOM     20  C   UNL     1       4.071   2.080  19.191  0.00  0.00    +0.000 C 
BRANCH  20  21
ATOM     21  O   UNL     1       5.244   2.586  19.826  0.00  0.00    +0.000 OA
ATOM     22  H   UNL     1       5.997   2.246  19.311  0.00  0.00    +0.000 HD
ENDBRANCH  20  21
ENDBRANCH  19  20
ENDBRANCH  18  19
BRANCH  18  23
ATOM     23  C   UNL     1       1.515   4.095  17.954  0.00  0.00    +0.000 C 
BRANCH  23  24
ATOM     24  C   UNL     1       0.713   3.321  19.012  0.00  0.00    +0.000 C 
BRANCH  24  25
ATOM     25  O   UNL     1       0.234   2.084  18.491  0.00  0.00    +0.000 OA
ATOM     26  H   UNL     1       0.161   1.475  19.247  0.00  0.00    +0.000 HD
ENDBRANCH  24  25
ENDBRANCH  23  24
ENDBRANCH  18  23
ENDBRANCH   1  17
TORSDOF 9
ENDMDL
MODEL 9
REMARK VINA RESULT:      -6.2      1.433      1.624
REMARK  Name = 
REMARK  9 active torsions:
REMARK  status: ('A' for Active; 'I' for Inactive)
REMARK    1  A    between atoms: C_2  and  C_3
REMARK    2  A    between atoms: C_5  and  C_6
REMARK    3  A    between atoms: C_9  and  N_10
REMARK    4  A    between atoms: N_17  and  C_18
REMARK    5  A    between atoms: N_17  and  C_21
REMARK    6  A    between atoms: C_18  and  C_19
REMARK    7  A    between atoms: C_19  and  O_20
REMARK    8  A    between atoms: C_21  and  C_22
REMARK    9  A    between atoms: C_22  and  O_23
REMARK                            x       y       z     vdW  Elec       q    Type
REMARK                         _______ _______ _______ _____ _____    ______ ____
ROOT
ATOM      1  C   UNL     1       3.227   5.822  18.942  0.00  0.00    +0.000 A 
ATOM      2  C   UNL     1       2.796   7.176  18.935  0.00  0.00    +0.000 A 
ATOM      3  C   UNL     1       2.013   7.348  20.058  0.00  0.00    +0.000 A 
ATOM      4  N   UNL     1       2.061   6.133  20.691  0.00  0.00    +0.000 N 
ATOM      5  N   UNL     1       2.761   5.192  20.035  0.00  0.00    +0.000 NA
ATOM      6  H   UNL     1       1.640   5.881  21.578  0.00  0.00    +0.000 HD
ENDROOT
BRANCH   3   7
ATOM      7  C   UNL     1       1.301   8.520  20.561  0.00  0.00    +0.000 A 
ATOM      8  C   UNL     1       0.884   9.552  19.707  0.00  0.00    +0.000 A 
ATOM      9  C   UNL     1       0.209  10.671  20.212  0.00  0.00    +0.000 A 
ATOM     10  C   UNL     1      -0.052  10.760  21.585  0.00  0.00    +0.000 A 
ATOM     11  C   UNL     1       0.362   9.745  22.451  0.00  0.00    +0.000 A 
ATOM     12  C   UNL     1       1.036   8.635  21.935  0.00  0.00    +0.000 A 
BRANCH  10  13
ATOM     13  N   UNL     1      -0.765  11.927  22.119  0.00  0.00    +0.000 N 
ATOM     14  O   UNL     1      -1.132  11.888  23.300  0.00  0.00    +0.000 OA
ATOM     15  O   UNL     1      -0.967  12.878  21.349  0.00  0.00    +0.000 OA
ENDBRANCH  10  13
ENDBRANCH   3   7
BRANCH   1  17
ATOM     16  O   UNL     1       3.532   4.755  16.881  0.00  0.00    +0.000 OA
ATOM     17  C   UNL     1       4.069   5.208  17.892  0.00  0.00    +0.000 C 
ATOM     18  N   UNL     1       5.457   5.089  18.077  0.00  0.00    +0.000 N 
BRANCH  18  19
ATOM     19  C   UNL     1       6.226   4.412  17.018  0.00  0.00    +0.000 C 
BRANCH  19  20
ATOM     20  C   UNL     1       6.808   5.356  15.953  0.00  0.00    +0.000 C 
BRANCH  20  21
ATOM     21  O   UNL     1       5.770   5.986  15.206  0.00  0.00    +0.000 OA
ATOM     22  H   UNL     1       5.217   6.456  15.856  0.00  0.00    +0.000 HD
ENDBRANCH  20  21
ENDBRANCH  19  20
ENDBRANCH  18  19
BRANCH  18  23
ATOM     23  C   UNL     1       6.129   5.275  19.378  0.00  0.00    +0.000 C 
BRANCH  23  24
ATOM     24  C   UNL     1       7.607   5.682  19.273  0.00  0.00    +0.000 C 
BRANCH  24  25
ATOM     25  O   UNL     1       8.297   5.436  20.495  0.00  0.00    +0.000 OA
ATOM     26  H   UNL     1       7.904   6.030  21.160  0.00  0.00    +0.000 HD
ENDBRANCH  24  25
ENDBRANCH  23  24
ENDBRANCH  18  23
ENDBRANCH   1  17
TORSDOF 9
ENDMDL
