MODEL 1
REMARK VINA RESULT:      -7.7      0.000      0.000
REMARK  Name = 
REMARK  7 active torsions:
REMARK  status: ('A' for Active; 'I' for Inactive)
REMARK    1  A    between atoms: C_1  and  S_2
REMARK    2  A    between atoms: S_2  and  C_3
REMARK    3  A    between atoms: C_6  and  C_7
REMARK    4  A    between atoms: C_7  and  N_8
REMARK    5  A    between atoms: N_18  and  C_19
REMARK    6  A    between atoms: C_19  and  C_20
REMARK    7  A    between atoms: C_20  and  C_21
REMARK                            x       y       z     vdW  Elec       q    Type
REMARK                         _______ _______ _______ _____ _____    ______ ____
ROOT
ATOM      1  C   UNL     1       1.727   3.828  19.178  0.00  0.00    +0.000 A 
ATOM      2  N   UNL     1       1.062   4.075  20.264  0.00  0.00    +0.000 NA
ATOM      3  N   UNL     1       1.305   5.370  20.640  0.00  0.00    +0.000 NA
ATOM      4  C   UNL     1       2.122   5.927  19.748  0.00  0.00    +0.000 A 
ATOM      5  N   UNL     1       2.429   4.977  18.814  0.00  0.00    +0.000 N 
ENDROOT
BRANCH   1   7
ATOM      6  C   UNL     1       3.387   1.654  18.836  0.00  0.00    +0.000 C 
ATOM      7  S   UNL     1       1.788   2.330  18.320  0.00  0.00    +0.000 S 
ENDBRANCH   1   7
BRANCH   4   8
ATOM      8  C   UNL     1       2.720   7.292  19.809  0.00  0.00    +0.000 C 
BRANCH   8   9
ATOM      9  N   UNL     1       1.837   8.431  19.711  0.00  0.00    +0.000 N 
ATOM     10  C   UNL     1       1.623   9.018  18.462  0.00  0.00    +0.000 A 
ATOM     11  O   UNL     1       2.053   8.633  17.385  0.00  0.00    +0.000 OA
ATOM     12  S   UNL     1       0.609  10.450  18.602  0.00  0.00    +0.000 S 
ATOM     13  C   UNL     1       0.427  10.176  20.332  0.00  0.00    +0.000 A 
ATOM     14  C   UNL     1      -0.544  10.735  21.128  0.00  0.00    +0.000 A 
ATOM     15  C   UNL     1      -0.718  10.149  22.371  0.00  0.00    +0.000 A 
ATOM     16  C   UNL     1       0.307   9.400  22.959  0.00  0.00    +0.000 A 
ATOM     17  C   UNL     1       1.276   8.828  22.138  0.00  0.00    +0.000 A 
ATOM     18  C   UNL     1       1.206   9.101  20.775  0.00  0.00    +0.000 A 
ENDBRANCH   8   9
ENDBRANCH   4   8
BRANCH   5  19
ATOM     19  C   UNL     1       3.179   5.168  17.587  0.00  0.00    +0.000 C 
BRANCH  19  20
ATOM     20  C   UNL     1       4.574   4.507  17.472  0.00  0.00    +0.000 C 
BRANCH  20  21
ATOM     21  C   UNL     1       5.676   5.486  17.813  0.00  0.00    +0.000 A 
ATOM     22  C   UNL     1       5.818   6.684  17.096  0.00  0.00    +0.000 A 
ATOM     23  C   UNL     1       6.946   7.484  17.278  0.00  0.00    +0.000 A 
ATOM     24  C   UNL     1       7.905   7.126  18.223  0.00  0.00    +0.000 A 
ATOM     25  C   UNL     1       7.705   6.006  19.027  0.00  0.00    +0.000 A 
ATOM     26  C   UNL     1       6.595   5.186  18.823  0.00  0.00    +0.000 A 
ENDBRANCH  20  21
ENDBRANCH  19  20
ENDBRANCH   5  19
TORSDOF 6
ENDMDL
MODEL 2
REMARK VINA RESULT:      -7.5      3.708      5.656
REMARK  Name = 
REMARK  7 active torsions:
REMARK  status: ('A' for Active; 'I' for Inactive)
REMARK    1  A    between atoms: C_1  and  S_2
REMARK    2  A    between atoms: S_2  and  C_3
REMARK    3  A    between atoms: C_6  and  C_7
REMARK    4  A    between atoms: C_7  and  N_8
REMARK    5  A    between atoms: N_18  and  C_19
REMARK    6  A    between atoms: C_19  and  C_20
REMARK    7  A    between atoms: C_20  and  C_21
REMARK                            x       y       z     vdW  Elec       q    Type
REMARK                         _______ _______ _______ _____ _____    ______ ____
ROOT
ATOM      1  C   UNL     1       7.333   6.654  18.132  0.00  0.00    +0.000 A 
ATOM      2  N   UNL     1       7.745   6.198  19.274  0.00  0.00    +0.000 NA
ATOM      3  N   UNL     1       6.960   5.133  19.629  0.00  0.00    +0.000 NA
ATOM      4  C   UNL     1       6.064   4.925  18.666  0.00  0.00    +0.000 A 
ATOM      5  N   UNL     1       6.253   5.881  17.707  0.00  0.00    +0.000 N 
ENDROOT
BRANCH   1   7
ATOM      6  C   UNL     1       8.596   9.059  18.606  0.00  0.00    +0.000 C 
ATOM      7  S   UNL     1       7.965   8.011  17.269  0.00  0.00    +0.000 S 
ENDBRANCH   1   7
BRANCH   4   8
ATOM      8  C   UNL     1       4.954   3.929  18.675  0.00  0.00    +0.000 C 
BRANCH   8   9
ATOM      9  N   UNL     1       3.836   4.159  19.561  0.00  0.00    +0.000 N 
ATOM     10  C   UNL     1       3.469   3.159  20.463  0.00  0.00    +0.000 A 
ATOM     11  O   UNL     1       4.039   2.095  20.654  0.00  0.00    +0.000 OA
ATOM     12  S   UNL     1       2.018   3.612  21.354  0.00  0.00    +0.000 S 
ATOM     13  C   UNL     1       1.990   5.177  20.547  0.00  0.00    +0.000 A 
ATOM     14  C   UNL     1       1.288   6.278  20.974  0.00  0.00    +0.000 A 
ATOM     15  C   UNL     1       1.649   7.486  20.400  0.00  0.00    +0.000 A 
ATOM     16  C   UNL     1       2.301   7.523  19.162  0.00  0.00    +0.000 A 
ATOM     17  C   UNL     1       3.020   6.404  18.748  0.00  0.00    +0.000 A 
ATOM     18  C   UNL     1       2.983   5.278  19.567  0.00  0.00    +0.000 A 
ENDBRANCH   8   9
ENDBRANCH   4   8
BRANCH   5  19
ATOM     19  C   UNL     1       5.594   5.966  16.417  0.00  0.00    +0.000 C 
BRANCH  19  20
ATOM     20  C   UNL     1       5.211   4.647  15.704  0.00  0.00    +0.000 C 
BRANCH  20  21
ATOM     21  C   UNL     1       6.013   4.456  14.434  0.00  0.00    +0.000 A 
ATOM     22  C   UNL     1       7.194   5.182  14.215  0.00  0.00    +0.000 A 
ATOM     23  C   UNL     1       7.817   5.152  12.968  0.00  0.00    +0.000 A 
ATOM     24  C   UNL     1       7.302   4.347  11.955  0.00  0.00    +0.000 A 
ATOM     25  C   UNL     1       6.204   3.528  12.207  0.00  0.00    +0.000 A 
ATOM     26  C   UNL     1       5.559   3.581  13.442  0.00  0.00    +0.000 A 
ENDBRANCH  20  21
ENDBRANCH  19  20
ENDBRANCH   5  19
TORSDOF 6
ENDMDL
MODEL 3
REMARK VINA RESULT:      -7.2      1.314      1.832
REMARK  Name = 
REMARK  7 active torsions:
REMARK  status: ('A' for Active; 'I' for Inactive)
REMARK    1  A    between atoms: C_1  and  S_2
REMARK    2  A    between atoms: S_2  and  C_3
REMARK    3  A    between atoms: C_6  and  C_7
REMARK    4  A    between atoms: C_7  and  N_8
REMARK    5  A    between atoms: N_18  and  C_19
REMARK    6  A    between atoms: C_19  and  C_20
REMARK    7  A    between atoms: C_20  and  C_21
REMARK                            x       y       z     vdW  Elec       q    Type
REMARK                         _______ _______ _______ _____ _____    ______ ____
ROOT
ATOM      1  C   UNL     1       1.803   3.956  19.364  0.00  0.00    +0.000 A 
ATOM      2  N   UNL     1       1.041   4.282  20.361  0.00  0.00    +0.000 NA
ATOM      3  N   UNL     1       1.204   5.618  20.618  0.00  0.00    +0.000 NA
ATOM      4  C   UNL     1       2.072   6.117  19.740  0.00  0.00    +0.000 A 
ATOM      5  N   UNL     1       2.492   5.092  18.939  0.00  0.00    +0.000 N 
ENDROOT
BRANCH   1   7
ATOM      6  C   UNL     1       3.674   1.939  19.178  0.00  0.00    +0.000 C 
ATOM      7  S   UNL     1       1.991   2.383  18.675  0.00  0.00    +0.000 S 
ENDBRANCH   1   7
BRANCH   4   8
ATOM      8  C   UNL     1       2.612   7.507  19.705  0.00  0.00    +0.000 C 
BRANCH   8   9
ATOM      9  N   UNL     1       1.674   8.606  19.697  0.00  0.00    +0.000 N 
ATOM     10  C   UNL     1       1.343   9.205  18.480  0.00  0.00    +0.000 A 
ATOM     11  O   UNL     1       1.709   8.860  17.367  0.00  0.00    +0.000 OA
ATOM     12  S   UNL     1       0.279  10.587  18.725  0.00  0.00    +0.000 S 
ATOM     13  C   UNL     1       0.238  10.272  20.457  0.00  0.00    +0.000 A 
ATOM     14  C   UNL     1      -0.694  10.772  21.334  0.00  0.00    +0.000 A 
ATOM     15  C   UNL     1      -0.750  10.156  22.573  0.00  0.00    +0.000 A 
ATOM     16  C   UNL     1       0.348   9.444  23.069  0.00  0.00    +0.000 A 
ATOM     17  C   UNL     1       1.278   8.932  22.167  0.00  0.00    +0.000 A 
ATOM     18  C   UNL     1       1.095   9.227  20.818  0.00  0.00    +0.000 A 
ENDBRANCH   8   9
ENDBRANCH   4   8
BRANCH   5  19
ATOM     19  C   UNL     1       3.335   5.192  17.762  0.00  0.00    +0.000 C 
BRANCH  19  20
ATOM     20  C   UNL     1       4.869   5.120  17.955  0.00  0.00    +0.000 C 
BRANCH  20  21
ATOM     21  C   UNL     1       5.575   4.840  16.646  0.00  0.00    +0.000 A 
ATOM     22  C   UNL     1       6.923   5.188  16.469  0.00  0.00    +0.000 A 
ATOM     23  C   UNL     1       7.508   5.112  15.206  0.00  0.00    +0.000 A 
ATOM     24  C   UNL     1       6.772   4.628  14.127  0.00  0.00    +0.000 A 
ATOM     25  C   UNL     1       5.474   4.162  14.324  0.00  0.00    +0.000 A 
ATOM     26  C   UNL     1       4.875   4.268  15.579  0.00  0.00    +0.000 A 
ENDBRANCH  20  21
ENDBRANCH  19  20
ENDBRANCH   5  19
TORSDOF 6
ENDMDL
MODEL 4
REMARK VINA RESULT:      -7.1      2.499      7.571
REMARK  Name = 
REMARK  7 active torsions:
REMARK  status: ('A' for Active; 'I' for Inactive)
REMARK    1  A    between atoms: C_1  and  S_2
REMARK    2  A    between atoms: S_2  and  C_3
REMARK    3  A    between atoms: C_6  and  C_7
REMARK    4  A    between atoms: C_7  and  N_8
REMARK    5  A    between atoms: N_18  and  C_19
REMARK    6  A    between atoms: C_19  and  C_20
REMARK    7  A    between atoms: C_20  and  C_21
REMARK                            x       y       z     vdW  Elec       q    Type
REMARK                         _______ _______ _______ _____ _____    ______ ____
ROOT
ATOM      1  C   UNL     1       1.028   8.921  20.763  0.00  0.00    +0.000 A 
ATOM      2  N   UNL     1       1.661   7.937  21.321  0.00  0.00    +0.000 NA
ATOM      3  N   UNL     1       2.296   7.215  20.344  0.00  0.00    +0.000 NA
ATOM      4  C   UNL     1       2.057   7.789  19.167  0.00  0.00    +0.000 A 
ATOM      5  N   UNL     1       1.240   8.864  19.385  0.00  0.00    +0.000 N 
ENDROOT
BRANCH   1   7
ATOM      6  C   UNL     1      -0.022   9.474  23.252  0.00  0.00    +0.000 C 
ATOM      7  S   UNL     1       0.045  10.101  21.554  0.00  0.00    +0.000 S 
ENDBRANCH   1   7
BRANCH   4   8
ATOM      8  C   UNL     1       2.474   7.290  17.825  0.00  0.00    +0.000 C 
BRANCH   8   9
ATOM      9  N   UNL     1       3.251   6.074  17.759  0.00  0.00    +0.000 N 
ATOM     10  C   UNL     1       4.622   6.157  17.505  0.00  0.00    +0.000 A 
ATOM     11  O   UNL     1       5.288   7.175  17.395  0.00  0.00    +0.000 OA
ATOM     12  S   UNL     1       5.336   4.554  17.356  0.00  0.00    +0.000 S 
ATOM     13  C   UNL     1       3.783   3.808  17.723  0.00  0.00    +0.000 A 
ATOM     14  C   UNL     1       3.602   2.506  18.124  0.00  0.00    +0.000 A 
ATOM     15  C   UNL     1       2.365   2.210  18.673  0.00  0.00    +0.000 A 
ATOM     16  C   UNL     1       1.249   3.005  18.393  0.00  0.00    +0.000 A 
ATOM     17  C   UNL     1       1.447   4.327  18.000  0.00  0.00    +0.000 A 
ATOM     18  C   UNL     1       2.762   4.757  17.837  0.00  0.00    +0.000 A 
ENDBRANCH   8   9
ENDBRANCH   4   8
BRANCH   5  19
ATOM     19  C   UNL     1       0.828   9.860  18.414  0.00  0.00    +0.000 C 
BRANCH  19  20
ATOM     20  C   UNL     1      -0.325   9.502  17.445  0.00  0.00    +0.000 C 
BRANCH  20  21
ATOM     21  C   UNL     1      -1.563  10.322  17.737  0.00  0.00    +0.000 A 
ATOM     22  C   UNL     1      -1.495  11.452  18.568  0.00  0.00    +0.000 A 
ATOM     23  C   UNL     1      -2.664  12.083  18.992  0.00  0.00    +0.000 A 
ATOM     24  C   UNL     1      -3.901  11.632  18.538  0.00  0.00    +0.000 A 
ATOM     25  C   UNL     1      -3.965  10.592  17.613  0.00  0.00    +0.000 A 
ATOM     26  C   UNL     1      -2.801   9.937  17.214  0.00  0.00    +0.000 A 
ENDBRANCH  20  21
ENDBRANCH  19  20
ENDBRANCH   5  19
TORSDOF 6
ENDMDL
MODEL 5
REMARK VINA RESULT:      -7.1      1.098      1.355
REMARK  Name = 
REMARK  7 active torsions:
REMARK  status: ('A' for Active; 'I' for Inactive)
REMARK    1  A    between atoms: C_1  and  S_2
REMARK    2  A    between atoms: S_2  and  C_3
REMARK    3  A    between atoms: C_6  and  C_7
REMARK    4  A    between atoms: C_7  and  N_8
REMARK    5  A    between atoms: N_18  and  C_19
REMARK    6  A    between atoms: C_19  and  C_20
REMARK    7  A    between atoms: C_20  and  C_21
REMARK                            x       y       z     vdW  Elec       q    Type
REMARK                         _______ _______ _______ _____ _____    ______ ____
ROOT
ATOM      1  C   UNL     1       1.610   4.022  19.432  0.00  0.00    +0.000 A 
ATOM      2  N   UNL     1       1.047   4.301  20.565  0.00  0.00    +0.000 NA
ATOM      3  N   UNL     1       1.276   5.620  20.855  0.00  0.00    +0.000 NA
ATOM      4  C   UNL     1       1.979   6.158  19.861  0.00  0.00    +0.000 A 
ATOM      5  N   UNL     1       2.230   5.173  18.946  0.00  0.00    +0.000 N 
ENDROOT
BRANCH   1   7
ATOM      6  C   UNL     1       3.333   1.918  18.971  0.00  0.00    +0.000 C 
ATOM      7  S   UNL     1       1.644   2.486  18.642  0.00  0.00    +0.000 S 
ENDBRANCH   1   7
BRANCH   4   8
ATOM      8  C   UNL     1       2.529   7.544  19.798  0.00  0.00    +0.000 C 
BRANCH   8   9
ATOM      9  N   UNL     1       1.598   8.649  19.792  0.00  0.00    +0.000 N 
ATOM     10  C   UNL     1       1.269   9.252  18.576  0.00  0.00    +0.000 A 
ATOM     11  O   UNL     1       1.632   8.906  17.462  0.00  0.00    +0.000 OA
ATOM     12  S   UNL     1       0.215  10.640  18.824  0.00  0.00    +0.000 S 
ATOM     13  C   UNL     1       0.174  10.324  20.556  0.00  0.00    +0.000 A 
ATOM     14  C   UNL     1      -0.755  10.829  21.434  0.00  0.00    +0.000 A 
ATOM     15  C   UNL     1      -0.813  10.211  22.673  0.00  0.00    +0.000 A 
ATOM     16  C   UNL     1       0.280   9.492  23.166  0.00  0.00    +0.000 A 
ATOM     17  C   UNL     1       1.207   8.975  22.263  0.00  0.00    +0.000 A 
ATOM     18  C   UNL     1       1.024   9.273  20.915  0.00  0.00    +0.000 A 
ENDBRANCH   8   9
ENDBRANCH   4   8
BRANCH   5  19
ATOM     19  C   UNL     1       2.848   5.328  17.642  0.00  0.00    +0.000 C 
BRANCH  19  20
ATOM     20  C   UNL     1       3.967   6.386  17.485  0.00  0.00    +0.000 C 
BRANCH  20  21
ATOM     21  C   UNL     1       5.180   5.803  16.793  0.00  0.00    +0.000 A 
ATOM     22  C   UNL     1       5.289   5.827  15.394  0.00  0.00    +0.000 A 
ATOM     23  C   UNL     1       6.304   5.117  14.756  0.00  0.00    +0.000 A 
ATOM     24  C   UNL     1       7.255   4.434  15.511  0.00  0.00    +0.000 A 
ATOM     25  C   UNL     1       7.226   4.513  16.902  0.00  0.00    +0.000 A 
ATOM     26  C   UNL     1       6.192   5.195  17.543  0.00  0.00    +0.000 A 
ENDBRANCH  20  21
ENDBRANCH  19  20
ENDBRANCH   5  19
TORSDOF 6
ENDMDL
MODEL 6
REMARK VINA RESULT:      -7.0      3.853      6.203
REMARK  Name = 
REMARK  7 active torsions:
REMARK  status: ('A' for Active; 'I' for Inactive)
REMARK    1  A    between atoms: C_1  and  S_2
REMARK    2  A    between atoms: S_2  and  C_3
REMARK    3  A    between atoms: C_6  and  C_7
REMARK    4  A    between atoms: C_7  and  N_8
REMARK    5  A    between atoms: N_18  and  C_19
REMARK    6  A    between atoms: C_19  and  C_20
REMARK    7  A    between atoms: C_20  and  C_21
REMARK                            x       y       z     vdW  Elec       q    Type
REMARK                         _______ _______ _______ _____ _____    ______ ____
ROOT
ATOM      1  C   UNL     1       7.092   6.403  17.873  0.00  0.00    +0.000 A 
ATOM      2  N   UNL     1       7.182   5.940  19.080  0.00  0.00    +0.000 NA
ATOM      3  N   UNL     1       6.430   4.797  19.167  0.00  0.00    +0.000 NA
ATOM      4  C   UNL     1       5.889   4.552  17.976  0.00  0.00    +0.000 A 
ATOM      5  N   UNL     1       6.267   5.559  17.131  0.00  0.00    +0.000 N 
ENDROOT
BRANCH   1   7
ATOM      6  C   UNL     1       8.572   8.561  18.745  0.00  0.00    +0.000 C 
ATOM      7  S   UNL     1       7.824   7.843  17.259  0.00  0.00    +0.000 S 
ENDBRANCH   1   7
BRANCH   4   8
ATOM      8  C   UNL     1       4.926   3.465  17.635  0.00  0.00    +0.000 C 
BRANCH   8   9
ATOM      9  N   UNL     1       3.737   3.326  18.443  0.00  0.00    +0.000 N 
ATOM     10  C   UNL     1       3.257   2.047  18.731  0.00  0.00    +0.000 A 
ATOM     11  O   UNL     1       3.776   0.983  18.429  0.00  0.00    +0.000 OA
ATOM     12  S   UNL     1       1.744   2.125  19.627  0.00  0.00    +0.000 S 
ATOM     13  C   UNL     1       1.837   3.883  19.667  0.00  0.00    +0.000 A 
ATOM     14  C   UNL     1       1.130   4.698  20.519  0.00  0.00    +0.000 A 
ATOM     15  C   UNL     1       1.579   6.004  20.618  0.00  0.00    +0.000 A 
ATOM     16  C   UNL     1       2.345   6.577  19.597  0.00  0.00    +0.000 A 
ATOM     17  C   UNL     1       3.067   5.739  18.749  0.00  0.00    +0.000 A 
ATOM     18  C   UNL     1       2.921   4.366  18.926  0.00  0.00    +0.000 A 
ENDBRANCH   8   9
ENDBRANCH   4   8
BRANCH   5  19
ATOM     19  C   UNL     1       6.022   5.639  15.702  0.00  0.00    +0.000 C 
BRANCH  19  20
ATOM     20  C   UNL     1       7.118   5.113  14.743  0.00  0.00    +0.000 C 
BRANCH  20  21
ATOM     21  C   UNL     1       6.512   4.364  13.576  0.00  0.00    +0.000 A 
ATOM     22  C   UNL     1       5.133   4.113  13.522  0.00  0.00    +0.000 A 
ATOM     23  C   UNL     1       4.611   3.257  12.553  0.00  0.00    +0.000 A 
ATOM     24  C   UNL     1       5.453   2.699  11.594  0.00  0.00    +0.000 A 
ATOM     25  C   UNL     1       6.802   3.047  11.566  0.00  0.00    +0.000 A 
ATOM     26  C   UNL     1       7.332   3.876  12.554  0.00  0.00    +0.000 A 
ENDBRANCH  20  21
ENDBRANCH  19  20
ENDBRANCH   5  19
TORSDOF 6
ENDMDL
MODEL 7
REMARK VINA RESULT:      -7.0      2.557      7.455
REMARK  Name = 
REMARK  7 active torsions:
REMARK  status: ('A' for Active; 'I' for Inactive)
REMARK    1  A    between atoms: C_1  and  S_2
REMARK    2  A    between atoms: S_2  and  C_3
REMARK    3  A    between atoms: C_6  and  C_7
REMARK    4  A    between atoms: C_7  and  N_8
REMARK    5  A    between atoms: N_18  and  C_19
REMARK    6  A    between atoms: C_19  and  C_20
REMARK    7  A    between atoms: C_20  and  C_21
REMARK                            x       y       z     vdW  Elec       q    Type
REMARK                         _______ _______ _______ _____ _____    ______ ____
ROOT
ATOM      1  C   UNL     1       0.849   9.510  21.126  0.00  0.00    +0.000 A 
ATOM      2  N   UNL     1       1.336   8.598  21.907  0.00  0.00    +0.000 NA
ATOM      3  N   UNL     1       1.918   7.626  21.136  0.00  0.00    +0.000 NA
ATOM      4  C   UNL     1       1.798   7.970  19.855  0.00  0.00    +0.000 A 
ATOM      5  N   UNL     1       1.108   9.149  19.803  0.00  0.00    +0.000 N 
ENDROOT
BRANCH   1   7
ATOM      6  C   UNL     1      -0.868  10.375  23.102  0.00  0.00    +0.000 C 
ATOM      7  S   UNL     1      -0.016  10.927  21.602  0.00  0.00    +0.000 S 
ENDBRANCH   1   7
BRANCH   4   8
ATOM      8  C   UNL     1       2.206   7.164  18.668  0.00  0.00    +0.000 C 
BRANCH   8   9
ATOM      9  N   UNL     1       2.976   5.963  18.890  0.00  0.00    +0.000 N 
ATOM     10  C   UNL     1       4.274   5.885  18.381  0.00  0.00    +0.000 A 
ATOM     11  O   UNL     1       4.893   6.768  17.806  0.00  0.00    +0.000 OA
ATOM     12  S   UNL     1       4.974   4.295  18.672  0.00  0.00    +0.000 S 
ATOM     13  C   UNL     1       3.529   3.799  19.548  0.00  0.00    +0.000 A 
ATOM     14  C   UNL     1       3.446   2.725  20.401  0.00  0.00    +0.000 A 
ATOM     15  C   UNL     1       2.338   2.697  21.232  0.00  0.00    +0.000 A 
ATOM     16  C   UNL     1       1.176   3.402  20.899  0.00  0.00    +0.000 A 
ATOM     17  C   UNL     1       1.277   4.497  20.043  0.00  0.00    +0.000 A 
ATOM     18  C   UNL     1       2.531   4.779  19.507  0.00  0.00    +0.000 A 
ENDBRANCH   8   9
ENDBRANCH   4   8
BRANCH   5  19
ATOM     19  C   UNL     1       0.857   9.964  18.629  0.00  0.00    +0.000 C 
BRANCH  19  20
ATOM     20  C   UNL     1      -0.232   9.497  17.634  0.00  0.00    +0.000 C 
BRANCH  20  21
ATOM     21  C   UNL     1      -1.511  10.288  17.808  0.00  0.00    +0.000 A 
ATOM     22  C   UNL     1      -1.516  11.495  18.524  0.00  0.00    +0.000 A 
ATOM     23  C   UNL     1      -2.722  12.114  18.851  0.00  0.00    +0.000 A 
ATOM     24  C   UNL     1      -3.924  11.567  18.409  0.00  0.00    +0.000 A 
ATOM     25  C   UNL     1      -3.917  10.441  17.590  0.00  0.00    +0.000 A 
ATOM     26  C   UNL     1      -2.714   9.800  17.290  0.00  0.00    +0.000 A 
ENDBRANCH  20  21
ENDBRANCH  19  20
ENDBRANCH   5  19
TORSDOF 6
ENDMDL
MODEL 8
REMARK VINA RESULT:      -7.0      0.668      1.152
REMARK  Name = 
REMARK  7 active torsions:
REMARK  status: ('A' for Active; 'I' for Inactive)
REMARK    1  A    between atoms: C_1  and  S_2
REMARK    2  A    between atoms: S_2  and  C_3
REMARK    3  A    between atoms: C_6  and  C_7
REMARK    4  A    between atoms: C_7  and  N_8
REMARK    5  A    between atoms: N_18  and  C_19
REMARK    6  A    between atoms: C_19  and  C_20
REMARK    7  A    between atoms: C_20  and  C_21
REMARK                            x       y       z     vdW  Elec       q    Type
REMARK                         _______ _______ _______ _____ _____    ______ ____
ROOT
ATOM      1  C   UNL     1       1.862   3.592  19.764  0.00  0.00    +0.000 A 
ATOM      2  N   UNL     1       0.870   4.034  20.471  0.00  0.00    +0.000 NA
ATOM      3  N   UNL     1       1.014   5.388  20.628  0.00  0.00    +0.000 NA
ATOM      4  C   UNL     1       2.111   5.777  19.980  0.00  0.00    +0.000 A 
ATOM      5  N   UNL     1       2.690   4.665  19.435  0.00  0.00    +0.000 N 
ENDROOT
BRANCH   1   7
ATOM      6  C   UNL     1       2.509   2.090  17.543  0.00  0.00    +0.000 C 
ATOM      7  S   UNL     1       2.164   1.951  19.316  0.00  0.00    +0.000 S 
ENDBRANCH   1   7
BRANCH   4   8
ATOM      8  C   UNL     1       2.700   7.147  19.959  0.00  0.00    +0.000 C 
BRANCH   8   9
ATOM      9  N   UNL     1       1.809   8.273  19.799  0.00  0.00    +0.000 N 
ATOM     10  C   UNL     1       1.547   8.753  18.514  0.00  0.00    +0.000 A 
ATOM     11  O   UNL     1       1.939   8.280  17.458  0.00  0.00    +0.000 OA
ATOM     12  S   UNL     1       0.532  10.191  18.571  0.00  0.00    +0.000 S 
ATOM     13  C   UNL     1       0.415  10.061  20.324  0.00  0.00    +0.000 A 
ATOM     14  C   UNL     1      -0.528  10.684  21.106  0.00  0.00    +0.000 A 
ATOM     15  C   UNL     1      -0.654  10.204  22.399  0.00  0.00    +0.000 A 
ATOM     16  C   UNL     1       0.395   9.508  23.009  0.00  0.00    +0.000 A 
ATOM     17  C   UNL     1       1.337   8.870  22.204  0.00  0.00    +0.000 A 
ATOM     18  C   UNL     1       1.215   9.029  20.825  0.00  0.00    +0.000 A 
ENDBRANCH   8   9
ENDBRANCH   4   8
BRANCH   5  19
ATOM     19  C   UNL     1       3.828   4.625  18.536  0.00  0.00    +0.000 C 
BRANCH  19  20
ATOM     20  C   UNL     1       5.242   4.500  19.153  0.00  0.00    +0.000 C 
BRANCH  20  21
ATOM     21  C   UNL     1       6.184   5.539  18.582  0.00  0.00    +0.000 A 
ATOM     22  C   UNL     1       7.429   5.784  19.180  0.00  0.00    +0.000 A 
ATOM     23  C   UNL     1       8.202   6.871  18.774  0.00  0.00    +0.000 A 
ATOM     24  C   UNL     1       7.767   7.680  17.727  0.00  0.00    +0.000 A 
ATOM     25  C   UNL     1       6.594   7.364  17.046  0.00  0.00    +0.000 A 
ATOM     26  C   UNL     1       5.802   6.298  17.472  0.00  0.00    +0.000 A 
ENDBRANCH  20  21
ENDBRANCH  19  20
ENDBRANCH   5  19
TORSDOF 6
ENDMDL
MODEL 9
REMARK VINA RESULT:      -6.9      2.567      7.537
REMARK  Name = 
REMARK  7 active torsions:
REMARK  status: ('A' for Active; 'I' for Inactive)
REMARK    1  A    between atoms: C_1  and  S_2
REMARK    2  A    between atoms: S_2  and  C_3
REMARK    3  A    between atoms: C_6  and  C_7
REMARK    4  A    between atoms: C_7  and  N_8
REMARK    5  A    between atoms: N_18  and  C_19
REMARK    6  A    between atoms: C_19  and  C_20
REMARK    7  A    between atoms: C_20  and  C_21
REMARK                            x       y       z     vdW  Elec       q    Type
REMARK                         _______ _______ _______ _____ _____    ______ ____
ROOT
ATOM      1  C   UNL     1       1.019   8.915  20.707  0.00  0.00    +0.000 A 
ATOM      2  N   UNL     1       1.544   7.867  21.261  0.00  0.00    +0.000 NA
ATOM      3  N   UNL     1       2.193   7.141  20.297  0.00  0.00    +0.000 NA
ATOM      4  C   UNL     1       2.075   7.777  19.134  0.00  0.00    +0.000 A 
ATOM      5  N   UNL     1       1.320   8.898  19.346  0.00  0.00    +0.000 N 
ENDROOT
BRANCH   1   7
ATOM      6  C   UNL     1      -0.068   9.493  23.175  0.00  0.00    +0.000 C 
ATOM      7  S   UNL     1       0.068  10.130  21.484  0.00  0.00    +0.000 S 
ENDBRANCH   1   7
BRANCH   4   8
ATOM      8  C   UNL     1       2.547   7.304  17.800  0.00  0.00    +0.000 C 
BRANCH   8   9
ATOM      9  N   UNL     1       3.303   6.074  17.740  0.00  0.00    +0.000 N 
ATOM     10  C   UNL     1       4.676   6.133  17.496  0.00  0.00    +0.000 A 
ATOM     11  O   UNL     1       5.362   7.138  17.390  0.00  0.00    +0.000 OA
ATOM     12  S   UNL     1       5.363   4.517  17.353  0.00  0.00    +0.000 S 
ATOM     13  C   UNL     1       3.795   3.799  17.710  0.00  0.00    +0.000 A 
ATOM     14  C   UNL     1       3.588   2.501  18.110  0.00  0.00    +0.000 A 
ATOM     15  C   UNL     1       2.343   2.226  18.650  0.00  0.00    +0.000 A 
ATOM     16  C   UNL     1       1.242   3.041  18.362  0.00  0.00    +0.000 A 
ATOM     17  C   UNL     1       1.467   4.359  17.970  0.00  0.00    +0.000 A 
ATOM     18  C   UNL     1       2.790   4.766  17.816  0.00  0.00    +0.000 A 
ENDBRANCH   8   9
ENDBRANCH   4   8
BRANCH   5  19
ATOM     19  C   UNL     1       1.044   9.958  18.394  0.00  0.00    +0.000 C 
BRANCH  19  20
ATOM     20  C   UNL     1       0.045  11.066  18.806  0.00  0.00    +0.000 C 
BRANCH  20  21
ATOM     21  C   UNL     1      -1.318  10.832  18.191  0.00  0.00    +0.000 A 
ATOM     22  C   UNL     1      -1.496   9.871  17.184  0.00  0.00    +0.000 A 
ATOM     23  C   UNL     1      -2.700   9.799  16.486  0.00  0.00    +0.000 A 
ATOM     24  C   UNL     1      -3.755  10.640  16.832  0.00  0.00    +0.000 A 
ATOM     25  C   UNL     1      -3.626  11.507  17.915  0.00  0.00    +0.000 A 
ATOM     26  C   UNL     1      -2.412  11.605  18.593  0.00  0.00    +0.000 A 
ENDBRANCH  20  21
ENDBRANCH  19  20
ENDBRANCH   5  19
TORSDOF 6
ENDMDL
