MODEL 1
REMARK VINA RESULT:      -8.4      0.000      0.000
REMARK  Name = 
REMARK  14 active torsions:
REMARK  status: ('A' for Active; 'I' for Inactive)
REMARK    1  A    between atoms: C_1  and  C_2
REMARK    2  A    between atoms: C_3  and  C_4
REMARK    3  A    between atoms: C_5  and  C_6
REMARK    4  A    between atoms: C_7  and  C_8
REMARK    5  A    between atoms: C_8  and  C_9
REMARK    6  A    between atoms: C_8  and  C_17
REMARK    7  A    between atoms: C_9  and  C_10
REMARK    8  A    between atoms: C_10  and  C_11
REMARK    9  A    between atoms: C_11  and  C_12
REMARK   10  A    between atoms: C_12  and  C_13
REMARK   11  A    between atoms: C_13  and  C_14
REMARK   12  A    between atoms: C_14  and  O_16
REMARK   13  A    between atoms: C_24  and  O_25
REMARK   14  A    between atoms: C_26  and  C_27
REMARK                            x       y       z     vdW  Elec       q    Type
REMARK                         _______ _______ _______ _____ _____    ______ ____
ROOT
ATOM      1  C   UNL     1       5.954   6.210  17.049  0.00  0.00    +0.000 C 
ENDROOT
BRANCH   1   8
ATOM      2  C   UNL     1       2.044   4.283  21.107  0.00  0.00    +0.000 C 
ATOM      3  C   UNL     1       2.993   4.810  20.049  0.00  0.00    +0.000 A 
ATOM      4  C   UNL     1       2.879   6.102  19.481  0.00  0.00    +0.000 A 
ATOM      5  C   UNL     1       1.862   7.102  19.993  0.00  0.00    +0.000 C 
ATOM      6  C   UNL     1       3.746   6.486  18.397  0.00  0.00    +0.000 A 
ATOM      7  C   UNL     1       3.396   7.760  17.651  0.00  0.00    +0.000 C 
ATOM      8  C   UNL     1       4.893   5.701  18.059  0.00  0.00    +0.000 A 
ATOM      9  C   UNL     1       4.996   4.456  18.715  0.00  0.00    +0.000 A 
ATOM     10  C   UNL     1       4.030   3.968  19.618  0.00  0.00    +0.000 A 
ATOM     11  C   UNL     1       4.146   2.557  20.156  0.00  0.00    +0.000 C 
BRANCH   9  12
ATOM     12  O   UNL     1       6.066   3.625  18.529  0.00  0.00    +0.000 OA
ATOM     13  H   UNL     1       6.648   3.735  19.291  0.00  0.00    +0.000 HD
ENDBRANCH   9  12
ENDBRANCH   1   8
BRANCH   1  14
ATOM     14  C   UNL     1       6.206   5.335  15.805  0.00  0.00    +0.000 A 
ATOM     15  C   UNL     1       5.146   4.575  15.267  0.00  0.00    +0.000 A 
ATOM     16  C   UNL     1       5.256   3.974  14.006  0.00  0.00    +0.000 A 
ATOM     17  C   UNL     1       6.432   4.103  13.280  0.00  0.00    +0.000 A 
ATOM     18  F   UNL     1       6.522   3.572  12.055  0.00  0.00    +0.000 F 
ATOM     19  C   UNL     1       7.505   4.808  13.796  0.00  0.00    +0.000 A 
ATOM     20  C   UNL     1       7.387   5.424  15.046  0.00  0.00    +0.000 A 
ENDBRANCH   1  14
BRANCH   1  21
ATOM     21  C   UNL     1       7.307   6.673  17.697  0.00  0.00    +0.000 C 
BRANCH  21  22
ATOM     22  C   UNL     1       7.532   8.190  17.572  0.00  0.00    +0.000 C 
BRANCH  22  23
ATOM     23  C   UNL     1       8.628   8.751  18.484  0.00  0.00    +0.000 C 
BRANCH  23  24
ATOM     24  C   UNL     1       8.776  10.250  18.193  0.00  0.00    +0.000 C 
BRANCH  24  25
ATOM     25  C   UNL     1      10.030  10.881  18.789  0.00  0.00    +0.000 C 
BRANCH  25  26
ATOM     26  C   UNL     1      10.641  11.871  17.815  0.00  0.00    +0.000 C 
ATOM     27  O   UNL     1      10.063  12.822  17.313  0.00  0.00    +0.000 OA
BRANCH  26  28
ATOM     28  O   UNL     1      11.937  11.591  17.546  0.00  0.00    +0.000 OA
ATOM     29  H   UNL     1      12.248  10.755  17.932  0.00  0.00    +0.000 HD
ENDBRANCH  26  28
ENDBRANCH  25  26
ENDBRANCH  24  25
ENDBRANCH  23  24
ENDBRANCH  22  23
ENDBRANCH  21  22
ENDBRANCH   1  21
TORSDOF 10
ENDMDL
MODEL 2
REMARK VINA RESULT:      -8.3      4.103      6.283
REMARK  Name = 
REMARK  14 active torsions:
REMARK  status: ('A' for Active; 'I' for Inactive)
REMARK    1  A    between atoms: C_1  and  C_2
REMARK    2  A    between atoms: C_3  and  C_4
REMARK    3  A    between atoms: C_5  and  C_6
REMARK    4  A    between atoms: C_7  and  C_8
REMARK    5  A    between atoms: C_8  and  C_9
REMARK    6  A    between atoms: C_8  and  C_17
REMARK    7  A    between atoms: C_9  and  C_10
REMARK    8  A    between atoms: C_10  and  C_11
REMARK    9  A    between atoms: C_11  and  C_12
REMARK   10  A    between atoms: C_12  and  C_13
REMARK   11  A    between atoms: C_13  and  C_14
REMARK   12  A    between atoms: C_14  and  O_16
REMARK   13  A    between atoms: C_24  and  O_25
REMARK   14  A    between atoms: C_26  and  C_27
REMARK                            x       y       z     vdW  Elec       q    Type
REMARK                         _______ _______ _______ _____ _____    ______ ____
ROOT
ATOM      1  C   UNL     1       5.422   4.791  16.741  0.00  0.00    +0.000 C 
ENDROOT
BRANCH   1   8
ATOM      2  C   UNL     1       0.805   3.974  20.415  0.00  0.00    +0.000 C 
ATOM      3  C   UNL     1       1.956   4.239  19.465  0.00  0.00    +0.000 A 
ATOM      4  C   UNL     1       2.451   5.538  19.192  0.00  0.00    +0.000 A 
ATOM      5  C   UNL     1       1.937   6.751  19.939  0.00  0.00    +0.000 C 
ATOM      6  C   UNL     1       3.468   5.719  18.188  0.00  0.00    +0.000 A 
ATOM      7  C   UNL     1       3.754   7.142  17.744  0.00  0.00    +0.000 C 
ATOM      8  C   UNL     1       4.180   4.601  17.652  0.00  0.00    +0.000 A 
ATOM      9  C   UNL     1       3.690   3.330  18.022  0.00  0.00    +0.000 A 
ATOM     10  C   UNL     1       2.552   3.138  18.829  0.00  0.00    +0.000 A 
ATOM     11  C   UNL     1       2.009   1.741  19.048  0.00  0.00    +0.000 C 
BRANCH   9  12
ATOM     12  O   UNL     1       4.305   2.173  17.627  0.00  0.00    +0.000 OA
ATOM     13  H   UNL     1       4.297   1.574  18.383  0.00  0.00    +0.000 HD
ENDBRANCH   9  12
ENDBRANCH   1   8
BRANCH   1  14
ATOM     14  C   UNL     1       6.563   5.668  17.295  0.00  0.00    +0.000 A 
ATOM     15  C   UNL     1       6.815   6.927  16.709  0.00  0.00    +0.000 A 
ATOM     16  C   UNL     1       7.660   7.856  17.331  0.00  0.00    +0.000 A 
ATOM     17  C   UNL     1       8.281   7.530  18.529  0.00  0.00    +0.000 A 
ATOM     18  F   UNL     1       9.048   8.433  19.150  0.00  0.00    +0.000 F 
ATOM     19  C   UNL     1       8.086   6.289  19.110  0.00  0.00    +0.000 A 
ATOM     20  C   UNL     1       7.228   5.371  18.498  0.00  0.00    +0.000 A 
ENDBRANCH   1  14
BRANCH   1  21
ATOM     21  C   UNL     1       5.091   5.168  15.253  0.00  0.00    +0.000 C 
BRANCH  21  22
ATOM     22  C   UNL     1       5.516   4.071  14.260  0.00  0.00    +0.000 C 
BRANCH  22  23
ATOM     23  C   UNL     1       6.905   4.271  13.644  0.00  0.00    +0.000 C 
BRANCH  23  24
ATOM     24  C   UNL     1       6.779   4.133  12.121  0.00  0.00    +0.000 C 
BRANCH  24  25
ATOM     25  C   UNL     1       7.095   2.738  11.592  0.00  0.00    +0.000 C 
BRANCH  25  26
ATOM     26  C   UNL     1       5.821   1.932  11.422  0.00  0.00    +0.000 C 
ATOM     27  O   UNL     1       4.705   2.397  11.246  0.00  0.00    +0.000 OA
BRANCH  26  28
ATOM     28  O   UNL     1       6.045   0.600  11.486  0.00  0.00    +0.000 OA
ATOM     29  H   UNL     1       6.855   0.313  11.032  0.00  0.00    +0.000 HD
ENDBRANCH  26  28
ENDBRANCH  25  26
ENDBRANCH  24  25
ENDBRANCH  23  24
ENDBRANCH  22  23
ENDBRANCH  21  22
ENDBRANCH   1  21
TORSDOF 10
ENDMDL
MODEL 3
REMARK VINA RESULT:      -8.2      0.961      1.207
REMARK  Name = 
REMARK  14 active torsions:
REMARK  status: ('A' for Active; 'I' for Inactive)
REMARK    1  A    between atoms: C_1  and  C_2
REMARK    2  A    between atoms: C_3  and  C_4
REMARK    3  A    between atoms: C_5  and  C_6
REMARK    4  A    between atoms: C_7  and  C_8
REMARK    5  A    between atoms: C_8  and  C_9
REMARK    6  A    between atoms: C_8  and  C_17
REMARK    7  A    between atoms: C_9  and  C_10
REMARK    8  A    between atoms: C_10  and  C_11
REMARK    9  A    between atoms: C_11  and  C_12
REMARK   10  A    between atoms: C_12  and  C_13
REMARK   11  A    between atoms: C_13  and  C_14
REMARK   12  A    between atoms: C_14  and  O_16
REMARK   13  A    between atoms: C_24  and  O_25
REMARK   14  A    between atoms: C_26  and  C_27
REMARK                            x       y       z     vdW  Elec       q    Type
REMARK                         _______ _______ _______ _____ _____    ______ ____
ROOT
ATOM      1  C   UNL     1       6.150   5.723  17.424  0.00  0.00    +0.000 C 
ENDROOT
BRANCH   1   8
ATOM      2  C   UNL     1       1.392   4.579  20.819  0.00  0.00    +0.000 C 
ATOM      3  C   UNL     1       2.567   4.911  19.921  0.00  0.00    +0.000 A 
ATOM      4  C   UNL     1       2.738   6.175  19.305  0.00  0.00    +0.000 A 
ATOM      5  C   UNL     1       1.810   7.333  19.610  0.00  0.00    +0.000 C 
ATOM      6  C   UNL     1       3.817   6.376  18.372  0.00  0.00    +0.000 A 
ATOM      7  C   UNL     1       3.784   7.645  17.541  0.00  0.00    +0.000 C 
ATOM      8  C   UNL     1       4.875   5.421  18.255  0.00  0.00    +0.000 A 
ATOM      9  C   UNL     1       4.686   4.210  18.954  0.00  0.00    +0.000 A 
ATOM     10  C   UNL     1       3.525   3.911  19.695  0.00  0.00    +0.000 A 
ATOM     11  C   UNL     1       3.343   2.528  20.285  0.00  0.00    +0.000 C 
BRANCH   9  12
ATOM     12  O   UNL     1       5.639   3.229  18.974  0.00  0.00    +0.000 OA
ATOM     13  H   UNL     1       6.009   3.174  18.084  0.00  0.00    +0.000 HD
ENDBRANCH   9  12
ENDBRANCH   1   8
BRANCH   1  14
ATOM     14  C   UNL     1       6.291   4.988  16.075  0.00  0.00    +0.000 A 
ATOM     15  C   UNL     1       5.176   4.312  15.536  0.00  0.00    +0.000 A 
ATOM     16  C   UNL     1       5.182   3.854  14.211  0.00  0.00    +0.000 A 
ATOM     17  C   UNL     1       6.306   4.043  13.420  0.00  0.00    +0.000 A 
ATOM     18  F   UNL     1       6.296   3.651  12.141  0.00  0.00    +0.000 F 
ATOM     19  C   UNL     1       7.431   4.667  13.931  0.00  0.00    +0.000 A 
ATOM     20  C   UNL     1       7.416   5.141  15.246  0.00  0.00    +0.000 A 
ENDBRANCH   1  14
BRANCH   1  21
ATOM     21  C   UNL     1       7.491   5.670  18.238  0.00  0.00    +0.000 C 
BRANCH  21  22
ATOM     22  C   UNL     1       8.080   7.069  18.494  0.00  0.00    +0.000 C 
BRANCH  22  23
ATOM     23  C   UNL     1       7.759   8.105  17.410  0.00  0.00    +0.000 C 
BRANCH  23  24
ATOM     24  C   UNL     1       8.030   9.501  17.985  0.00  0.00    +0.000 C 
BRANCH  24  25
ATOM     25  C   UNL     1       9.114   9.535  19.058  0.00  0.00    +0.000 C 
BRANCH  25  26
ATOM     26  C   UNL     1       9.479  10.967  19.399  0.00  0.00    +0.000 C 
ATOM     27  O   UNL     1      10.017  11.336  20.432  0.00  0.00    +0.000 OA
BRANCH  26  28
ATOM     28  O   UNL     1       9.141  11.831  18.415  0.00  0.00    +0.000 OA
ATOM     29  H   UNL     1       8.530  12.531  18.697  0.00  0.00    +0.000 HD
ENDBRANCH  26  28
ENDBRANCH  25  26
ENDBRANCH  24  25
ENDBRANCH  23  24
ENDBRANCH  22  23
ENDBRANCH  21  22
ENDBRANCH   1  21
TORSDOF 10
ENDMDL
MODEL 4
REMARK VINA RESULT:      -8.0      0.663      1.349
REMARK  Name = 
REMARK  14 active torsions:
REMARK  status: ('A' for Active; 'I' for Inactive)
REMARK    1  A    between atoms: C_1  and  C_2
REMARK    2  A    between atoms: C_3  and  C_4
REMARK    3  A    between atoms: C_5  and  C_6
REMARK    4  A    between atoms: C_7  and  C_8
REMARK    5  A    between atoms: C_8  and  C_9
REMARK    6  A    between atoms: C_8  and  C_17
REMARK    7  A    between atoms: C_9  and  C_10
REMARK    8  A    between atoms: C_10  and  C_11
REMARK    9  A    between atoms: C_11  and  C_12
REMARK   10  A    between atoms: C_12  and  C_13
REMARK   11  A    between atoms: C_13  and  C_14
REMARK   12  A    between atoms: C_14  and  O_16
REMARK   13  A    between atoms: C_24  and  O_25
REMARK   14  A    between atoms: C_26  and  C_27
REMARK                            x       y       z     vdW  Elec       q    Type
REMARK                         _______ _______ _______ _____ _____    ______ ____
ROOT
ATOM      1  C   UNL     1       6.131   5.877  17.226  0.00  0.00    +0.000 C 
ENDROOT
BRANCH   1   8
ATOM      2  C   UNL     1       1.559   4.673  20.850  0.00  0.00    +0.000 C 
ATOM      3  C   UNL     1       2.685   5.021  19.896  0.00  0.00    +0.000 A 
ATOM      4  C   UNL     1       2.818   6.292  19.286  0.00  0.00    +0.000 A 
ATOM      5  C   UNL     1       1.901   7.442  19.651  0.00  0.00    +0.000 C 
ATOM      6  C   UNL     1       3.846   6.508  18.301  0.00  0.00    +0.000 A 
ATOM      7  C   UNL     1       3.764   7.786  17.487  0.00  0.00    +0.000 C 
ATOM      8  C   UNL     1       4.902   5.561  18.119  0.00  0.00    +0.000 A 
ATOM      9  C   UNL     1       4.755   4.341  18.814  0.00  0.00    +0.000 A 
ATOM     10  C   UNL     1       3.635   4.028  19.610  0.00  0.00    +0.000 A 
ATOM     11  C   UNL     1       3.490   2.637  20.193  0.00  0.00    +0.000 C 
BRANCH   9  12
ATOM     12  O   UNL     1       5.712   3.364  18.774  0.00  0.00    +0.000 OA
ATOM     13  H   UNL     1       6.482   3.701  19.248  0.00  0.00    +0.000 HD
ENDBRANCH   9  12
ENDBRANCH   1   8
BRANCH   1  14
ATOM     14  C   UNL     1       6.108   5.321  15.789  0.00  0.00    +0.000 A 
ATOM     15  C   UNL     1       7.244   5.480  14.967  0.00  0.00    +0.000 A 
ATOM     16  C   UNL     1       7.365   4.778  13.760  0.00  0.00    +0.000 A 
ATOM     17  C   UNL     1       6.346   3.932  13.348  0.00  0.00    +0.000 A 
ATOM     18  F   UNL     1       6.481   3.223  12.222  0.00  0.00    +0.000 F 
ATOM     19  C   UNL     1       5.201   3.784  14.111  0.00  0.00    +0.000 A 
ATOM     20  C   UNL     1       5.090   4.470  15.325  0.00  0.00    +0.000 A 
ENDBRANCH   1  14
BRANCH   1  21
ATOM     21  C   UNL     1       7.520   5.620  17.910  0.00  0.00    +0.000 C 
BRANCH  21  22
ATOM     22  C   UNL     1       8.055   6.863  18.643  0.00  0.00    +0.000 C 
BRANCH  22  23
ATOM     23  C   UNL     1       7.924   8.173  17.858  0.00  0.00    +0.000 C 
BRANCH  23  24
ATOM     24  C   UNL     1       8.713   9.259  18.602  0.00  0.00    +0.000 C 
BRANCH  24  25
ATOM     25  C   UNL     1       8.760  10.602  17.878  0.00  0.00    +0.000 C 
BRANCH  25  26
ATOM     26  C   UNL     1       9.850  11.481  18.461  0.00  0.00    +0.000 C 
ATOM     27  O   UNL     1      10.664  11.137  19.305  0.00  0.00    +0.000 OA
BRANCH  26  28
ATOM     28  O   UNL     1       9.837  12.729  17.939  0.00  0.00    +0.000 OA
ATOM     29  H   UNL     1      10.716  13.067  17.703  0.00  0.00    +0.000 HD
ENDBRANCH  26  28
ENDBRANCH  25  26
ENDBRANCH  24  25
ENDBRANCH  23  24
ENDBRANCH  22  23
ENDBRANCH  21  22
ENDBRANCH   1  21
TORSDOF 10
ENDMDL
MODEL 5
REMARK VINA RESULT:      -7.7      4.043      6.988
REMARK  Name = 
REMARK  14 active torsions:
REMARK  status: ('A' for Active; 'I' for Inactive)
REMARK    1  A    between atoms: C_1  and  C_2
REMARK    2  A    between atoms: C_3  and  C_4
REMARK    3  A    between atoms: C_5  and  C_6
REMARK    4  A    between atoms: C_7  and  C_8
REMARK    5  A    between atoms: C_8  and  C_9
REMARK    6  A    between atoms: C_8  and  C_17
REMARK    7  A    between atoms: C_9  and  C_10
REMARK    8  A    between atoms: C_10  and  C_11
REMARK    9  A    between atoms: C_11  and  C_12
REMARK   10  A    between atoms: C_12  and  C_13
REMARK   11  A    between atoms: C_13  and  C_14
REMARK   12  A    between atoms: C_14  and  O_16
REMARK   13  A    between atoms: C_24  and  O_25
REMARK   14  A    between atoms: C_26  and  C_27
REMARK                            x       y       z     vdW  Elec       q    Type
REMARK                         _______ _______ _______ _____ _____    ______ ____
ROOT
ATOM      1  C   UNL     1       2.606   5.761  18.652  0.00  0.00    +0.000 C 
ENDROOT
BRANCH   1   8
ATOM      2  C   UNL     1       0.669  11.215  20.058  0.00  0.00    +0.000 C 
ATOM      3  C   UNL     1       1.165   9.814  19.762  0.00  0.00    +0.000 A 
ATOM      4  C   UNL     1       0.908   8.707  20.607  0.00  0.00    +0.000 A 
ATOM      5  C   UNL     1      -0.001   8.830  21.813  0.00  0.00    +0.000 C 
ATOM      6  C   UNL     1       1.513   7.432  20.320  0.00  0.00    +0.000 A 
ATOM      7  C   UNL     1       1.430   6.370  21.401  0.00  0.00    +0.000 C 
ATOM      8  C   UNL     1       2.147   7.185  19.063  0.00  0.00    +0.000 A 
ATOM      9  C   UNL     1       2.307   8.312  18.227  0.00  0.00    +0.000 A 
ATOM     10  C   UNL     1       1.917   9.615  18.593  0.00  0.00    +0.000 A 
ATOM     11  C   UNL     1       2.267  10.786  17.698  0.00  0.00    +0.000 C 
BRANCH   9  12
ATOM     12  O   UNL     1       2.849   8.214  16.975  0.00  0.00    +0.000 OA
ATOM     13  H   UNL     1       2.934   7.274  16.775  0.00  0.00    +0.000 HD
ENDBRANCH   9  12
ENDBRANCH   1   8
BRANCH   1  14
ATOM     14  C   UNL     1       4.089   5.593  18.265  0.00  0.00    +0.000 A 
ATOM     15  C   UNL     1       5.077   5.632  19.272  0.00  0.00    +0.000 A 
ATOM     16  C   UNL     1       6.394   5.234  19.008  0.00  0.00    +0.000 A 
ATOM     17  C   UNL     1       6.746   4.818  17.732  0.00  0.00    +0.000 A 
ATOM     18  F   UNL     1       7.990   4.390  17.488  0.00  0.00    +0.000 F 
ATOM     19  C   UNL     1       5.812   4.806  16.711  0.00  0.00    +0.000 A 
ATOM     20  C   UNL     1       4.493   5.185  16.981  0.00  0.00    +0.000 A 
ENDBRANCH   1  14
BRANCH   1  21
ATOM     21  C   UNL     1       1.668   5.043  17.618  0.00  0.00    +0.000 C 
BRANCH  21  22
ATOM     22  C   UNL     1       1.245   3.638  18.084  0.00  0.00    +0.000 C 
BRANCH  22  23
ATOM     23  C   UNL     1       0.933   3.529  19.581  0.00  0.00    +0.000 C 
BRANCH  23  24
ATOM     24  C   UNL     1       1.742   2.359  20.156  0.00  0.00    +0.000 C 
BRANCH  24  25
ATOM     25  C   UNL     1       3.159   2.730  20.584  0.00  0.00    +0.000 C 
BRANCH  25  26
ATOM     26  C   UNL     1       4.177   2.109  19.646  0.00  0.00    +0.000 C 
ATOM     27  O   UNL     1       4.051   1.996  18.436  0.00  0.00    +0.000 OA
BRANCH  26  28
ATOM     28  O   UNL     1       5.279   1.676  20.300  0.00  0.00    +0.000 OA
ATOM     29  H   UNL     1       5.289   0.719  20.464  0.00  0.00    +0.000 HD
ENDBRANCH  26  28
ENDBRANCH  25  26
ENDBRANCH  24  25
ENDBRANCH  23  24
ENDBRANCH  22  23
ENDBRANCH  21  22
ENDBRANCH   1  21
TORSDOF 10
ENDMDL
MODEL 6
REMARK VINA RESULT:      -7.7      3.519      6.652
REMARK  Name = 
REMARK  14 active torsions:
REMARK  status: ('A' for Active; 'I' for Inactive)
REMARK    1  A    between atoms: C_1  and  C_2
REMARK    2  A    between atoms: C_3  and  C_4
REMARK    3  A    between atoms: C_5  and  C_6
REMARK    4  A    between atoms: C_7  and  C_8
REMARK    5  A    between atoms: C_8  and  C_9
REMARK    6  A    between atoms: C_8  and  C_17
REMARK    7  A    between atoms: C_9  and  C_10
REMARK    8  A    between atoms: C_10  and  C_11
REMARK    9  A    between atoms: C_11  and  C_12
REMARK   10  A    between atoms: C_12  and  C_13
REMARK   11  A    between atoms: C_13  and  C_14
REMARK   12  A    between atoms: C_14  and  O_16
REMARK   13  A    between atoms: C_24  and  O_25
REMARK   14  A    between atoms: C_26  and  C_27
REMARK                            x       y       z     vdW  Elec       q    Type
REMARK                         _______ _______ _______ _____ _____    ______ ____
ROOT
ATOM      1  C   UNL     1       5.365   4.664  16.920  0.00  0.00    +0.000 C 
ENDROOT
BRANCH   1   8
ATOM      2  C   UNL     1       0.548   4.246  20.398  0.00  0.00    +0.000 C 
ATOM      3  C   UNL     1       1.788   4.292  19.528  0.00  0.00    +0.000 A 
ATOM      4  C   UNL     1       2.318   3.153  18.874  0.00  0.00    +0.000 A 
ATOM      5  C   UNL     1       1.595   1.822  18.900  0.00  0.00    +0.000 C 
ATOM      6  C   UNL     1       3.565   3.253  18.162  0.00  0.00    +0.000 A 
ATOM      7  C   UNL     1       4.217   1.954  17.726  0.00  0.00    +0.000 C 
ATOM      8  C   UNL     1       4.147   4.527  17.871  0.00  0.00    +0.000 A 
ATOM      9  C   UNL     1       3.529   5.636  18.488  0.00  0.00    +0.000 A 
ATOM     10  C   UNL     1       2.437   5.528  19.371  0.00  0.00    +0.000 A 
ATOM     11  C   UNL     1       1.937   6.754  20.106  0.00  0.00    +0.000 C 
BRANCH   9  12
ATOM     12  O   UNL     1       3.946   6.918  18.258  0.00  0.00    +0.000 OA
ATOM     13  H   UNL     1       4.778   7.036  18.732  0.00  0.00    +0.000 HD
ENDBRANCH   9  12
ENDBRANCH   1   8
BRANCH   1  14
ATOM     14  C   UNL     1       6.515   5.576  17.392  0.00  0.00    +0.000 A 
ATOM     15  C   UNL     1       6.734   6.809  16.739  0.00  0.00    +0.000 A 
ATOM     16  C   UNL     1       7.590   7.773  17.287  0.00  0.00    +0.000 A 
ATOM     17  C   UNL     1       8.255   7.511  18.476  0.00  0.00    +0.000 A 
ATOM     18  F   UNL     1       9.034   8.449  19.027  0.00  0.00    +0.000 F 
ATOM     19  C   UNL     1       8.094   6.297  19.121  0.00  0.00    +0.000 A 
ATOM     20  C   UNL     1       7.225   5.343  18.583  0.00  0.00    +0.000 A 
ENDBRANCH   1  14
BRANCH   1  21
ATOM     21  C   UNL     1       4.998   4.947  15.421  0.00  0.00    +0.000 C 
BRANCH  21  22
ATOM     22  C   UNL     1       5.450   3.816  14.480  0.00  0.00    +0.000 C 
BRANCH  22  23
ATOM     23  C   UNL     1       6.668   4.155  13.613  0.00  0.00    +0.000 C 
BRANCH  23  24
ATOM     24  C   UNL     1       6.298   3.899  12.146  0.00  0.00    +0.000 C 
BRANCH  24  25
ATOM     25  C   UNL     1       5.595   2.567  11.903  0.00  0.00    +0.000 C 
BRANCH  25  26
ATOM     26  C   UNL     1       6.568   1.547  11.343  0.00  0.00    +0.000 C 
ATOM     27  O   UNL     1       7.692   1.789  10.931  0.00  0.00    +0.000 OA
BRANCH  26  28
ATOM     28  O   UNL     1       6.055   0.295  11.344  0.00  0.00    +0.000 OA
ATOM     29  H   UNL     1       6.724  -0.405  11.425  0.00  0.00    +0.000 HD
ENDBRANCH  26  28
ENDBRANCH  25  26
ENDBRANCH  24  25
ENDBRANCH  23  24
ENDBRANCH  22  23
ENDBRANCH  21  22
ENDBRANCH   1  21
TORSDOF 10
ENDMDL
MODEL 7
REMARK VINA RESULT:      -7.6      4.174      6.492
REMARK  Name = 
REMARK  14 active torsions:
REMARK  status: ('A' for Active; 'I' for Inactive)
REMARK    1  A    between atoms: C_1  and  C_2
REMARK    2  A    between atoms: C_3  and  C_4
REMARK    3  A    between atoms: C_5  and  C_6
REMARK    4  A    between atoms: C_7  and  C_8
REMARK    5  A    between atoms: C_8  and  C_9
REMARK    6  A    between atoms: C_8  and  C_17
REMARK    7  A    between atoms: C_9  and  C_10
REMARK    8  A    between atoms: C_10  and  C_11
REMARK    9  A    between atoms: C_11  and  C_12
REMARK   10  A    between atoms: C_12  and  C_13
REMARK   11  A    between atoms: C_13  and  C_14
REMARK   12  A    between atoms: C_14  and  O_16
REMARK   13  A    between atoms: C_24  and  O_25
REMARK   14  A    between atoms: C_26  and  C_27
REMARK                            x       y       z     vdW  Elec       q    Type
REMARK                         _______ _______ _______ _____ _____    ______ ____
ROOT
ATOM      1  C   UNL     1       5.546   4.431  16.874  0.00  0.00    +0.000 C 
ENDROOT
BRANCH   1   8
ATOM      2  C   UNL     1       0.673   4.120  20.285  0.00  0.00    +0.000 C 
ATOM      3  C   UNL     1       1.894   4.257  19.397  0.00  0.00    +0.000 A 
ATOM      4  C   UNL     1       2.489   5.503  19.085  0.00  0.00    +0.000 A 
ATOM      5  C   UNL     1       2.012   6.789  19.731  0.00  0.00    +0.000 C 
ATOM      6  C   UNL     1       3.574   5.562  18.140  0.00  0.00    +0.000 A 
ATOM      7  C   UNL     1       3.980   6.935  17.639  0.00  0.00    +0.000 C 
ATOM      8  C   UNL     1       4.243   4.372  17.713  0.00  0.00    +0.000 A 
ATOM      9  C   UNL     1       3.648   3.157  18.120  0.00  0.00    +0.000 A 
ATOM     10  C   UNL     1       2.453   3.085  18.862  0.00  0.00    +0.000 A 
ATOM     11  C   UNL     1       1.807   1.740  19.121  0.00  0.00    +0.000 C 
BRANCH   9  12
ATOM     12  O   UNL     1       4.208   1.944  17.828  0.00  0.00    +0.000 OA
ATOM     13  H   UNL     1       3.705   1.568  17.095  0.00  0.00    +0.000 HD
ENDBRANCH   9  12
ENDBRANCH   1   8
BRANCH   1  14
ATOM     14  C   UNL     1       6.632   5.418  17.345  0.00  0.00    +0.000 A 
ATOM     15  C   UNL     1       6.799   6.642  16.662  0.00  0.00    +0.000 A 
ATOM     16  C   UNL     1       7.586   7.668  17.201  0.00  0.00    +0.000 A 
ATOM     17  C   UNL     1       8.235   7.477  18.413  0.00  0.00    +0.000 A 
ATOM     18  F   UNL     1       8.947   8.472  18.954  0.00  0.00    +0.000 F 
ATOM     19  C   UNL     1       8.125   6.274  19.089  0.00  0.00    +0.000 A 
ATOM     20  C   UNL     1       7.323   5.258  18.560  0.00  0.00    +0.000 A 
ENDBRANCH   1  14
BRANCH   1  21
ATOM     21  C   UNL     1       5.324   4.533  15.324  0.00  0.00    +0.000 C 
BRANCH  21  22
ATOM     22  C   UNL     1       6.490   3.929  14.521  0.00  0.00    +0.000 C 
BRANCH  22  23
ATOM     23  C   UNL     1       6.364   4.081  13.000  0.00  0.00    +0.000 C 
BRANCH  23  24
ATOM     24  C   UNL     1       4.905   3.811  12.610  0.00  0.00    +0.000 C 
BRANCH  24  25
ATOM     25  C   UNL     1       4.740   2.833  11.451  0.00  0.00    +0.000 C 
BRANCH  25  26
ATOM     26  C   UNL     1       3.493   3.162  10.652  0.00  0.00    +0.000 C 
ATOM     27  O   UNL     1       2.611   2.371  10.356  0.00  0.00    +0.000 OA
BRANCH  26  28
ATOM     28  O   UNL     1       3.447   4.463  10.286  0.00  0.00    +0.000 OA
ATOM     29  H   UNL     1       3.130   5.059  10.985  0.00  0.00    +0.000 HD
ENDBRANCH  26  28
ENDBRANCH  25  26
ENDBRANCH  24  25
ENDBRANCH  23  24
ENDBRANCH  22  23
ENDBRANCH  21  22
ENDBRANCH   1  21
TORSDOF 10
ENDMDL
MODEL 8
REMARK VINA RESULT:      -7.5      4.116      7.339
REMARK  Name = 
REMARK  14 active torsions:
REMARK  status: ('A' for Active; 'I' for Inactive)
REMARK    1  A    between atoms: C_1  and  C_2
REMARK    2  A    between atoms: C_3  and  C_4
REMARK    3  A    between atoms: C_5  and  C_6
REMARK    4  A    between atoms: C_7  and  C_8
REMARK    5  A    between atoms: C_8  and  C_9
REMARK    6  A    between atoms: C_8  and  C_17
REMARK    7  A    between atoms: C_9  and  C_10
REMARK    8  A    between atoms: C_10  and  C_11
REMARK    9  A    between atoms: C_11  and  C_12
REMARK   10  A    between atoms: C_12  and  C_13
REMARK   11  A    between atoms: C_13  and  C_14
REMARK   12  A    between atoms: C_14  and  O_16
REMARK   13  A    between atoms: C_24  and  O_25
REMARK   14  A    between atoms: C_26  and  C_27
REMARK                            x       y       z     vdW  Elec       q    Type
REMARK                         _______ _______ _______ _____ _____    ______ ____
ROOT
ATOM      1  C   UNL     1       2.676   5.761  18.517  0.00  0.00    +0.000 C 
ENDROOT
BRANCH   1   8
ATOM      2  C   UNL     1       0.618  11.098  20.177  0.00  0.00    +0.000 C 
ATOM      3  C   UNL     1       1.146   9.723  19.816  0.00  0.00    +0.000 A 
ATOM      4  C   UNL     1       0.921   8.574  20.613  0.00  0.00    +0.000 A 
ATOM      5  C   UNL     1       0.018   8.621  21.829  0.00  0.00    +0.000 C 
ATOM      6  C   UNL     1       1.555   7.328  20.266  0.00  0.00    +0.000 A 
ATOM      7  C   UNL     1       1.506   6.217  21.298  0.00  0.00    +0.000 C 
ATOM      8  C   UNL     1       2.186   7.153  18.994  0.00  0.00    +0.000 A 
ATOM      9  C   UNL     1       2.312   8.319  18.209  0.00  0.00    +0.000 A 
ATOM     10  C   UNL     1       1.894   9.595  18.635  0.00  0.00    +0.000 A 
ATOM     11  C   UNL     1       2.208  10.813  17.791  0.00  0.00    +0.000 C 
BRANCH   9  12
ATOM     12  O   UNL     1       2.848   8.291  16.950  0.00  0.00    +0.000 OA
ATOM     13  H   UNL     1       2.894   7.365  16.682  0.00  0.00    +0.000 HD
ENDBRANCH   9  12
ENDBRANCH   1   8
BRANCH   1  14
ATOM     14  C   UNL     1       4.178   5.624  18.196  0.00  0.00    +0.000 A 
ATOM     15  C   UNL     1       5.103   5.494  19.254  0.00  0.00    +0.000 A 
ATOM     16  C   UNL     1       6.430   5.116  19.009  0.00  0.00    +0.000 A 
ATOM     17  C   UNL     1       6.854   4.888  17.708  0.00  0.00    +0.000 A 
ATOM     18  F   UNL     1       8.107   4.478  17.476  0.00  0.00    +0.000 F 
ATOM     19  C   UNL     1       5.983   5.046  16.645  0.00  0.00    +0.000 A 
ATOM     20  C   UNL     1       4.654   5.404  16.892  0.00  0.00    +0.000 A 
ENDBRANCH   1  14
BRANCH   1  21
ATOM     21  C   UNL     1       1.797   5.105  17.394  0.00  0.00    +0.000 C 
BRANCH  21  22
ATOM     22  C   UNL     1       1.249   3.727  17.804  0.00  0.00    +0.000 C 
BRANCH  22  23
ATOM     23  C   UNL     1       2.302   2.614  17.864  0.00  0.00    +0.000 C 
BRANCH  23  24
ATOM     24  C   UNL     1       2.339   2.065  19.296  0.00  0.00    +0.000 C 
BRANCH  24  25
ATOM     25  C   UNL     1       1.318   2.701  20.235  0.00  0.00    +0.000 C 
BRANCH  25  26
ATOM     26  C   UNL     1       1.743   2.526  21.680  0.00  0.00    +0.000 C 
ATOM     27  O   UNL     1       0.989   2.440  22.637  0.00  0.00    +0.000 OA
BRANCH  26  28
ATOM     28  O   UNL     1       3.088   2.470  21.815  0.00  0.00    +0.000 OA
ATOM     29  H   UNL     1       3.487   3.296  22.134  0.00  0.00    +0.000 HD
ENDBRANCH  26  28
ENDBRANCH  25  26
ENDBRANCH  24  25
ENDBRANCH  23  24
ENDBRANCH  22  23
ENDBRANCH  21  22
ENDBRANCH   1  21
TORSDOF 10
ENDMDL
MODEL 9
REMARK VINA RESULT:      -7.4      1.228      1.620
REMARK  Name = 
REMARK  14 active torsions:
REMARK  status: ('A' for Active; 'I' for Inactive)
REMARK    1  A    between atoms: C_1  and  C_2
REMARK    2  A    between atoms: C_3  and  C_4
REMARK    3  A    between atoms: C_5  and  C_6
REMARK    4  A    between atoms: C_7  and  C_8
REMARK    5  A    between atoms: C_8  and  C_9
REMARK    6  A    between atoms: C_8  and  C_17
REMARK    7  A    between atoms: C_9  and  C_10
REMARK    8  A    between atoms: C_10  and  C_11
REMARK    9  A    between atoms: C_11  and  C_12
REMARK   10  A    between atoms: C_12  and  C_13
REMARK   11  A    between atoms: C_13  and  C_14
REMARK   12  A    between atoms: C_14  and  O_16
REMARK   13  A    between atoms: C_24  and  O_25
REMARK   14  A    between atoms: C_26  and  C_27
REMARK                            x       y       z     vdW  Elec       q    Type
REMARK                         _______ _______ _______ _____ _____    ______ ____
ROOT
ATOM      1  C   UNL     1       5.676   5.930  16.366  0.00  0.00    +0.000 C 
ENDROOT
BRANCH   1   8
ATOM      2  C   UNL     1       1.657   3.476  20.014  0.00  0.00    +0.000 C 
ATOM      3  C   UNL     1       2.641   4.150  19.078  0.00  0.00    +0.000 A 
ATOM      4  C   UNL     1       2.749   5.557  18.951  0.00  0.00    +0.000 A 
ATOM      5  C   UNL     1       1.965   6.493  19.849  0.00  0.00    +0.000 C 
ATOM      6  C   UNL     1       3.624   6.120  17.955  0.00  0.00    +0.000 A 
ATOM      7  C   UNL     1       3.489   7.606  17.678  0.00  0.00    +0.000 C 
ATOM      8  C   UNL     1       4.583   5.307  17.274  0.00  0.00    +0.000 A 
ATOM      9  C   UNL     1       4.477   3.917  17.500  0.00  0.00    +0.000 A 
ATOM     10  C   UNL     1       3.478   3.333  18.303  0.00  0.00    +0.000 A 
ATOM     11  C   UNL     1       3.346   1.825  18.364  0.00  0.00    +0.000 C 
BRANCH   9  12
ATOM     12  O   UNL     1       5.360   3.025  16.956  0.00  0.00    +0.000 OA
ATOM     13  H   UNL     1       5.082   2.144  17.236  0.00  0.00    +0.000 HD
ENDBRANCH   9  12
ENDBRANCH   1   8
BRANCH   1  14
ATOM     14  C   UNL     1       5.882   5.283  14.982  0.00  0.00    +0.000 A 
ATOM     15  C   UNL     1       7.173   5.261  14.413  0.00  0.00    +0.000 A 
ATOM     16  C   UNL     1       7.454   4.469  13.291  0.00  0.00    +0.000 A 
ATOM     17  C   UNL     1       6.446   3.713  12.710  0.00  0.00    +0.000 A 
ATOM     18  F   UNL     1       6.722   2.919  11.670  0.00  0.00    +0.000 F 
ATOM     19  C   UNL     1       5.159   3.743  13.219  0.00  0.00    +0.000 A 
ATOM     20  C   UNL     1       4.885   4.518  14.350  0.00  0.00    +0.000 A 
ENDBRANCH   1  14
BRANCH   1  21
ATOM     21  C   UNL     1       7.050   6.190  17.078  0.00  0.00    +0.000 C 
BRANCH  21  22
ATOM     22  C   UNL     1       7.408   7.685  17.140  0.00  0.00    +0.000 C 
BRANCH  22  23
ATOM     23  C   UNL     1       8.269   8.086  18.343  0.00  0.00    +0.000 C 
BRANCH  23  24
ATOM     24  C   UNL     1       8.542   9.594  18.257  0.00  0.00    +0.000 C 
BRANCH  24  25
ATOM     25  C   UNL     1       9.410  10.137  19.388  0.00  0.00    +0.000 C 
BRANCH  25  26
ATOM     26  C   UNL     1       9.423  11.653  19.367  0.00  0.00    +0.000 C 
ATOM     27  O   UNL     1       9.388  12.350  18.364  0.00  0.00    +0.000 OA
BRANCH  26  28
ATOM     28  O   UNL     1       9.476  12.183  20.611  0.00  0.00    +0.000 OA
ATOM     29  H   UNL     1       9.569  11.522  21.317  0.00  0.00    +0.000 HD
ENDBRANCH  26  28
ENDBRANCH  25  26
ENDBRANCH  24  25
ENDBRANCH  23  24
ENDBRANCH  22  23
ENDBRANCH  21  22
ENDBRANCH   1  21
TORSDOF 10
ENDMDL
