MODEL 1
REMARK VINA RESULT:      -8.0      0.000      0.000
REMARK  Name = 
REMARK  1 active torsions:
REMARK  status: ('A' for Active; 'I' for Inactive)
REMARK    1  A    between atoms: N_17  and  C_18
REMARK                            x       y       z     vdW  Elec       q    Type
REMARK                         _______ _______ _______ _____ _____    ______ ____
ROOT
ATOM      1  O   UNL     1      -1.904  10.360  16.350  0.00  0.00    +0.000 OA
ATOM      2  C   UNL     1      -1.859  10.825  17.475  0.00  0.00    +0.000 C 
ATOM      3  N   UNL     1      -2.336  12.039  17.844  0.00  0.00    +0.000 N 
ATOM      4  C   UNL     1      -2.521  12.112  19.181  0.00  0.00    +0.000 C 
ATOM      5  O   UNL     1      -3.371  12.799  19.716  0.00  0.00    +0.000 OA
ATOM      6  C   UNL     1      -1.624  11.101  19.852  0.00  0.00    +0.000 C 
ATOM      7  C   UNL     1      -1.384  10.090  18.699  0.00  0.00    +0.000 C 
ATOM      8  C   UNL     1       0.106   9.653  18.649  0.00  0.00    +0.000 C 
ATOM      9  C   UNL     1       0.950  10.868  18.339  0.00  0.00    +0.000 C 
ATOM     10  C   UNL     1       0.762  11.852  19.230  0.00  0.00    +0.000 C 
ATOM     11  C   UNL     1       1.366  13.143  19.413  0.00  0.00    +0.000 A 
ATOM     12  C   UNL     1       2.640  13.590  19.711  0.00  0.00    +0.000 A 
ATOM     13  C   UNL     1       2.802  14.933  20.095  0.00  0.00    +0.000 A 
ATOM     14  C   UNL     1       1.713  15.805  20.056  0.00  0.00    +0.000 A 
ATOM     15  C   UNL     1       0.446  15.268  19.936  0.00  0.00    +0.000 A 
ATOM     16  C   UNL     1       0.343  13.887  19.930  0.00  0.00    +0.000 A 
ATOM     17  N   UNL     1      -0.477  13.080  20.814  0.00  0.00    +0.000 N 
ATOM     18  C   UNL     1      -0.282  11.661  20.403  0.00  0.00    +0.000 C 
ATOM     19  C   UNL     1       0.586  10.535  21.034  0.00  0.00    +0.000 C 
ATOM     20  C   UNL     1       0.765   9.740  22.292  0.00  0.00    +0.000 C 
ATOM     21  O   UNL     1       0.406  10.019  23.422  0.00  0.00    +0.000 OA
ATOM     22  N   UNL     1       1.539   8.646  21.915  0.00  0.00    +0.000 N 
ATOM     23  C   UNL     1       1.486   8.377  20.569  0.00  0.00    +0.000 C 
ATOM     24  O   UNL     1       2.070   7.512  19.942  0.00  0.00    +0.000 OA
ATOM     25  C   UNL     1       0.401   9.267  20.104  0.00  0.00    +0.000 C 
ATOM     26  H   UNL     1      -2.880  12.597  17.207  0.00  0.00    +0.000 HD
ATOM     27  H   UNL     1       1.996   8.013  22.566  0.00  0.00    +0.000 HD
ENDROOT
BRANCH  17  28
ATOM     28  C   UNL     1      -1.021  13.675  21.957  0.00  0.00    +0.000 A 
ATOM     29  C   UNL     1      -1.364  12.799  23.011  0.00  0.00    +0.000 A 
ATOM     30  C   UNL     1      -2.493  13.005  23.801  0.00  0.00    +0.000 A 
ATOM     31  C   UNL     1      -3.223  14.171  23.646  0.00  0.00    +0.000 A 
ATOM     32  C   UNL     1      -2.765  15.154  22.765  0.00  0.00    +0.000 A 
ATOM     33  C   UNL     1      -1.661  14.915  21.923  0.00  0.00    +0.000 A 
ENDBRANCH  17  28
TORSDOF 1
ENDMDL
MODEL 2
REMARK VINA RESULT:      -7.9      0.665      1.019
REMARK  Name = 
REMARK  1 active torsions:
REMARK  status: ('A' for Active; 'I' for Inactive)
REMARK    1  A    between atoms: N_17  and  C_18
REMARK                            x       y       z     vdW  Elec       q    Type
REMARK                         _______ _______ _______ _____ _____    ______ ____
ROOT
ATOM      1  O   UNL     1      -1.933  10.340  16.293  0.00  0.00    +0.000 OA
ATOM      2  C   UNL     1      -1.983  10.800  17.419  0.00  0.00    +0.000 C 
ATOM      3  N   UNL     1      -2.565  11.975  17.763  0.00  0.00    +0.000 N 
ATOM      4  C   UNL     1      -2.830  12.028  19.088  0.00  0.00    +0.000 C 
ATOM      5  O   UNL     1      -3.755  12.650  19.576  0.00  0.00    +0.000 OA
ATOM      6  C   UNL     1      -1.901  11.079  19.806  0.00  0.00    +0.000 C 
ATOM      7  C   UNL     1      -1.527  10.094  18.667  0.00  0.00    +0.000 C 
ATOM      8  C   UNL     1      -0.009   9.764  18.700  0.00  0.00    +0.000 C 
ATOM      9  C   UNL     1       0.763  11.038  18.438  0.00  0.00    +0.000 C 
ATOM     10  C   UNL     1       0.456  12.001  19.320  0.00  0.00    +0.000 C 
ATOM     11  C   UNL     1       0.956  13.331  19.537  0.00  0.00    +0.000 A 
ATOM     12  C   UNL     1       2.176  13.865  19.907  0.00  0.00    +0.000 A 
ATOM     13  C   UNL     1       2.221  15.214  20.302  0.00  0.00    +0.000 A 
ATOM     14  C   UNL     1       1.076  16.006  20.203  0.00  0.00    +0.000 A 
ATOM     15  C   UNL     1      -0.141  15.382  20.012  0.00  0.00    +0.000 A 
ATOM     16  C   UNL     1      -0.145  13.998  19.998  0.00  0.00    +0.000 A 
ATOM     17  N   UNL     1      -0.953  13.129  20.834  0.00  0.00    +0.000 N 
ATOM     18  C   UNL     1      -0.635  11.729  20.432  0.00  0.00    +0.000 C 
ATOM     19  C   UNL     1       0.274  10.664  21.109  0.00  0.00    +0.000 C 
ATOM     20  C   UNL     1       0.440   9.877  22.373  0.00  0.00    +0.000 C 
ATOM     21  O   UNL     1      -0.001  10.124  23.482  0.00  0.00    +0.000 OA
ATOM     22  N   UNL     1       1.309   8.843  22.038  0.00  0.00    +0.000 N 
ATOM     23  C   UNL     1       1.350   8.578  20.692  0.00  0.00    +0.000 C 
ATOM     24  O   UNL     1       2.028   7.760  20.096  0.00  0.00    +0.000 OA
ATOM     25  C   UNL     1       0.232   9.392  20.167  0.00  0.00    +0.000 C 
ATOM     26  H   UNL     1      -3.112  12.497  17.098  0.00  0.00    +0.000 HD
ATOM     27  H   UNL     1       1.773   8.241  22.713  0.00  0.00    +0.000 HD
ENDROOT
BRANCH  17  28
ATOM     28  C   UNL     1      -1.600  13.678  21.945  0.00  0.00    +0.000 A 
ATOM     29  C   UNL     1      -2.591  14.648  21.673  0.00  0.00    +0.000 A 
ATOM     30  C   UNL     1      -2.777  15.761  22.489  0.00  0.00    +0.000 A 
ATOM     31  C   UNL     1      -2.072  15.852  23.677  0.00  0.00    +0.000 A 
ATOM     32  C   UNL     1      -1.256  14.789  24.074  0.00  0.00    +0.000 A 
ATOM     33  C   UNL     1      -1.022  13.696  23.216  0.00  0.00    +0.000 A 
ENDBRANCH  17  28
TORSDOF 1
ENDMDL
MODEL 3
REMARK VINA RESULT:      -7.8      1.011      1.156
REMARK  Name = 
REMARK  1 active torsions:
REMARK  status: ('A' for Active; 'I' for Inactive)
REMARK    1  A    between atoms: N_17  and  C_18
REMARK                            x       y       z     vdW  Elec       q    Type
REMARK                         _______ _______ _______ _____ _____    ______ ____
ROOT
ATOM      1  O   UNL     1      -2.101  10.487  16.132  0.00  0.00    +0.000 OA
ATOM      2  C   UNL     1      -2.263  10.902  17.264  0.00  0.00    +0.000 C 
ATOM      3  N   UNL     1      -2.987  11.997  17.604  0.00  0.00    +0.000 N 
ATOM      4  C   UNL     1      -3.329  11.977  18.912  0.00  0.00    +0.000 C 
ATOM      5  O   UNL     1      -4.342  12.480  19.362  0.00  0.00    +0.000 OA
ATOM      6  C   UNL     1      -2.345  11.110  19.659  0.00  0.00    +0.000 C 
ATOM      7  C   UNL     1      -1.803  10.209  18.518  0.00  0.00    +0.000 C 
ATOM      8  C   UNL     1      -0.262  10.042  18.631  0.00  0.00    +0.000 C 
ATOM      9  C   UNL     1       0.380  11.399  18.450  0.00  0.00    +0.000 C 
ATOM     10  C   UNL     1      -0.078  12.294  19.337  0.00  0.00    +0.000 C 
ATOM     11  C   UNL     1       0.261  13.662  19.619  0.00  0.00    +0.000 A 
ATOM     12  C   UNL     1       1.394  14.311  20.074  0.00  0.00    +0.000 A 
ATOM     13  C   UNL     1       1.270  15.644  20.506  0.00  0.00    +0.000 A 
ATOM     14  C   UNL     1       0.053  16.312  20.361  0.00  0.00    +0.000 A 
ATOM     15  C   UNL     1      -1.076  15.568  20.082  0.00  0.00    +0.000 A 
ATOM     16  C   UNL     1      -0.929  14.192  20.031  0.00  0.00    +0.000 A 
ATOM     17  N   UNL     1      -1.684  13.215  20.795  0.00  0.00    +0.000 N 
ATOM     18  C   UNL     1      -1.193  11.872  20.375  0.00  0.00    +0.000 C 
ATOM     19  C   UNL     1      -0.213  10.888  21.076  0.00  0.00    +0.000 C 
ATOM     20  C   UNL     1      -0.034  10.082  22.327  0.00  0.00    +0.000 C 
ATOM     21  O   UNL     1      -0.560  10.244  23.414  0.00  0.00    +0.000 OA
ATOM     22  N   UNL     1       0.960   9.159  22.016  0.00  0.00    +0.000 N 
ATOM     23  C   UNL     1       1.104   8.944  20.668  0.00  0.00    +0.000 C 
ATOM     24  O   UNL     1       1.899   8.223  20.092  0.00  0.00    +0.000 OA
ATOM     25  C   UNL     1      -0.065   9.650  20.100  0.00  0.00    +0.000 C 
ATOM     26  H   UNL     1      -3.550  12.478  16.922  0.00  0.00    +0.000 HD
ATOM     27  H   UNL     1       1.448   8.588  22.701  0.00  0.00    +0.000 HD
ENDROOT
BRANCH  17  28
ATOM     28  C   UNL     1      -2.448  13.655  21.880  0.00  0.00    +0.000 A 
ATOM     29  C   UNL     1      -2.405  12.848  23.039  0.00  0.00    +0.000 A 
ATOM     30  C   UNL     1      -3.527  12.648  23.840  0.00  0.00    +0.000 A 
ATOM     31  C   UNL     1      -4.680  13.368  23.578  0.00  0.00    +0.000 A 
ATOM     32  C   UNL     1      -4.668  14.341  22.575  0.00  0.00    +0.000 A 
ATOM     33  C   UNL     1      -3.553  14.494  21.727  0.00  0.00    +0.000 A 
ENDBRANCH  17  28
TORSDOF 1
ENDMDL
MODEL 4
REMARK VINA RESULT:      -7.8      2.132      5.692
REMARK  Name = 
REMARK  1 active torsions:
REMARK  status: ('A' for Active; 'I' for Inactive)
REMARK    1  A    between atoms: N_17  and  C_18
REMARK                            x       y       z     vdW  Elec       q    Type
REMARK                         _______ _______ _______ _____ _____    ______ ____
ROOT
ATOM      1  O   UNL     1       1.248  15.980  18.716  0.00  0.00    +0.000 OA
ATOM      2  C   UNL     1       1.195  14.791  18.972  0.00  0.00    +0.000 C 
ATOM      3  N   UNL     1       1.506  13.788  18.115  0.00  0.00    +0.000 N 
ATOM      4  C   UNL     1       1.750  12.633  18.774  0.00  0.00    +0.000 C 
ATOM      5  O   UNL     1       2.517  11.772  18.383  0.00  0.00    +0.000 OA
ATOM      6  C   UNL     1       1.050  12.678  20.110  0.00  0.00    +0.000 C 
ATOM      7  C   UNL     1       0.901  14.207  20.327  0.00  0.00    +0.000 C 
ATOM      8  C   UNL     1      -0.508  14.550  20.883  0.00  0.00    +0.000 C 
ATOM      9  C   UNL     1      -1.539  14.160  19.848  0.00  0.00    +0.000 C 
ATOM     10  C   UNL     1      -1.451  12.864  19.515  0.00  0.00    +0.000 C 
ATOM     11  C   UNL     1      -2.228  12.014  18.656  0.00  0.00    +0.000 A 
ATOM     12  C   UNL     1      -3.536  11.567  18.653  0.00  0.00    +0.000 A 
ATOM     13  C   UNL     1      -3.875  10.503  17.797  0.00  0.00    +0.000 A 
ATOM     14  C   UNL     1      -2.931  10.006  16.898  0.00  0.00    +0.000 A 
ATOM     15  C   UNL     1      -1.606  10.356  17.075  0.00  0.00    +0.000 A 
ATOM     16  C   UNL     1      -1.301  11.130  18.182  0.00  0.00    +0.000 A 
ATOM     17  N   UNL     1      -0.323  10.818  19.208  0.00  0.00    +0.000 N 
ATOM     18  C   UNL     1      -0.328  11.961  20.166  0.00  0.00    +0.000 C 
ATOM     19  C   UNL     1      -0.984  12.101  21.569  0.00  0.00    +0.000 C 
ATOM     20  C   UNL     1      -0.976  11.512  22.947  0.00  0.00    +0.000 C 
ATOM     21  O   UNL     1      -0.601  10.406  23.295  0.00  0.00    +0.000 OA
ATOM     22  N   UNL     1      -1.599  12.466  23.747  0.00  0.00    +0.000 N 
ATOM     23  C   UNL     1      -1.579  13.729  23.207  0.00  0.00    +0.000 C 
ATOM     24  O   UNL     1      -2.061  14.755  23.651  0.00  0.00    +0.000 OA
ATOM     25  C   UNL     1      -0.664  13.574  22.055  0.00  0.00    +0.000 C 
ATOM     26  H   UNL     1       1.927  13.982  17.221  0.00  0.00    +0.000 HD
ATOM     27  H   UNL     1      -1.921  12.299  24.696  0.00  0.00    +0.000 HD
ENDROOT
BRANCH  17  28
ATOM     28  C   UNL     1       0.187   9.518  19.278  0.00  0.00    +0.000 A 
ATOM     29  C   UNL     1       0.190   8.919  20.558  0.00  0.00    +0.000 A 
ATOM     30  C   UNL     1       1.226   8.087  20.979  0.00  0.00    +0.000 A 
ATOM     31  C   UNL     1       2.208   7.722  20.075  0.00  0.00    +0.000 A 
ATOM     32  C   UNL     1       2.096   8.122  18.741  0.00  0.00    +0.000 A 
ATOM     33  C   UNL     1       1.084   9.014  18.335  0.00  0.00    +0.000 A 
ENDBRANCH  17  28
TORSDOF 1
ENDMDL
MODEL 5
REMARK VINA RESULT:      -7.6      8.258     10.932
REMARK  Name = 
REMARK  1 active torsions:
REMARK  status: ('A' for Active; 'I' for Inactive)
REMARK    1  A    between atoms: N_17  and  C_18
REMARK                            x       y       z     vdW  Elec       q    Type
REMARK                         _______ _______ _______ _____ _____    ______ ____
ROOT
ATOM      1  O   UNL     1       9.232   9.538  19.424  0.00  0.00    +0.000 OA
ATOM      2  C   UNL     1       9.416  10.652  19.879  0.00  0.00    +0.000 C 
ATOM      3  N   UNL     1       8.789  11.171  20.964  0.00  0.00    +0.000 N 
ATOM      4  C   UNL     1       9.469  12.224  21.471  0.00  0.00    +0.000 C 
ATOM      5  O   UNL     1       9.469  12.535  22.647  0.00  0.00    +0.000 OA
ATOM      6  C   UNL     1      10.323  12.822  20.379  0.00  0.00    +0.000 C 
ATOM      7  C   UNL     1      10.468  11.620  19.409  0.00  0.00    +0.000 C 
ATOM      8  C   UNL     1      10.305  12.078  17.934  0.00  0.00    +0.000 C 
ATOM      9  C   UNL     1       8.902  12.612  17.751  0.00  0.00    +0.000 C 
ATOM     10  C   UNL     1       8.630  13.611  18.603  0.00  0.00    +0.000 C 
ATOM     11  C   UNL     1       7.495  14.475  18.776  0.00  0.00    +0.000 A 
ATOM     12  C   UNL     1       6.874  15.435  17.999  0.00  0.00    +0.000 A 
ATOM     13  C   UNL     1       5.943  16.292  18.615  0.00  0.00    +0.000 A 
ATOM     14  C   UNL     1       5.583  16.085  19.947  0.00  0.00    +0.000 A 
ATOM     15  C   UNL     1       6.364  15.245  20.716  0.00  0.00    +0.000 A 
ATOM     16  C   UNL     1       7.497  14.715  20.121  0.00  0.00    +0.000 A 
ATOM     17  N   UNL     1       8.856  14.810  20.620  0.00  0.00    +0.000 N 
ATOM     18  C   UNL     1       9.717  14.060  19.660  0.00  0.00    +0.000 C 
ATOM     19  C   UNL     1      10.653  14.573  18.528  0.00  0.00    +0.000 C 
ATOM     20  C   UNL     1      11.865  15.418  18.282  0.00  0.00    +0.000 C 
ATOM     21  O   UNL     1      12.332  16.295  18.988  0.00  0.00    +0.000 OA
ATOM     22  N   UNL     1      12.295  15.064  17.007  0.00  0.00    +0.000 N 
ATOM     23  C   UNL     1      11.846  13.831  16.602  0.00  0.00    +0.000 C 
ATOM     24  O   UNL     1      12.028  13.266  15.539  0.00  0.00    +0.000 OA
ATOM     25  C   UNL     1      11.253  13.280  17.839  0.00  0.00    +0.000 C 
ATOM     26  H   UNL     1       8.199  10.599  21.545  0.00  0.00    +0.000 HD
ATOM     27  H   UNL     1      12.980  15.584  16.466  0.00  0.00    +0.000 HD
ENDROOT
BRANCH  17  28
ATOM     28  C   UNL     1       9.138  15.726  21.637  0.00  0.00    +0.000 A 
ATOM     29  C   UNL     1       9.820  16.900  21.247  0.00  0.00    +0.000 A 
ATOM     30  C   UNL     1      10.787  17.493  22.055  0.00  0.00    +0.000 A 
ATOM     31  C   UNL     1      10.988  17.007  23.335  0.00  0.00    +0.000 A 
ATOM     32  C   UNL     1      10.161  15.990  23.820  0.00  0.00    +0.000 A 
ATOM     33  C   UNL     1       9.230  15.350  22.979  0.00  0.00    +0.000 A 
ENDBRANCH  17  28
TORSDOF 1
ENDMDL
MODEL 6
REMARK VINA RESULT:      -7.5      2.287      5.535
REMARK  Name = 
REMARK  1 active torsions:
REMARK  status: ('A' for Active; 'I' for Inactive)
REMARK    1  A    between atoms: N_17  and  C_18
REMARK                            x       y       z     vdW  Elec       q    Type
REMARK                         _______ _______ _______ _____ _____    ______ ____
ROOT
ATOM      1  O   UNL     1      -5.141  12.568  19.891  0.00  0.00    +0.000 OA
ATOM      2  C   UNL     1      -3.937  12.747  19.907  0.00  0.00    +0.000 C 
ATOM      3  N   UNL     1      -3.043  12.152  19.080  0.00  0.00    +0.000 N 
ATOM      4  C   UNL     1      -1.873  12.829  19.046  0.00  0.00    +0.000 C 
ATOM      5  O   UNL     1      -1.133  12.867  18.081  0.00  0.00    +0.000 OA
ATOM      6  C   UNL     1      -1.738  13.630  20.319  0.00  0.00    +0.000 C 
ATOM      7  C   UNL     1      -3.220  13.761  20.757  0.00  0.00    +0.000 C 
ATOM      8  C   UNL     1      -3.365  13.535  22.287  0.00  0.00    +0.000 C 
ATOM      9  C   UNL     1      -2.948  12.116  22.602  0.00  0.00    +0.000 C 
ATOM     10  C   UNL     1      -1.699  11.856  22.188  0.00  0.00    +0.000 C 
ATOM     11  C   UNL     1      -0.840  10.711  22.314  0.00  0.00    +0.000 A 
ATOM     12  C   UNL     1      -0.255  10.043  23.373  0.00  0.00    +0.000 A 
ATOM     13  C   UNL     1       0.769   9.120  23.095  0.00  0.00    +0.000 A 
ATOM     14  C   UNL     1       1.090   8.813  21.772  0.00  0.00    +0.000 A 
ATOM     15  C   UNL     1       0.613   9.639  20.772  0.00  0.00    +0.000 A 
ATOM     16  C   UNL     1      -0.100  10.759  21.165  0.00  0.00    +0.000 A 
ATOM     17  N   UNL     1       0.183  12.134  20.799  0.00  0.00    +0.000 N 
ATOM     18  C   UNL     1      -0.874  12.973  21.432  0.00  0.00    +0.000 C 
ATOM     19  C   UNL     1      -0.833  13.855  22.713  0.00  0.00    +0.000 C 
ATOM     20  C   UNL     1      -0.143  15.041  23.315  0.00  0.00    +0.000 C 
ATOM     21  O   UNL     1       0.940  15.517  23.021  0.00  0.00    +0.000 OA
ATOM     22  N   UNL     1      -0.959  15.430  24.373  0.00  0.00    +0.000 N 
ATOM     23  C   UNL     1      -2.255  14.990  24.254  0.00  0.00    +0.000 C 
ATOM     24  O   UNL     1      -3.185  15.143  25.025  0.00  0.00    +0.000 OA
ATOM     25  C   UNL     1      -2.290  14.455  22.876  0.00  0.00    +0.000 C 
ATOM     26  H   UNL     1      -3.350  11.595  18.300  0.00  0.00    +0.000 HD
ATOM     27  H   UNL     1      -0.684  16.084  25.100  0.00  0.00    +0.000 HD
ENDROOT
BRANCH  17  28
ATOM     28  C   UNL     1       1.422  12.435  20.224  0.00  0.00    +0.000 A 
ATOM     29  C   UNL     1       2.162  13.467  20.845  0.00  0.00    +0.000 A 
ATOM     30  C   UNL     1       2.924  14.372  20.110  0.00  0.00    +0.000 A 
ATOM     31  C   UNL     1       3.077  14.176  18.748  0.00  0.00    +0.000 A 
ATOM     32  C   UNL     1       2.539  13.030  18.155  0.00  0.00    +0.000 A 
ATOM     33  C   UNL     1       1.717  12.153  18.889  0.00  0.00    +0.000 A 
ENDBRANCH  17  28
TORSDOF 1
ENDMDL
MODEL 7
REMARK VINA RESULT:      -7.4      5.783      9.958
REMARK  Name = 
REMARK  1 active torsions:
REMARK  status: ('A' for Active; 'I' for Inactive)
REMARK    1  A    between atoms: N_17  and  C_18
REMARK                            x       y       z     vdW  Elec       q    Type
REMARK                         _______ _______ _______ _____ _____    ______ ____
ROOT
ATOM      1  O   UNL     1       1.364   2.142  20.712  0.00  0.00    +0.000 OA
ATOM      2  C   UNL     1       1.804   2.734  19.744  0.00  0.00    +0.000 C 
ATOM      3  N   UNL     1       2.566   2.184  18.766  0.00  0.00    +0.000 N 
ATOM      4  C   UNL     1       2.557   2.943  17.647  0.00  0.00    +0.000 C 
ATOM      5  O   UNL     1       2.677   2.500  16.520  0.00  0.00    +0.000 OA
ATOM      6  C   UNL     1       2.221   4.365  18.027  0.00  0.00    +0.000 C 
ATOM      7  C   UNL     1       1.481   4.156  19.374  0.00  0.00    +0.000 C 
ATOM      8  C   UNL     1       1.933   5.211  20.421  0.00  0.00    +0.000 C 
ATOM      9  C   UNL     1       3.404   5.005  20.703  0.00  0.00    +0.000 C 
ATOM     10  C   UNL     1       4.144   5.080  19.587  0.00  0.00    +0.000 C 
ATOM     11  C   UNL     1       5.559   5.029  19.340  0.00  0.00    +0.000 A 
ATOM     12  C   UNL     1       6.639   5.817  19.692  0.00  0.00    +0.000 A 
ATOM     13  C   UNL     1       7.859   5.612  19.023  0.00  0.00    +0.000 A 
ATOM     14  C   UNL     1       7.989   4.559  18.118  0.00  0.00    +0.000 A 
ATOM     15  C   UNL     1       6.842   3.932  17.670  0.00  0.00    +0.000 A 
ATOM     16  C   UNL     1       5.631   4.445  18.107  0.00  0.00    +0.000 A 
ATOM     17  N   UNL     1       4.528   4.881  17.271  0.00  0.00    +0.000 N 
ATOM     18  C   UNL     1       3.440   5.317  18.191  0.00  0.00    +0.000 C 
ATOM     19  C   UNL     1       2.991   6.742  18.624  0.00  0.00    +0.000 C 
ATOM     20  C   UNL     1       2.456   8.033  18.082  0.00  0.00    +0.000 C 
ATOM     21  O   UNL     1       2.520   8.460  16.942  0.00  0.00    +0.000 OA
ATOM     22  N   UNL     1       1.958   8.707  19.193  0.00  0.00    +0.000 N 
ATOM     23  C   UNL     1       1.671   7.880  20.251  0.00  0.00    +0.000 C 
ATOM     24  O   UNL     1       1.254   8.174  21.356  0.00  0.00    +0.000 OA
ATOM     25  C   UNL     1       1.808   6.533  19.655  0.00  0.00    +0.000 C 
ATOM     26  H   UNL     1       2.717   1.190  18.725  0.00  0.00    +0.000 HD
ATOM     27  H   UNL     1       1.696   9.689  19.200  0.00  0.00    +0.000 HD
ENDROOT
BRANCH  17  28
ATOM     28  C   UNL     1       4.754   5.072  15.904  0.00  0.00    +0.000 A 
ATOM     29  C   UNL     1       4.924   3.901  15.132  0.00  0.00    +0.000 A 
ATOM     30  C   UNL     1       5.828   3.841  14.074  0.00  0.00    +0.000 A 
ATOM     31  C   UNL     1       6.478   4.996  13.675  0.00  0.00    +0.000 A 
ATOM     32  C   UNL     1       6.150   6.212  14.281  0.00  0.00    +0.000 A 
ATOM     33  C   UNL     1       5.284   6.257  15.392  0.00  0.00    +0.000 A 
ENDBRANCH  17  28
TORSDOF 1
ENDMDL
MODEL 8
REMARK VINA RESULT:      -7.4      2.307      5.806
REMARK  Name = 
REMARK  1 active torsions:
REMARK  status: ('A' for Active; 'I' for Inactive)
REMARK    1  A    between atoms: N_17  and  C_18
REMARK                            x       y       z     vdW  Elec       q    Type
REMARK                         _______ _______ _______ _____ _____    ______ ____
ROOT
ATOM      1  O   UNL     1      -2.036  16.910  19.625  0.00  0.00    +0.000 OA
ATOM      2  C   UNL     1      -1.469  15.845  19.791  0.00  0.00    +0.000 C 
ATOM      3  N   UNL     1      -0.596  15.276  18.923  0.00  0.00    +0.000 N 
ATOM      4  C   UNL     1       0.167  14.341  19.532  0.00  0.00    +0.000 C 
ATOM      5  O   UNL     1       1.305  14.066  19.201  0.00  0.00    +0.000 OA
ATOM      6  C   UNL     1      -0.565  13.835  20.751  0.00  0.00    +0.000 C 
ATOM      7  C   UNL     1      -1.525  15.017  21.046  0.00  0.00    +0.000 C 
ATOM      8  C   UNL     1      -2.943  14.498  21.411  0.00  0.00    +0.000 C 
ATOM      9  C   UNL     1      -3.510  13.772  20.212  0.00  0.00    +0.000 C 
ATOM     10  C   UNL     1      -2.715  12.770  19.810  0.00  0.00    +0.000 C 
ATOM     11  C   UNL     1      -2.840  11.764  18.791  0.00  0.00    +0.000 A 
ATOM     12  C   UNL     1      -3.701  10.707  18.566  0.00  0.00    +0.000 A 
ATOM     13  C   UNL     1      -3.343   9.749  17.601  0.00  0.00    +0.000 A 
ATOM     14  C   UNL     1      -2.204   9.942  16.818  0.00  0.00    +0.000 A 
ATOM     15  C   UNL     1      -1.292  10.903  17.210  0.00  0.00    +0.000 A 
ATOM     16  C   UNL     1      -1.546  11.565  18.399  0.00  0.00    +0.000 A 
ATOM     17  N   UNL     1      -0.648  11.672  19.535  0.00  0.00    +0.000 N 
ATOM     18  C   UNL     1      -1.347  12.505  20.556  0.00  0.00    +0.000 C 
ATOM     19  C   UNL     1      -2.098  12.093  21.854  0.00  0.00    +0.000 C 
ATOM     20  C   UNL     1      -1.899  11.415  23.176  0.00  0.00    +0.000 C 
ATOM     21  O   UNL     1      -1.025  10.630  23.500  0.00  0.00    +0.000 OA
ATOM     22  N   UNL     1      -3.003  11.788  23.938  0.00  0.00    +0.000 N 
ATOM     23  C   UNL     1      -3.612  12.936  23.493  0.00  0.00    +0.000 C 
ATOM     24  O   UNL     1      -4.604  13.490  23.929  0.00  0.00    +0.000 OA
ATOM     25  C   UNL     1      -2.658  13.436  22.479  0.00  0.00    +0.000 C 
ATOM     26  H   UNL     1      -0.266  15.779  18.116  0.00  0.00    +0.000 HD
ATOM     27  H   UNL     1      -3.269  11.351  24.816  0.00  0.00    +0.000 HD
ENDROOT
BRANCH  17  28
ATOM     28  C   UNL     1       0.468  10.833  19.591  0.00  0.00    +0.000 A 
ATOM     29  C   UNL     1       1.358  10.906  18.496  0.00  0.00    +0.000 A 
ATOM     30  C   UNL     1       2.003   9.778  17.994  0.00  0.00    +0.000 A 
ATOM     31  C   UNL     1       1.882   8.575  18.668  0.00  0.00    +0.000 A 
ATOM     32  C   UNL     1       1.190   8.535  19.882  0.00  0.00    +0.000 A 
ATOM     33  C   UNL     1       0.487   9.662  20.352  0.00  0.00    +0.000 A 
ENDBRANCH  17  28
TORSDOF 1
ENDMDL
MODEL 9
REMARK VINA RESULT:      -7.4      1.849      5.524
REMARK  Name = 
REMARK  1 active torsions:
REMARK  status: ('A' for Active; 'I' for Inactive)
REMARK    1  A    between atoms: N_17  and  C_18
REMARK                            x       y       z     vdW  Elec       q    Type
REMARK                         _______ _______ _______ _____ _____    ______ ____
ROOT
ATOM      1  O   UNL     1      -3.749  13.914  24.253  0.00  0.00    +0.000 OA
ATOM      2  C   UNL     1      -3.025  13.272  23.514  0.00  0.00    +0.000 C 
ATOM      3  N   UNL     1      -1.714  13.005  23.735  0.00  0.00    +0.000 N 
ATOM      4  C   UNL     1      -1.289  11.960  22.990  0.00  0.00    +0.000 C 
ATOM      5  O   UNL     1      -0.405  11.195  23.327  0.00  0.00    +0.000 OA
ATOM      6  C   UNL     1      -2.188  11.826  21.785  0.00  0.00    +0.000 C 
ATOM      7  C   UNL     1      -3.474  12.538  22.280  0.00  0.00    +0.000 C 
ATOM      8  C   UNL     1      -4.062  13.450  21.169  0.00  0.00    +0.000 C 
ATOM      9  C   UNL     1      -3.059  14.539  20.863  0.00  0.00    +0.000 C 
ATOM     10  C   UNL     1      -1.869  14.038  20.501  0.00  0.00    +0.000 C 
ATOM     11  C   UNL     1      -0.643  14.640  20.052  0.00  0.00    +0.000 A 
ATOM     12  C   UNL     1      -0.271  15.389  18.951  0.00  0.00    +0.000 A 
ATOM     13  C   UNL     1       1.101  15.568  18.700  0.00  0.00    +0.000 A 
ATOM     14  C   UNL     1       2.043  15.096  19.615  0.00  0.00    +0.000 A 
ATOM     15  C   UNL     1       1.629  14.203  20.583  0.00  0.00    +0.000 A 
ATOM     16  C   UNL     1       0.309  13.787  20.535  0.00  0.00    +0.000 A 
ATOM     17  N   UNL     1      -0.161  12.415  20.479  0.00  0.00    +0.000 N 
ATOM     18  C   UNL     1      -1.651  12.472  20.476  0.00  0.00    +0.000 C 
ATOM     19  C   UNL     1      -2.666  12.316  19.308  0.00  0.00    +0.000 C 
ATOM     20  C   UNL     1      -3.135  11.348  18.265  0.00  0.00    +0.000 C 
ATOM     21  O   UNL     1      -2.545  10.386  17.805  0.00  0.00    +0.000 OA
ATOM     22  N   UNL     1      -4.363  11.848  17.841  0.00  0.00    +0.000 N 
ATOM     23  C   UNL     1      -4.954  12.690  18.750  0.00  0.00    +0.000 C 
ATOM     24  O   UNL     1      -6.004  13.299  18.654  0.00  0.00    +0.000 OA
ATOM     25  C   UNL     1      -4.100  12.525  19.946  0.00  0.00    +0.000 C 
ATOM     26  H   UNL     1      -1.280  13.234  24.614  0.00  0.00    +0.000 HD
ATOM     27  H   UNL     1      -4.856  11.532  17.010  0.00  0.00    +0.000 HD
ENDROOT
BRANCH  17  28
ATOM     28  C   UNL     1       0.755  11.402  20.178  0.00  0.00    +0.000 A 
ATOM     29  C   UNL     1       1.258  11.391  18.857  0.00  0.00    +0.000 A 
ATOM     30  C   UNL     1       1.509  10.204  18.174  0.00  0.00    +0.000 A 
ATOM     31  C   UNL     1       1.398   9.000  18.849  0.00  0.00    +0.000 A 
ATOM     32  C   UNL     1       1.123   9.005  20.219  0.00  0.00    +0.000 A 
ATOM     33  C   UNL     1       0.807  10.203  20.890  0.00  0.00    +0.000 A 
ENDBRANCH  17  28
TORSDOF 1
ENDMDL
