MODEL 1
REMARK VINA RESULT:      -7.8      0.000      0.000
REMARK  Name = 
REMARK  15 active torsions:
REMARK  status: ('A' for Active; 'I' for Inactive)
REMARK    1  A    between atoms: C_1  and  O_2
REMARK    2  A    between atoms: O_2  and  C_3
REMARK    3  A    between atoms: C_5  and  C_6
REMARK    4  A    between atoms: C_9  and  C_10
REMARK    5  A    between atoms: C_10  and  O_11
REMARK    6  A    between atoms: O_11  and  C_12
REMARK    7  A    between atoms: C_16  and  C_17
REMARK    8  A    between atoms: C_17  and  C_18
REMARK    9  A    between atoms: C_17  and  C_22
REMARK   10  A    between atoms: C_18  and  C_19
REMARK   11  A    between atoms: C_19  and  O_21
REMARK   12  A    between atoms: C_27  and  C_28
REMARK   13  A    between atoms: C_28  and  C_29
REMARK   14  A    between atoms: C_29  and  C_30
REMARK   15  A    between atoms: C_29  and  C_31
REMARK                            x       y       z     vdW  Elec       q    Type
REMARK                         _______ _______ _______ _____ _____    ______ ____
ROOT
ATOM      1  C   UNL     1       3.439   5.944  18.735  0.00  0.00    +0.000 A 
ATOM      2  N   UNL     1       3.058   7.246  18.585  0.00  0.00    +0.000 NA
ATOM      3  C   UNL     1       2.164   7.750  19.471  0.00  0.00    +0.000 A 
ATOM      4  C   UNL     1       1.601   6.986  20.468  0.00  0.00    +0.000 A 
ATOM      5  N   UNL     1       1.963   5.696  20.619  0.00  0.00    +0.000 NA
ATOM      6  C   UNL     1       2.892   5.172  19.782  0.00  0.00    +0.000 A 
ENDROOT
BRANCH   1   9
ATOM      7  C   UNL     1       6.594   5.808  16.648  0.00  0.00    +0.000 A 
ATOM      8  C   UNL     1       5.756   6.082  17.721  0.00  0.00    +0.000 A 
ATOM      9  C   UNL     1       4.483   5.495  17.780  0.00  0.00    +0.000 A 
ATOM     10  C   UNL     1       4.231   4.491  16.834  0.00  0.00    +0.000 A 
ATOM     11  F   UNL     1       3.082   3.801  16.812  0.00  0.00    +0.000 F 
ATOM     12  C   UNL     1       5.173   4.213  15.853  0.00  0.00    +0.000 A 
ATOM     13  N   UNL     1       6.337   4.878  15.715  0.00  0.00    +0.000 NA
BRANCH   7  15
ATOM     14  C   UNL     1       7.693   7.700  17.463  0.00  0.00    +0.000 C 
ATOM     15  O   UNL     1       7.691   6.638  16.511  0.00  0.00    +0.000 OA
ENDBRANCH   7  15
ENDBRANCH   1   9
BRANCH   4  16
ATOM     16  C   UNL     1       0.521   7.489  21.380  0.00  0.00    +0.000 C 
BRANCH  16  17
ATOM     17  O   UNL     1       0.929   8.656  22.098  0.00  0.00    +0.000 OA
BRANCH  17  18
ATOM     18  C   UNL     1       0.078   9.726  21.965  0.00  0.00    +0.000 A 
ATOM     19  C   UNL     1      -0.557  10.134  23.141  0.00  0.00    +0.000 A 
ATOM     20  C   UNL     1      -1.423  11.228  23.116  0.00  0.00    +0.000 A 
ATOM     21  C   UNL     1      -1.642  11.924  21.922  0.00  0.00    +0.000 A 
ATOM     22  C   UNL     1      -1.025  11.524  20.722  0.00  0.00    +0.000 A 
ATOM     23  C   UNL     1      -0.194  10.393  20.763  0.00  0.00    +0.000 A 
BRANCH  22  24
ATOM     24  C   UNL     1      -1.222  12.358  19.457  0.00  0.00    +0.000 C 
BRANCH  24  25
ATOM     25  C   UNL     1      -1.051  13.859  19.635  0.00  0.00    +0.000 C 
ATOM     26  C   UNL     1       0.192  14.520  20.172  0.00  0.00    +0.000 C 
ATOM     27  C   UNL     1      -0.100  14.578  18.701  0.00  0.00    +0.000 C 
ENDBRANCH  24  25
BRANCH  24  28
ATOM     28  C   UNL     1      -2.567  12.063  18.764  0.00  0.00    +0.000 C 
BRANCH  28  29
ATOM     29  C   UNL     1      -2.566  10.799  17.929  0.00  0.00    +0.000 C 
ATOM     30  O   UNL     1      -1.574  10.312  17.421  0.00  0.00    +0.000 OA
BRANCH  29  31
ATOM     31  O   UNL     1      -3.789  10.241  17.794  0.00  0.00    +0.000 OA
ATOM     32  H   UNL     1      -4.515  10.778  18.155  0.00  0.00    +0.000 HD
ENDBRANCH  29  31
ENDBRANCH  28  29
ENDBRANCH  24  28
ENDBRANCH  22  24
ENDBRANCH  17  18
ENDBRANCH  16  17
ENDBRANCH   4  16
BRANCH   6  33
ATOM     33  C   UNL     1       3.298   3.752  20.114  0.00  0.00    +0.000 C 
BRANCH  33  34
ATOM     34  C   UNL     1       2.200   2.664  20.239  0.00  0.00    +0.000 C 
ATOM     35  C   UNL     1       1.552   2.605  21.622  0.00  0.00    +0.000 C 
ATOM     36  C   UNL     1       1.142   2.750  19.132  0.00  0.00    +0.000 C 
ENDBRANCH  33  34
ENDBRANCH   6  33
TORSDOF 12
ENDMDL
MODEL 2
REMARK VINA RESULT:      -7.6      3.239      9.889
REMARK  Name = 
REMARK  15 active torsions:
REMARK  status: ('A' for Active; 'I' for Inactive)
REMARK    1  A    between atoms: C_1  and  O_2
REMARK    2  A    between atoms: O_2  and  C_3
REMARK    3  A    between atoms: C_5  and  C_6
REMARK    4  A    between atoms: C_9  and  C_10
REMARK    5  A    between atoms: C_10  and  O_11
REMARK    6  A    between atoms: O_11  and  C_12
REMARK    7  A    between atoms: C_16  and  C_17
REMARK    8  A    between atoms: C_17  and  C_18
REMARK    9  A    between atoms: C_17  and  C_22
REMARK   10  A    between atoms: C_18  and  C_19
REMARK   11  A    between atoms: C_19  and  O_21
REMARK   12  A    between atoms: C_27  and  C_28
REMARK   13  A    between atoms: C_28  and  C_29
REMARK   14  A    between atoms: C_29  and  C_30
REMARK   15  A    between atoms: C_29  and  C_31
REMARK                            x       y       z     vdW  Elec       q    Type
REMARK                         _______ _______ _______ _____ _____    ______ ____
ROOT
ATOM      1  C   UNL     1      -0.203  10.691  20.984  0.00  0.00    +0.000 A 
ATOM      2  N   UNL     1       0.559  10.080  21.937  0.00  0.00    +0.000 NA
ATOM      3  C   UNL     1       1.407   9.100  21.536  0.00  0.00    +0.000 A 
ATOM      4  C   UNL     1       1.482   8.677  20.228  0.00  0.00    +0.000 A 
ATOM      5  N   UNL     1       0.726   9.267  19.281  0.00  0.00    +0.000 NA
ATOM      6  C   UNL     1      -0.097  10.285  19.637  0.00  0.00    +0.000 A 
ENDROOT
BRANCH   1   9
ATOM      7  C   UNL     1      -1.686  14.137  21.493  0.00  0.00    +0.000 A 
ATOM      8  C   UNL     1      -1.106  13.053  20.845  0.00  0.00    +0.000 A 
ATOM      9  C   UNL     1      -1.039  11.809  21.489  0.00  0.00    +0.000 A 
ATOM     10  C   UNL     1      -1.766  11.702  22.684  0.00  0.00    +0.000 A 
ATOM     11  F   UNL     1      -1.843  10.555  23.373  0.00  0.00    +0.000 F 
ATOM     12  C   UNL     1      -2.402  12.818  23.209  0.00  0.00    +0.000 A 
ATOM     13  N   UNL     1      -2.346  14.047  22.658  0.00  0.00    +0.000 NA
BRANCH   7  15
ATOM     14  C   UNL     1      -2.638  16.161  20.825  0.00  0.00    +0.000 C 
ATOM     15  O   UNL     1      -1.453  15.375  20.925  0.00  0.00    +0.000 OA
ENDBRANCH   7  15
ENDBRANCH   1   9
BRANCH   4  16
ATOM     16  C   UNL     1       2.321   7.514  19.786  0.00  0.00    +0.000 C 
BRANCH  16  17
ATOM     17  O   UNL     1       1.717   6.802  18.704  0.00  0.00    +0.000 OA
BRANCH  17  18
ATOM     18  C   UNL     1       2.527   5.851  18.132  0.00  0.00    +0.000 A 
ATOM     19  C   UNL     1       1.943   4.594  17.961  0.00  0.00    +0.000 A 
ATOM     20  C   UNL     1       2.676   3.565  17.368  0.00  0.00    +0.000 A 
ATOM     21  C   UNL     1       3.985   3.797  16.929  0.00  0.00    +0.000 A 
ATOM     22  C   UNL     1       4.600   5.051  17.104  0.00  0.00    +0.000 A 
ATOM     23  C   UNL     1       3.858   6.057  17.744  0.00  0.00    +0.000 A 
BRANCH  22  24
ATOM     24  C   UNL     1       5.999   5.292  16.538  0.00  0.00    +0.000 C 
BRANCH  24  25
ATOM     25  C   UNL     1       6.444   4.308  15.466  0.00  0.00    +0.000 C 
ATOM     26  C   UNL     1       5.840   4.213  14.090  0.00  0.00    +0.000 C 
ATOM     27  C   UNL     1       7.183   4.859  14.265  0.00  0.00    +0.000 C 
ENDBRANCH  24  25
BRANCH  24  28
ATOM     28  C   UNL     1       7.070   5.382  17.643  0.00  0.00    +0.000 C 
BRANCH  28  29
ATOM     29  C   UNL     1       7.673   6.763  17.805  0.00  0.00    +0.000 C 
ATOM     30  O   UNL     1       7.555   7.663  16.997  0.00  0.00    +0.000 OA
BRANCH  29  31
ATOM     31  O   UNL     1       8.372   6.914  18.952  0.00  0.00    +0.000 OA
ATOM     32  H   UNL     1       7.917   6.582  19.744  0.00  0.00    +0.000 HD
ENDBRANCH  29  31
ENDBRANCH  28  29
ENDBRANCH  24  28
ENDBRANCH  22  24
ENDBRANCH  17  18
ENDBRANCH  16  17
ENDBRANCH   4  16
BRANCH   6  33
ATOM     33  C   UNL     1      -0.814  10.940  18.475  0.00  0.00    +0.000 C 
BRANCH  33  34
ATOM     34  C   UNL     1      -2.209  10.412  18.055  0.00  0.00    +0.000 C 
ATOM     35  C   UNL     1      -3.319  11.456  18.169  0.00  0.00    +0.000 C 
ATOM     36  C   UNL     1      -2.207   9.752  16.671  0.00  0.00    +0.000 C 
ENDBRANCH  33  34
ENDBRANCH   6  33
TORSDOF 12
ENDMDL
MODEL 3
REMARK VINA RESULT:      -7.5      3.613     10.390
REMARK  Name = 
REMARK  15 active torsions:
REMARK  status: ('A' for Active; 'I' for Inactive)
REMARK    1  A    between atoms: C_1  and  O_2
REMARK    2  A    between atoms: O_2  and  C_3
REMARK    3  A    between atoms: C_5  and  C_6
REMARK    4  A    between atoms: C_9  and  C_10
REMARK    5  A    between atoms: C_10  and  O_11
REMARK    6  A    between atoms: O_11  and  C_12
REMARK    7  A    between atoms: C_16  and  C_17
REMARK    8  A    between atoms: C_17  and  C_18
REMARK    9  A    between atoms: C_17  and  C_22
REMARK   10  A    between atoms: C_18  and  C_19
REMARK   11  A    between atoms: C_19  and  O_21
REMARK   12  A    between atoms: C_27  and  C_28
REMARK   13  A    between atoms: C_28  and  C_29
REMARK   14  A    between atoms: C_29  and  C_30
REMARK   15  A    between atoms: C_29  and  C_31
REMARK                            x       y       z     vdW  Elec       q    Type
REMARK                         _______ _______ _______ _____ _____    ______ ____
ROOT
ATOM      1  C   UNL     1      -1.028  11.643  19.648  0.00  0.00    +0.000 A 
ATOM      2  N   UNL     1       0.003  11.152  20.396  0.00  0.00    +0.000 NA
ATOM      3  C   UNL     1       0.872  10.302  19.793  0.00  0.00    +0.000 A 
ATOM      4  C   UNL     1       0.717   9.888  18.490  0.00  0.00    +0.000 A 
ATOM      5  N   UNL     1      -0.305  10.359  17.746  0.00  0.00    +0.000 NA
ATOM      6  C   UNL     1      -1.164  11.250  18.300  0.00  0.00    +0.000 A 
ENDROOT
BRANCH   1   9
ATOM      7  C   UNL     1      -3.962  13.266  21.405  0.00  0.00    +0.000 A 
ATOM      8  C   UNL     1      -3.079  12.277  20.993  0.00  0.00    +0.000 A 
ATOM      9  C   UNL     1      -1.882  12.632  20.354  0.00  0.00    +0.000 A 
ATOM     10  C   UNL     1      -1.567  13.998  20.367  0.00  0.00    +0.000 A 
ATOM     11  F   UNL     1      -0.426  14.474  19.850  0.00  0.00    +0.000 F 
ATOM     12  C   UNL     1      -2.470  14.911  20.893  0.00  0.00    +0.000 A 
ATOM     13  N   UNL     1      -3.682  14.578  21.380  0.00  0.00    +0.000 NA
BRANCH   7  15
ATOM     14  C   UNL     1      -6.098  13.917  22.089  0.00  0.00    +0.000 C 
ATOM     15  O   UNL     1      -5.230  12.837  21.752  0.00  0.00    +0.000 OA
ENDBRANCH   7  15
ENDBRANCH   1   9
BRANCH   4  16
ATOM     16  C   UNL     1       1.593   8.855  17.844  0.00  0.00    +0.000 C 
BRANCH  16  17
ATOM     17  O   UNL     1       2.251   8.034  18.811  0.00  0.00    +0.000 OA
BRANCH  17  18
ATOM     18  C   UNL     1       2.886   6.937  18.282  0.00  0.00    +0.000 A 
ATOM     19  C   UNL     1       2.200   5.727  18.416  0.00  0.00    +0.000 A 
ATOM     20  C   UNL     1       2.751   4.557  17.891  0.00  0.00    +0.000 A 
ATOM     21  C   UNL     1       3.977   4.598  17.217  0.00  0.00    +0.000 A 
ATOM     22  C   UNL     1       4.693   5.802  17.081  0.00  0.00    +0.000 A 
ATOM     23  C   UNL     1       4.141   6.957  17.657  0.00  0.00    +0.000 A 
BRANCH  22  24
ATOM     24  C   UNL     1       5.987   5.824  16.267  0.00  0.00    +0.000 C 
BRANCH  24  25
ATOM     25  C   UNL     1       6.246   4.584  15.425  0.00  0.00    +0.000 C 
ATOM     26  C   UNL     1       5.473   4.216  14.186  0.00  0.00    +0.000 C 
ATOM     27  C   UNL     1       6.860   4.776  14.055  0.00  0.00    +0.000 C 
ENDBRANCH  24  25
BRANCH  24  28
ATOM     28  C   UNL     1       7.221   6.134  17.137  0.00  0.00    +0.000 C 
BRANCH  28  29
ATOM     29  C   UNL     1       7.441   5.147  18.266  0.00  0.00    +0.000 C 
ATOM     30  O   UNL     1       7.046   5.307  19.405  0.00  0.00    +0.000 OA
BRANCH  29  31
ATOM     31  O   UNL     1       8.130   4.046  17.893  0.00  0.00    +0.000 OA
ATOM     32  H   UNL     1       7.727   3.553  17.157  0.00  0.00    +0.000 HD
ENDBRANCH  29  31
ENDBRANCH  28  29
ENDBRANCH  24  28
ENDBRANCH  22  24
ENDBRANCH  17  18
ENDBRANCH  16  17
ENDBRANCH   4  16
BRANCH   6  33
ATOM     33  C   UNL     1      -2.203  11.791  17.341  0.00  0.00    +0.000 C 
BRANCH  33  34
ATOM     34  C   UNL     1      -3.448  10.927  17.012  0.00  0.00    +0.000 C 
ATOM     35  C   UNL     1      -3.465   9.578  17.732  0.00  0.00    +0.000 C 
ATOM     36  C   UNL     1      -4.769  11.680  17.212  0.00  0.00    +0.000 C 
ENDBRANCH  33  34
ENDBRANCH   6  33
TORSDOF 12
ENDMDL
MODEL 4
REMARK VINA RESULT:      -7.5      4.693      8.376
REMARK  Name = 
REMARK  15 active torsions:
REMARK  status: ('A' for Active; 'I' for Inactive)
REMARK    1  A    between atoms: C_1  and  O_2
REMARK    2  A    between atoms: O_2  and  C_3
REMARK    3  A    between atoms: C_5  and  C_6
REMARK    4  A    between atoms: C_9  and  C_10
REMARK    5  A    between atoms: C_10  and  O_11
REMARK    6  A    between atoms: O_11  and  C_12
REMARK    7  A    between atoms: C_16  and  C_17
REMARK    8  A    between atoms: C_17  and  C_18
REMARK    9  A    between atoms: C_17  and  C_22
REMARK   10  A    between atoms: C_18  and  C_19
REMARK   11  A    between atoms: C_19  and  O_21
REMARK   12  A    between atoms: C_27  and  C_28
REMARK   13  A    between atoms: C_28  and  C_29
REMARK   14  A    between atoms: C_29  and  C_30
REMARK   15  A    between atoms: C_29  and  C_31
REMARK                            x       y       z     vdW  Elec       q    Type
REMARK                         _______ _______ _______ _____ _____    ______ ____
ROOT
ATOM      1  C   UNL     1       5.034   5.097  18.210  0.00  0.00    +0.000 A 
ATOM      2  N   UNL     1       6.267   4.693  18.635  0.00  0.00    +0.000 NA
ATOM      3  C   UNL     1       7.273   5.602  18.612  0.00  0.00    +0.000 A 
ATOM      4  C   UNL     1       7.104   6.880  18.133  0.00  0.00    +0.000 A 
ATOM      5  N   UNL     1       5.892   7.287  17.701  0.00  0.00    +0.000 NA
ATOM      6  C   UNL     1       4.850   6.420  17.757  0.00  0.00    +0.000 A 
ENDROOT
BRANCH   1   9
ATOM      7  C   UNL     1       2.541   2.671  19.702  0.00  0.00    +0.000 A 
ATOM      8  C   UNL     1       3.331   3.805  19.568  0.00  0.00    +0.000 A 
ATOM      9  C   UNL     1       3.970   4.072  18.348  0.00  0.00    +0.000 A 
ATOM     10  C   UNL     1       3.584   3.262  17.271  0.00  0.00    +0.000 A 
ATOM     11  F   UNL     1       4.065   3.444  16.032  0.00  0.00    +0.000 F 
ATOM     12  C   UNL     1       2.706   2.207  17.477  0.00  0.00    +0.000 A 
ATOM     13  N   UNL     1       2.203   1.869  18.680  0.00  0.00    +0.000 NA
BRANCH   7  15
ATOM     14  C   UNL     1       2.151   3.452  21.867  0.00  0.00    +0.000 C 
ATOM     15  O   UNL     1       2.193   2.326  20.995  0.00  0.00    +0.000 OA
ENDBRANCH   7  15
ENDBRANCH   1   9
BRANCH   4  16
ATOM     16  C   UNL     1       8.230   7.860  17.984  0.00  0.00    +0.000 C 
BRANCH  16  17
ATOM     17  O   UNL     1       7.758   9.170  17.658  0.00  0.00    +0.000 OA
BRANCH  17  18
ATOM     18  C   UNL     1       8.499  10.189  18.205  0.00  0.00    +0.000 A 
ATOM     19  C   UNL     1       9.262   9.841  19.322  0.00  0.00    +0.000 A 
ATOM     20  C   UNL     1      10.068  10.800  19.937  0.00  0.00    +0.000 A 
ATOM     21  C   UNL     1      10.126  12.102  19.425  0.00  0.00    +0.000 A 
ATOM     22  C   UNL     1       9.355  12.481  18.310  0.00  0.00    +0.000 A 
ATOM     23  C   UNL     1       8.518  11.510  17.737  0.00  0.00    +0.000 A 
BRANCH  22  24
ATOM     24  C   UNL     1       9.507  13.886  17.729  0.00  0.00    +0.000 C 
BRANCH  24  25
ATOM     25  C   UNL     1      10.811  14.592  18.068  0.00  0.00    +0.000 C 
ATOM     26  C   UNL     1      12.140  14.288  17.427  0.00  0.00    +0.000 C 
ATOM     27  C   UNL     1      11.396  15.531  17.035  0.00  0.00    +0.000 C 
ENDBRANCH  24  25
BRANCH  24  28
ATOM     28  C   UNL     1       8.313  14.796  18.079  0.00  0.00    +0.000 C 
BRANCH  28  29
ATOM     29  C   UNL     1       8.363  15.365  19.482  0.00  0.00    +0.000 C 
ATOM     30  O   UNL     1       8.117  14.732  20.490  0.00  0.00    +0.000 OA
BRANCH  29  31
ATOM     31  O   UNL     1       8.713  16.670  19.522  0.00  0.00    +0.000 OA
ATOM     32  H   UNL     1       8.751  17.046  20.419  0.00  0.00    +0.000 HD
ENDBRANCH  29  31
ENDBRANCH  28  29
ENDBRANCH  24  28
ENDBRANCH  22  24
ENDBRANCH  17  18
ENDBRANCH  16  17
ENDBRANCH   4  16
BRANCH   6  33
ATOM     33  C   UNL     1       3.521   7.020  17.349  0.00  0.00    +0.000 C 
BRANCH  33  34
ATOM     34  C   UNL     1       2.786   7.966  18.333  0.00  0.00    +0.000 C 
ATOM     35  C   UNL     1       1.665   8.775  17.683  0.00  0.00    +0.000 C 
ATOM     36  C   UNL     1       2.295   7.250  19.598  0.00  0.00    +0.000 C 
ENDBRANCH  33  34
ENDBRANCH   6  33
TORSDOF 12
ENDMDL
MODEL 5
REMARK VINA RESULT:      -7.4      3.168      9.657
REMARK  Name = 
REMARK  15 active torsions:
REMARK  status: ('A' for Active; 'I' for Inactive)
REMARK    1  A    between atoms: C_1  and  O_2
REMARK    2  A    between atoms: O_2  and  C_3
REMARK    3  A    between atoms: C_5  and  C_6
REMARK    4  A    between atoms: C_9  and  C_10
REMARK    5  A    between atoms: C_10  and  O_11
REMARK    6  A    between atoms: O_11  and  C_12
REMARK    7  A    between atoms: C_16  and  C_17
REMARK    8  A    between atoms: C_17  and  C_18
REMARK    9  A    between atoms: C_17  and  C_22
REMARK   10  A    between atoms: C_18  and  C_19
REMARK   11  A    between atoms: C_19  and  O_21
REMARK   12  A    between atoms: C_27  and  C_28
REMARK   13  A    between atoms: C_28  and  C_29
REMARK   14  A    between atoms: C_29  and  C_30
REMARK   15  A    between atoms: C_29  and  C_31
REMARK                            x       y       z     vdW  Elec       q    Type
REMARK                         _______ _______ _______ _____ _____    ______ ____
ROOT
ATOM      1  C   UNL     1       0.134  10.635  21.300  0.00  0.00    +0.000 A 
ATOM      2  N   UNL     1       0.742  10.012  22.350  0.00  0.00    +0.000 NA
ATOM      3  C   UNL     1       1.432   8.872  22.095  0.00  0.00    +0.000 A 
ATOM      4  C   UNL     1       1.491   8.308  20.841  0.00  0.00    +0.000 A 
ATOM      5  N   UNL     1       0.884   8.911  19.798  0.00  0.00    +0.000 NA
ATOM      6  C   UNL     1       0.227  10.080  20.006  0.00  0.00    +0.000 A 
ENDROOT
BRANCH   1   9
ATOM      7  C   UNL     1      -2.498  13.219  22.154  0.00  0.00    +0.000 A 
ATOM      8  C   UNL     1      -1.851  11.991  22.098  0.00  0.00    +0.000 A 
ATOM      9  C   UNL     1      -0.525  11.920  21.646  0.00  0.00    +0.000 A 
ATOM     10  C   UNL     1       0.127  13.150  21.479  0.00  0.00    +0.000 A 
ATOM     11  F   UNL     1       1.414  13.232  21.113  0.00  0.00    +0.000 F 
ATOM     12  C   UNL     1      -0.573  14.335  21.656  0.00  0.00    +0.000 A 
ATOM     13  N   UNL     1      -1.886  14.397  21.954  0.00  0.00    +0.000 NA
BRANCH   7  15
ATOM     14  C   UNL     1      -4.518  14.345  21.837  0.00  0.00    +0.000 C 
ATOM     15  O   UNL     1      -3.869  13.173  22.323  0.00  0.00    +0.000 OA
ENDBRANCH   7  15
ENDBRANCH   1   9
BRANCH   4  16
ATOM     16  C   UNL     1       2.143   6.986  20.562  0.00  0.00    +0.000 C 
BRANCH  16  17
ATOM     17  O   UNL     1       1.448   6.252  19.551  0.00  0.00    +0.000 OA
BRANCH  17  18
ATOM     18  C   UNL     1       2.261   5.489  18.749  0.00  0.00    +0.000 A 
ATOM     19  C   UNL     1       1.685   4.313  18.261  0.00  0.00    +0.000 A 
ATOM     20  C   UNL     1       2.422   3.480  17.417  0.00  0.00    +0.000 A 
ATOM     21  C   UNL     1       3.726   3.829  17.048  0.00  0.00    +0.000 A 
ATOM     22  C   UNL     1       4.333   5.001  17.538  0.00  0.00    +0.000 A 
ATOM     23  C   UNL     1       3.588   5.800  18.421  0.00  0.00    +0.000 A 
BRANCH  22  24
ATOM     24  C   UNL     1       5.726   5.393  17.047  0.00  0.00    +0.000 C 
BRANCH  24  25
ATOM     25  C   UNL     1       6.399   6.512  17.828  0.00  0.00    +0.000 C 
ATOM     26  C   UNL     1       7.718   6.382  18.543  0.00  0.00    +0.000 C 
ATOM     27  C   UNL     1       7.652   7.127  17.242  0.00  0.00    +0.000 C 
ENDBRANCH  24  25
BRANCH  24  28
ATOM     28  C   UNL     1       5.745   5.720  15.541  0.00  0.00    +0.000 C 
BRANCH  28  29
ATOM     29  C   UNL     1       6.769   4.929  14.752  0.00  0.00    +0.000 C 
ATOM     30  O   UNL     1       7.820   5.382  14.341  0.00  0.00    +0.000 OA
BRANCH  29  31
ATOM     31  O   UNL     1       6.409   3.644  14.537  0.00  0.00    +0.000 OA
ATOM     32  H   UNL     1       6.755   3.017  15.195  0.00  0.00    +0.000 HD
ENDBRANCH  29  31
ENDBRANCH  28  29
ENDBRANCH  24  28
ENDBRANCH  22  24
ENDBRANCH  17  18
ENDBRANCH  16  17
ENDBRANCH   4  16
BRANCH   6  33
ATOM     33  C   UNL     1      -0.320  10.718  18.747  0.00  0.00    +0.000 C 
BRANCH  33  34
ATOM     34  C   UNL     1      -1.806  10.485  18.369  0.00  0.00    +0.000 C 
ATOM     35  C   UNL     1      -2.691  11.712  18.584  0.00  0.00    +0.000 C 
ATOM     36  C   UNL     1      -1.981   9.914  16.956  0.00  0.00    +0.000 C 
ENDBRANCH  33  34
ENDBRANCH   6  33
TORSDOF 12
ENDMDL
MODEL 6
REMARK VINA RESULT:      -7.4      3.468      9.882
REMARK  Name = 
REMARK  15 active torsions:
REMARK  status: ('A' for Active; 'I' for Inactive)
REMARK    1  A    between atoms: C_1  and  O_2
REMARK    2  A    between atoms: O_2  and  C_3
REMARK    3  A    between atoms: C_5  and  C_6
REMARK    4  A    between atoms: C_9  and  C_10
REMARK    5  A    between atoms: C_10  and  O_11
REMARK    6  A    between atoms: O_11  and  C_12
REMARK    7  A    between atoms: C_16  and  C_17
REMARK    8  A    between atoms: C_17  and  C_18
REMARK    9  A    between atoms: C_17  and  C_22
REMARK   10  A    between atoms: C_18  and  C_19
REMARK   11  A    between atoms: C_19  and  O_21
REMARK   12  A    between atoms: C_27  and  C_28
REMARK   13  A    between atoms: C_28  and  C_29
REMARK   14  A    between atoms: C_29  and  C_30
REMARK   15  A    between atoms: C_29  and  C_31
REMARK                            x       y       z     vdW  Elec       q    Type
REMARK                         _______ _______ _______ _____ _____    ______ ____
ROOT
ATOM      1  C   UNL     1       0.090  10.902  21.587  0.00  0.00    +0.000 A 
ATOM      2  N   UNL     1       0.775  10.127  22.477  0.00  0.00    +0.000 NA
ATOM      3  C   UNL     1       1.392   9.015  22.003  0.00  0.00    +0.000 A 
ATOM      4  C   UNL     1       1.306   8.627  20.685  0.00  0.00    +0.000 A 
ATOM      5  N   UNL     1       0.622   9.382  19.801  0.00  0.00    +0.000 NA
ATOM      6  C   UNL     1       0.035  10.527  20.229  0.00  0.00    +0.000 A 
ENDROOT
BRANCH   1   9
ATOM      7  C   UNL     1      -0.340  14.497  22.695  0.00  0.00    +0.000 A 
ATOM      8  C   UNL     1       0.066  13.412  21.928  0.00  0.00    +0.000 A 
ATOM      9  C   UNL     1      -0.482  12.143  22.168  0.00  0.00    +0.000 A 
ATOM     10  C   UNL     1      -1.575  12.109  23.046  0.00  0.00    +0.000 A 
ATOM     11  F   UNL     1      -2.237  10.975  23.319  0.00  0.00    +0.000 F 
ATOM     12  C   UNL     1      -1.977  13.267  23.696  0.00  0.00    +0.000 A 
ATOM     13  N   UNL     1      -1.358  14.457  23.569  0.00  0.00    +0.000 NA
BRANCH   7  15
ATOM     14  C   UNL     1      -0.018  16.534  21.602  0.00  0.00    +0.000 C 
ATOM     15  O   UNL     1       0.446  15.630  22.602  0.00  0.00    +0.000 OA
ENDBRANCH   7  15
ENDBRANCH   1   9
BRANCH   4  16
ATOM     16  C   UNL     1       1.876   7.340  20.167  0.00  0.00    +0.000 C 
BRANCH  16  17
ATOM     17  O   UNL     1       1.957   7.329  18.740  0.00  0.00    +0.000 OA
BRANCH  17  18
ATOM     18  C   UNL     1       2.600   6.233  18.219  0.00  0.00    +0.000 A 
ATOM     19  C   UNL     1       1.815   5.083  18.095  0.00  0.00    +0.000 A 
ATOM     20  C   UNL     1       2.370   3.922  17.555  0.00  0.00    +0.000 A 
ATOM     21  C   UNL     1       3.701   3.913  17.124  0.00  0.00    +0.000 A 
ATOM     22  C   UNL     1       4.516   5.054  17.252  0.00  0.00    +0.000 A 
ATOM     23  C   UNL     1       3.949   6.196  17.840  0.00  0.00    +0.000 A 
BRANCH  22  24
ATOM     24  C   UNL     1       5.939   5.033  16.695  0.00  0.00    +0.000 C 
BRANCH  24  25
ATOM     25  C   UNL     1       7.002   5.630  17.604  0.00  0.00    +0.000 C 
ATOM     26  C   UNL     1       7.015   5.497  19.105  0.00  0.00    +0.000 C 
ATOM     27  C   UNL     1       7.967   4.680  18.281  0.00  0.00    +0.000 C 
ENDBRANCH  24  25
BRANCH  24  28
ATOM     28  C   UNL     1       6.028   5.673  15.295  0.00  0.00    +0.000 C 
BRANCH  28  29
ATOM     29  C   UNL     1       6.686   4.790  14.254  0.00  0.00    +0.000 C 
ATOM     30  O   UNL     1       7.412   5.196  13.368  0.00  0.00    +0.000 OA
BRANCH  29  31
ATOM     31  O   UNL     1       6.391   3.478  14.397  0.00  0.00    +0.000 OA
ATOM     32  H   UNL     1       6.241   3.200  15.317  0.00  0.00    +0.000 HD
ENDBRANCH  29  31
ENDBRANCH  28  29
ENDBRANCH  24  28
ENDBRANCH  22  24
ENDBRANCH  17  18
ENDBRANCH  16  17
ENDBRANCH   4  16
BRANCH   6  33
ATOM     33  C   UNL     1      -0.609  11.343  19.129  0.00  0.00    +0.000 C 
BRANCH  33  34
ATOM     34  C   UNL     1       0.238  12.406  18.384  0.00  0.00    +0.000 C 
ATOM     35  C   UNL     1      -0.297  13.831  18.533  0.00  0.00    +0.000 C 
ATOM     36  C   UNL     1       1.730  12.333  18.731  0.00  0.00    +0.000 C 
ENDBRANCH  33  34
ENDBRANCH   6  33
TORSDOF 12
ENDMDL
MODEL 7
REMARK VINA RESULT:      -7.3      2.435      3.129
REMARK  Name = 
REMARK  15 active torsions:
REMARK  status: ('A' for Active; 'I' for Inactive)
REMARK    1  A    between atoms: C_1  and  O_2
REMARK    2  A    between atoms: O_2  and  C_3
REMARK    3  A    between atoms: C_5  and  C_6
REMARK    4  A    between atoms: C_9  and  C_10
REMARK    5  A    between atoms: C_10  and  O_11
REMARK    6  A    between atoms: O_11  and  C_12
REMARK    7  A    between atoms: C_16  and  C_17
REMARK    8  A    between atoms: C_17  and  C_18
REMARK    9  A    between atoms: C_17  and  C_22
REMARK   10  A    between atoms: C_18  and  C_19
REMARK   11  A    between atoms: C_19  and  O_21
REMARK   12  A    between atoms: C_27  and  C_28
REMARK   13  A    between atoms: C_28  and  C_29
REMARK   14  A    between atoms: C_29  and  C_30
REMARK   15  A    between atoms: C_29  and  C_31
REMARK                            x       y       z     vdW  Elec       q    Type
REMARK                         _______ _______ _______ _____ _____    ______ ____
ROOT
ATOM      1  C   UNL     1       4.319   6.111  17.520  0.00  0.00    +0.000 A 
ATOM      2  N   UNL     1       3.865   7.382  17.319  0.00  0.00    +0.000 NA
ATOM      3  C   UNL     1       3.030   7.910  18.249  0.00  0.00    +0.000 A 
ATOM      4  C   UNL     1       2.595   7.196  19.341  0.00  0.00    +0.000 A 
ATOM      5  N   UNL     1       3.030   5.935  19.544  0.00  0.00    +0.000 NA
ATOM      6  C   UNL     1       3.905   5.393  18.661  0.00  0.00    +0.000 A 
ENDROOT
BRANCH   1   9
ATOM      7  C   UNL     1       5.822   4.483  14.450  0.00  0.00    +0.000 A 
ATOM      8  C   UNL     1       4.903   5.150  15.250  0.00  0.00    +0.000 A 
ATOM      9  C   UNL     1       5.295   5.639  16.505  0.00  0.00    +0.000 A 
ATOM     10  C   UNL     1       6.671   5.598  16.771  0.00  0.00    +0.000 A 
ATOM     11  F   UNL     1       7.195   6.088  17.903  0.00  0.00    +0.000 F 
ATOM     12  C   UNL     1       7.534   4.999  15.864  0.00  0.00    +0.000 A 
ATOM     13  N   UNL     1       7.134   4.405  14.722  0.00  0.00    +0.000 NA
BRANCH   7  15
ATOM     14  C   UNL     1       6.282   3.460  12.403  0.00  0.00    +0.000 C 
ATOM     15  O   UNL     1       5.296   3.785  13.380  0.00  0.00    +0.000 OA
ENDBRANCH   7  15
ENDBRANCH   1   9
BRANCH   4  16
ATOM     16  C   UNL     1       1.577   7.716  20.313  0.00  0.00    +0.000 C 
BRANCH  16  17
ATOM     17  O   UNL     1       1.082   9.001  19.930  0.00  0.00    +0.000 OA
BRANCH  17  18
ATOM     18  C   UNL     1       0.348   9.636  20.901  0.00  0.00    +0.000 A 
ATOM     19  C   UNL     1       0.437   9.078  22.179  0.00  0.00    +0.000 A 
ATOM     20  C   UNL     1      -0.253   9.664  23.240  0.00  0.00    +0.000 A 
ATOM     21  C   UNL     1      -1.019  10.817  23.030  0.00  0.00    +0.000 A 
ATOM     22  C   UNL     1      -1.136  11.390  21.750  0.00  0.00    +0.000 A 
ATOM     23  C   UNL     1      -0.469  10.756  20.689  0.00  0.00    +0.000 A 
BRANCH  22  24
ATOM     24  C   UNL     1      -1.911  12.695  21.574  0.00  0.00    +0.000 C 
BRANCH  24  25
ATOM     25  C   UNL     1      -1.456  13.845  22.460  0.00  0.00    +0.000 C 
ATOM     26  C   UNL     1      -0.071  14.435  22.450  0.00  0.00    +0.000 C 
ATOM     27  C   UNL     1      -1.198  15.184  21.802  0.00  0.00    +0.000 C 
ENDBRANCH  24  25
BRANCH  24  28
ATOM     28  C   UNL     1      -3.433  12.495  21.715  0.00  0.00    +0.000 C 
BRANCH  28  29
ATOM     29  C   UNL     1      -3.997  12.976  23.037  0.00  0.00    +0.000 C 
ATOM     30  O   UNL     1      -4.424  14.098  23.235  0.00  0.00    +0.000 OA
BRANCH  29  31
ATOM     31  O   UNL     1      -3.987  12.032  24.003  0.00  0.00    +0.000 OA
ATOM     32  H   UNL     1      -4.205  12.366  24.891  0.00  0.00    +0.000 HD
ENDBRANCH  29  31
ENDBRANCH  28  29
ENDBRANCH  24  28
ENDBRANCH  22  24
ENDBRANCH  17  18
ENDBRANCH  16  17
ENDBRANCH   4  16
BRANCH   6  33
ATOM     33  C   UNL     1       4.406   4.017  19.048  0.00  0.00    +0.000 C 
BRANCH  33  34
ATOM     34  C   UNL     1       3.473   2.794  18.857  0.00  0.00    +0.000 C 
ATOM     35  C   UNL     1       2.589   2.502  20.069  0.00  0.00    +0.000 C 
ATOM     36  C   UNL     1       2.643   2.869  17.569  0.00  0.00    +0.000 C 
ENDBRANCH  33  34
ENDBRANCH   6  33
TORSDOF 12
ENDMDL
MODEL 8
REMARK VINA RESULT:      -7.3      4.093     10.331
REMARK  Name = 
REMARK  15 active torsions:
REMARK  status: ('A' for Active; 'I' for Inactive)
REMARK    1  A    between atoms: C_1  and  O_2
REMARK    2  A    between atoms: O_2  and  C_3
REMARK    3  A    between atoms: C_5  and  C_6
REMARK    4  A    between atoms: C_9  and  C_10
REMARK    5  A    between atoms: C_10  and  O_11
REMARK    6  A    between atoms: O_11  and  C_12
REMARK    7  A    between atoms: C_16  and  C_17
REMARK    8  A    between atoms: C_17  and  C_18
REMARK    9  A    between atoms: C_17  and  C_22
REMARK   10  A    between atoms: C_18  and  C_19
REMARK   11  A    between atoms: C_19  and  O_21
REMARK   12  A    between atoms: C_27  and  C_28
REMARK   13  A    between atoms: C_28  and  C_29
REMARK   14  A    between atoms: C_29  and  C_30
REMARK   15  A    between atoms: C_29  and  C_31
REMARK                            x       y       z     vdW  Elec       q    Type
REMARK                         _______ _______ _______ _____ _____    ______ ____
ROOT
ATOM      1  C   UNL     1      -1.411  11.881  22.623  0.00  0.00    +0.000 A 
ATOM      2  N   UNL     1      -1.494  10.730  23.352  0.00  0.00    +0.000 NA
ATOM      3  C   UNL     1      -0.514   9.806  23.190  0.00  0.00    +0.000 A 
ATOM      4  C   UNL     1       0.514   9.970  22.290  0.00  0.00    +0.000 A 
ATOM      5  N   UNL     1       0.600  11.099  21.557  0.00  0.00    +0.000 NA
ATOM      6  C   UNL     1      -0.335  12.067  21.730  0.00  0.00    +0.000 A 
ENDROOT
BRANCH   1   9
ATOM      7  C   UNL     1      -4.637  13.857  22.490  0.00  0.00    +0.000 A 
ATOM      8  C   UNL     1      -3.769  12.777  22.397  0.00  0.00    +0.000 A 
ATOM      9  C   UNL     1      -2.472  12.875  22.921  0.00  0.00    +0.000 A 
ATOM     10  C   UNL     1      -2.216  14.013  23.701  0.00  0.00    +0.000 A 
ATOM     11  F   UNL     1      -1.040  14.208  24.315  0.00  0.00    +0.000 F 
ATOM     12  C   UNL     1      -3.183  15.001  23.822  0.00  0.00    +0.000 A 
ATOM     13  N   UNL     1      -4.378  14.966  23.201  0.00  0.00    +0.000 NA
BRANCH   7  15
ATOM     14  C   UNL     1      -5.482  13.932  20.315  0.00  0.00    +0.000 C 
ATOM     15  O   UNL     1      -5.772  13.790  21.704  0.00  0.00    +0.000 OA
ENDBRANCH   7  15
ENDBRANCH   1   9
BRANCH   4  16
ATOM     16  C   UNL     1       1.537   8.910  22.007  0.00  0.00    +0.000 C 
BRANCH  16  17
ATOM     17  O   UNL     1       1.025   7.892  21.144  0.00  0.00    +0.000 OA
BRANCH  17  18
ATOM     18  C   UNL     1       1.764   7.693  20.004  0.00  0.00    +0.000 A 
ATOM     19  C   UNL     1       1.673   8.708  19.048  0.00  0.00    +0.000 A 
ATOM     20  C   UNL     1       2.405   8.611  17.863  0.00  0.00    +0.000 A 
ATOM     21  C   UNL     1       3.240   7.510  17.641  0.00  0.00    +0.000 A 
ATOM     22  C   UNL     1       3.338   6.468  18.583  0.00  0.00    +0.000 A 
ATOM     23  C   UNL     1       2.558   6.566  19.746  0.00  0.00    +0.000 A 
BRANCH  22  24
ATOM     24  C   UNL     1       4.323   5.324  18.344  0.00  0.00    +0.000 C 
BRANCH  24  25
ATOM     25  C   UNL     1       5.170   5.448  17.087  0.00  0.00    +0.000 C 
ATOM     26  C   UNL     1       6.409   6.298  16.971  0.00  0.00    +0.000 C 
ATOM     27  C   UNL     1       6.542   4.807  17.094  0.00  0.00    +0.000 C 
ENDBRANCH  24  25
BRANCH  24  28
ATOM     28  C   UNL     1       3.637   3.944  18.380  0.00  0.00    +0.000 C 
BRANCH  28  29
ATOM     29  C   UNL     1       3.991   3.112  19.596  0.00  0.00    +0.000 C 
ATOM     30  O   UNL     1       3.234   2.893  20.522  0.00  0.00    +0.000 OA
BRANCH  29  31
ATOM     31  O   UNL     1       5.249   2.620  19.565  0.00  0.00    +0.000 OA
ATOM     32  H   UNL     1       5.457   2.104  18.767  0.00  0.00    +0.000 HD
ENDBRANCH  29  31
ENDBRANCH  28  29
ENDBRANCH  24  28
ENDBRANCH  22  24
ENDBRANCH  17  18
ENDBRANCH  16  17
ENDBRANCH   4  16
BRANCH   6  33
ATOM     33  C   UNL     1      -0.076  13.329  20.935  0.00  0.00    +0.000 C 
BRANCH  33  34
ATOM     34  C   UNL     1       0.649  13.225  19.569  0.00  0.00    +0.000 C 
ATOM     35  C   UNL     1      -0.212  13.660  18.384  0.00  0.00    +0.000 C 
ATOM     36  C   UNL     1       2.009  13.934  19.558  0.00  0.00    +0.000 C 
ENDBRANCH  33  34
ENDBRANCH   6  33
TORSDOF 12
ENDMDL
MODEL 9
REMARK VINA RESULT:      -7.2      1.775      2.907
REMARK  Name = 
REMARK  15 active torsions:
REMARK  status: ('A' for Active; 'I' for Inactive)
REMARK    1  A    between atoms: C_1  and  O_2
REMARK    2  A    between atoms: O_2  and  C_3
REMARK    3  A    between atoms: C_5  and  C_6
REMARK    4  A    between atoms: C_9  and  C_10
REMARK    5  A    between atoms: C_10  and  O_11
REMARK    6  A    between atoms: O_11  and  C_12
REMARK    7  A    between atoms: C_16  and  C_17
REMARK    8  A    between atoms: C_17  and  C_18
REMARK    9  A    between atoms: C_17  and  C_22
REMARK   10  A    between atoms: C_18  and  C_19
REMARK   11  A    between atoms: C_19  and  O_21
REMARK   12  A    between atoms: C_27  and  C_28
REMARK   13  A    between atoms: C_28  and  C_29
REMARK   14  A    between atoms: C_29  and  C_30
REMARK   15  A    between atoms: C_29  and  C_31
REMARK                            x       y       z     vdW  Elec       q    Type
REMARK                         _______ _______ _______ _____ _____    ______ ____
ROOT
ATOM      1  C   UNL     1       3.133   6.805  18.453  0.00  0.00    +0.000 A 
ATOM      2  N   UNL     1       2.841   7.991  17.843  0.00  0.00    +0.000 NA
ATOM      3  C   UNL     1       1.973   8.827  18.467  0.00  0.00    +0.000 A 
ATOM      4  C   UNL     1       1.350   8.497  19.649  0.00  0.00    +0.000 A 
ATOM      5  N   UNL     1       1.623   7.323  20.254  0.00  0.00    +0.000 NA
ATOM      6  C   UNL     1       2.525   6.484  19.685  0.00  0.00    +0.000 A 
ENDROOT
BRANCH   1   9
ATOM      7  C   UNL     1       6.346   5.724  16.770  0.00  0.00    +0.000 A 
ATOM      8  C   UNL     1       5.497   6.382  17.651  0.00  0.00    +0.000 A 
ATOM      9  C   UNL     1       4.155   5.988  17.752  0.00  0.00    +0.000 A 
ATOM     10  C   UNL     1       3.818   4.798  17.092  0.00  0.00    +0.000 A 
ATOM     11  F   UNL     1       2.588   4.269  17.154  0.00  0.00    +0.000 F 
ATOM     12  C   UNL     1       4.764   4.149  16.310  0.00  0.00    +0.000 A 
ATOM     13  N   UNL     1       6.014   4.607  16.104  0.00  0.00    +0.000 NA
BRANCH   7  15
ATOM     14  C   UNL     1       7.779   7.467  17.367  0.00  0.00    +0.000 C 
ATOM     15  O   UNL     1       7.553   6.348  16.514  0.00  0.00    +0.000 OA
ENDBRANCH   7  15
ENDBRANCH   1   9
BRANCH   4  16
ATOM     16  C   UNL     1       0.296   9.351  20.290  0.00  0.00    +0.000 C 
BRANCH  16  17
ATOM     17  O   UNL     1      -0.478  10.061  19.321  0.00  0.00    +0.000 OA
BRANCH  17  18
ATOM     18  C   UNL     1      -0.729  11.371  19.648  0.00  0.00    +0.000 A 
ATOM     19  C   UNL     1       0.151  12.305  19.096  0.00  0.00    +0.000 A 
ATOM     20  C   UNL     1      -0.033  13.664  19.350  0.00  0.00    +0.000 A 
ATOM     21  C   UNL     1      -1.105  14.093  20.141  0.00  0.00    +0.000 A 
ATOM     22  C   UNL     1      -1.996  13.171  20.721  0.00  0.00    +0.000 A 
ATOM     23  C   UNL     1      -1.764  11.805  20.488  0.00  0.00    +0.000 A 
BRANCH  22  24
ATOM     24  C   UNL     1      -3.203  13.679  21.509  0.00  0.00    +0.000 C 
BRANCH  24  25
ATOM     25  C   UNL     1      -3.814  12.679  22.478  0.00  0.00    +0.000 C 
ATOM     26  C   UNL     1      -3.128  12.158  23.714  0.00  0.00    +0.000 C 
ATOM     27  C   UNL     1      -4.220  13.180  23.848  0.00  0.00    +0.000 C 
ENDBRANCH  24  25
BRANCH  24  28
ATOM     28  C   UNL     1      -4.300  14.256  20.592  0.00  0.00    +0.000 C 
BRANCH  28  29
ATOM     29  C   UNL     1      -5.239  13.212  20.022  0.00  0.00    +0.000 C 
ATOM     30  O   UNL     1      -6.276  12.859  20.549  0.00  0.00    +0.000 OA
BRANCH  29  31
ATOM     31  O   UNL     1      -4.817  12.691  18.848  0.00  0.00    +0.000 OA
ATOM     32  H   UNL     1      -5.228  13.091  18.063  0.00  0.00    +0.000 HD
ENDBRANCH  29  31
ENDBRANCH  28  29
ENDBRANCH  24  28
ENDBRANCH  22  24
ENDBRANCH  17  18
ENDBRANCH  16  17
ENDBRANCH   4  16
BRANCH   6  33
ATOM     33  C   UNL     1       2.831   5.251  20.507  0.00  0.00    +0.000 C 
BRANCH  33  34
ATOM     34  C   UNL     1       1.672   4.295  20.894  0.00  0.00    +0.000 C 
ATOM     35  C   UNL     1       0.861   3.801  19.696  0.00  0.00    +0.000 C 
ATOM     36  C   UNL     1       2.128   3.127  21.777  0.00  0.00    +0.000 C 
ENDBRANCH  33  34
ENDBRANCH   6  33
TORSDOF 12
ENDMDL
