MODEL 1
REMARK VINA RESULT:      -6.7      0.000      0.000
REMARK  Name = 
REMARK  4 active torsions:
REMARK  status: ('A' for Active; 'I' for Inactive)
REMARK    1  A    between atoms: C_1  and  C_2
REMARK    2  A    between atoms: C_3  and  C_4
REMARK    3  A    between atoms: C_4  and  C_5
REMARK    4  A    between atoms: C_5  and  O_6
REMARK                            x       y       z     vdW  Elec       q    Type
REMARK                         _______ _______ _______ _____ _____    ______ ____
ROOT
ATOM      1  C   UNL     1       5.492   3.696  15.851  0.00  0.00    +0.000 C 
ATOM      2  C   UNL     1       4.531   4.212  16.894  0.00  0.00    +0.000 C 
ATOM      3  C   UNL     1       4.362   5.506  17.206  0.00  0.00    +0.000 C 
ATOM      4  C   UNL     1       3.325   5.904  18.213  0.00  0.00    +0.000 C 
ATOM      5  O   UNL     1       3.069   7.067  18.455  0.00  0.00    +0.000 OA
ATOM      6  C   UNL     1       2.600   4.838  18.942  0.00  0.00    +0.000 A 
ATOM      7  C   UNL     1       1.684   5.202  19.942  0.00  0.00    +0.000 A 
ATOM      8  C   UNL     1       1.008   4.217  20.660  0.00  0.00    +0.000 A 
ATOM      9  C   UNL     1       1.242   2.874  20.379  0.00  0.00    +0.000 A 
ATOM     10  C   UNL     1       2.151   2.513  19.378  0.00  0.00    +0.000 A 
ATOM     11  C   UNL     1       2.830   3.504  18.657  0.00  0.00    +0.000 A 
ATOM     12  C   UNL     1       3.781   3.124  17.600  0.00  0.00    +0.000 C 
ATOM     13  O   UNL     1       3.963   1.944  17.324  0.00  0.00    +0.000 OA
ENDROOT
BRANCH   3  14
ATOM     14  C   UNL     1       5.125   6.627  16.518  0.00  0.00    +0.000 C 
BRANCH  14  15
ATOM     15  C   UNL     1       6.436   7.073  17.174  0.00  0.00    +0.000 C 
BRANCH  15  16
ATOM     16  O   UNL     1       7.562   6.553  16.476  0.00  0.00    +0.000 OA
ATOM     17  H   UNL     1       7.215   6.089  15.691  0.00  0.00    +0.000 HD
ENDBRANCH  15  16
ENDBRANCH  14  15
ENDBRANCH   3  14
TORSDOF 3
ENDMDL
MODEL 2
REMARK VINA RESULT:      -6.6      0.728      2.866
REMARK  Name = 
REMARK  4 active torsions:
REMARK  status: ('A' for Active; 'I' for Inactive)
REMARK    1  A    between atoms: C_1  and  C_2
REMARK    2  A    between atoms: C_3  and  C_4
REMARK    3  A    between atoms: C_4  and  C_5
REMARK    4  A    between atoms: C_5  and  O_6
REMARK                            x       y       z     vdW  Elec       q    Type
REMARK                         _______ _______ _______ _____ _____    ______ ____
ROOT
ATOM      1  C   UNL     1       4.634   7.046  16.750  0.00  0.00    +0.000 C 
ATOM      2  C   UNL     1       4.107   5.764  17.348  0.00  0.00    +0.000 C 
ATOM      3  C   UNL     1       4.401   4.534  16.903  0.00  0.00    +0.000 C 
ATOM      4  C   UNL     1       3.872   3.331  17.624  0.00  0.00    +0.000 C 
ATOM      5  O   UNL     1       4.191   2.198  17.317  0.00  0.00    +0.000 OA
ATOM      6  C   UNL     1       2.920   3.535  18.739  0.00  0.00    +0.000 A 
ATOM      7  C   UNL     1       2.358   2.412  19.368  0.00  0.00    +0.000 A 
ATOM      8  C   UNL     1       1.440   2.578  20.403  0.00  0.00    +0.000 A 
ATOM      9  C   UNL     1       1.085   3.861  20.812  0.00  0.00    +0.000 A 
ATOM     10  C   UNL     1       1.649   4.979  20.188  0.00  0.00    +0.000 A 
ATOM     11  C   UNL     1       2.572   4.810  19.148  0.00  0.00    +0.000 A 
ATOM     12  C   UNL     1       3.170   5.987  18.497  0.00  0.00    +0.000 C 
ATOM     13  O   UNL     1       2.889   7.117  18.877  0.00  0.00    +0.000 OA
ENDROOT
BRANCH   3  14
ATOM     14  C   UNL     1       5.334   4.282  15.728  0.00  0.00    +0.000 C 
BRANCH  14  15
ATOM     15  C   UNL     1       6.838   4.351  16.014  0.00  0.00    +0.000 C 
BRANCH  15  16
ATOM     16  O   UNL     1       7.461   5.370  15.242  0.00  0.00    +0.000 OA
ATOM     17  H   UNL     1       8.330   5.022  14.969  0.00  0.00    +0.000 HD
ENDBRANCH  15  16
ENDBRANCH  14  15
ENDBRANCH   3  14
TORSDOF 3
ENDMDL
MODEL 3
REMARK VINA RESULT:      -6.6      1.679      5.431
REMARK  Name = 
REMARK  4 active torsions:
REMARK  status: ('A' for Active; 'I' for Inactive)
REMARK    1  A    between atoms: C_1  and  C_2
REMARK    2  A    between atoms: C_3  and  C_4
REMARK    3  A    between atoms: C_4  and  C_5
REMARK    4  A    between atoms: C_5  and  O_6
REMARK                            x       y       z     vdW  Elec       q    Type
REMARK                         _______ _______ _______ _____ _____    ______ ____
ROOT
ATOM      1  C   UNL     1       1.147   5.692  20.666  0.00  0.00    +0.000 C 
ATOM      2  C   UNL     1       2.014   5.097  19.583  0.00  0.00    +0.000 C 
ATOM      3  C   UNL     1       2.117   3.786  19.319  0.00  0.00    +0.000 C 
ATOM      4  C   UNL     1       2.958   3.318  18.169  0.00  0.00    +0.000 C 
ATOM      5  O   UNL     1       3.003   2.151  17.831  0.00  0.00    +0.000 OA
ATOM      6  C   UNL     1       3.767   4.315  17.432  0.00  0.00    +0.000 A 
ATOM      7  C   UNL     1       4.618   3.875  16.405  0.00  0.00    +0.000 A 
ATOM      8  C   UNL     1       5.409   4.790  15.713  0.00  0.00    +0.000 A 
ATOM      9  C   UNL     1       5.349   6.141  16.043  0.00  0.00    +0.000 A 
ATOM     10  C   UNL     1       4.498   6.580  17.062  0.00  0.00    +0.000 A 
ATOM     11  C   UNL     1       3.703   5.658  17.757  0.00  0.00    +0.000 A 
ATOM     12  C   UNL     1       2.802   6.121  18.825  0.00  0.00    +0.000 C 
ATOM     13  O   UNL     1       2.719   7.314  19.093  0.00  0.00    +0.000 OA
ENDROOT
BRANCH   3  14
ATOM     14  C   UNL     1       1.342   2.726  20.086  0.00  0.00    +0.000 C 
BRANCH  14  15
ATOM     15  C   UNL     1       1.596   2.644  21.596  0.00  0.00    +0.000 C 
BRANCH  15  16
ATOM     16  O   UNL     1       2.978   2.458  21.875  0.00  0.00    +0.000 OA
ATOM     17  H   UNL     1       3.437   3.261  21.563  0.00  0.00    +0.000 HD
ENDBRANCH  15  16
ENDBRANCH  14  15
ENDBRANCH   3  14
TORSDOF 3
ENDMDL
MODEL 4
REMARK VINA RESULT:      -6.5      1.833      2.937
REMARK  Name = 
REMARK  4 active torsions:
REMARK  status: ('A' for Active; 'I' for Inactive)
REMARK    1  A    between atoms: C_1  and  C_2
REMARK    2  A    between atoms: C_3  and  C_4
REMARK    3  A    between atoms: C_4  and  C_5
REMARK    4  A    between atoms: C_5  and  O_6
REMARK                            x       y       z     vdW  Elec       q    Type
REMARK                         _______ _______ _______ _____ _____    ______ ____
ROOT
ATOM      1  C   UNL     1       4.781   6.994  17.126  0.00  0.00    +0.000 C 
ATOM      2  C   UNL     1       4.430   5.836  18.029  0.00  0.00    +0.000 C 
ATOM      3  C   UNL     1       5.296   4.902  18.447  0.00  0.00    +0.000 C 
ATOM      4  C   UNL     1       4.845   3.837  19.401  0.00  0.00    +0.000 C 
ATOM      5  O   UNL     1       5.616   3.029  19.883  0.00  0.00    +0.000 OA
ATOM      6  C   UNL     1       3.410   3.765  19.755  0.00  0.00    +0.000 A 
ATOM      7  C   UNL     1       2.966   2.723  20.585  0.00  0.00    +0.000 A 
ATOM      8  C   UNL     1       1.615   2.618  20.912  0.00  0.00    +0.000 A 
ATOM      9  C   UNL     1       0.710   3.552  20.414  0.00  0.00    +0.000 A 
ATOM     10  C   UNL     1       1.154   4.592  19.591  0.00  0.00    +0.000 A 
ATOM     11  C   UNL     1       2.512   4.696  19.264  0.00  0.00    +0.000 A 
ATOM     12  C   UNL     1       2.980   5.796  18.404  0.00  0.00    +0.000 C 
ATOM     13  O   UNL     1       2.193   6.640  17.994  0.00  0.00    +0.000 OA
ENDROOT
BRANCH   3  14
ATOM     14  C   UNL     1       6.768   4.911  18.065  0.00  0.00    +0.000 C 
BRANCH  14  15
ATOM     15  C   UNL     1       7.690   5.816  18.889  0.00  0.00    +0.000 C 
BRANCH  15  16
ATOM     16  O   UNL     1       7.743   5.395  20.247  0.00  0.00    +0.000 OA
ATOM     17  H   UNL     1       7.020   5.856  20.712  0.00  0.00    +0.000 HD
ENDBRANCH  15  16
ENDBRANCH  14  15
ENDBRANCH   3  14
TORSDOF 3
ENDMDL
MODEL 5
REMARK VINA RESULT:      -6.5      1.802      5.471
REMARK  Name = 
REMARK  4 active torsions:
REMARK  status: ('A' for Active; 'I' for Inactive)
REMARK    1  A    between atoms: C_1  and  C_2
REMARK    2  A    between atoms: C_3  and  C_4
REMARK    3  A    between atoms: C_4  and  C_5
REMARK    4  A    between atoms: C_5  and  O_6
REMARK                            x       y       z     vdW  Elec       q    Type
REMARK                         _______ _______ _______ _____ _____    ______ ____
ROOT
ATOM      1  C   UNL     1       1.733   6.928  20.562  0.00  0.00    +0.000 C 
ATOM      2  C   UNL     1       2.612   6.047  19.707  0.00  0.00    +0.000 C 
ATOM      3  C   UNL     1       2.940   4.780  19.998  0.00  0.00    +0.000 C 
ATOM      4  C   UNL     1       3.765   3.980  19.035  0.00  0.00    +0.000 C 
ATOM      5  O   UNL     1       4.004   2.800  19.209  0.00  0.00    +0.000 OA
ATOM      6  C   UNL     1       4.312   4.658  17.838  0.00  0.00    +0.000 A 
ATOM      7  C   UNL     1       5.150   3.937  16.971  0.00  0.00    +0.000 A 
ATOM      8  C   UNL     1       5.699   4.560  15.852  0.00  0.00    +0.000 A 
ATOM      9  C   UNL     1       5.410   5.898  15.596  0.00  0.00    +0.000 A 
ATOM     10  C   UNL     1       4.571   6.614  16.456  0.00  0.00    +0.000 A 
ATOM     11  C   UNL     1       4.020   5.986  17.581  0.00  0.00    +0.000 A 
ATOM     12  C   UNL     1       3.132   6.738  18.483  0.00  0.00    +0.000 C 
ATOM     13  O   UNL     1       2.845   7.904  18.241  0.00  0.00    +0.000 OA
ENDROOT
BRANCH   3  14
ATOM     14  C   UNL     1       2.441   4.063  21.243  0.00  0.00    +0.000 C 
BRANCH  14  15
ATOM     15  C   UNL     1       1.353   3.002  21.039  0.00  0.00    +0.000 C 
BRANCH  15  16
ATOM     16  O   UNL     1       0.298   3.499  20.224  0.00  0.00    +0.000 OA
ATOM     17  H   UNL     1      -0.443   2.871  20.311  0.00  0.00    +0.000 HD
ENDBRANCH  15  16
ENDBRANCH  14  15
ENDBRANCH   3  14
TORSDOF 3
ENDMDL
MODEL 6
REMARK VINA RESULT:      -6.4      1.410      5.485
REMARK  Name = 
REMARK  4 active torsions:
REMARK  status: ('A' for Active; 'I' for Inactive)
REMARK    1  A    between atoms: C_1  and  C_2
REMARK    2  A    between atoms: C_3  and  C_4
REMARK    3  A    between atoms: C_4  and  C_5
REMARK    4  A    between atoms: C_5  and  O_6
REMARK                            x       y       z     vdW  Elec       q    Type
REMARK                         _______ _______ _______ _____ _____    ______ ____
ROOT
ATOM      1  C   UNL     1       2.113   6.275  19.992  0.00  0.00    +0.000 C 
ATOM      2  C   UNL     1       2.900   5.451  19.003  0.00  0.00    +0.000 C 
ATOM      3  C   UNL     1       3.008   4.115  19.034  0.00  0.00    +0.000 C 
ATOM      4  C   UNL     1       3.762   3.399  17.954  0.00  0.00    +0.000 C 
ATOM      5  O   UNL     1       3.803   2.185  17.886  0.00  0.00    +0.000 OA
ATOM      6  C   UNL     1       4.487   4.203  16.944  0.00  0.00    +0.000 A 
ATOM      7  C   UNL     1       5.260   3.542  15.976  0.00  0.00    +0.000 A 
ATOM      8  C   UNL     1       5.973   4.277  15.031  0.00  0.00    +0.000 A 
ATOM      9  C   UNL     1       5.913   5.668  15.050  0.00  0.00    +0.000 A 
ATOM     10  C   UNL     1       5.139   6.326  16.012  0.00  0.00    +0.000 A 
ATOM     11  C   UNL     1       4.422   5.585  16.961  0.00  0.00    +0.000 A 
ATOM     12  C   UNL     1       3.602   6.277  17.969  0.00  0.00    +0.000 C 
ATOM     13  O   UNL     1       3.517   7.500  17.967  0.00  0.00    +0.000 OA
ENDROOT
BRANCH   3  14
ATOM     14  C   UNL     1       2.321   3.255  20.084  0.00  0.00    +0.000 C 
BRANCH  14  15
ATOM     15  C   UNL     1       0.888   2.805  19.778  0.00  0.00    +0.000 C 
BRANCH  15  16
ATOM     16  O   UNL     1       0.860   1.882  18.696  0.00  0.00    +0.000 OA
ATOM     17  H   UNL     1      -0.022   1.957  18.287  0.00  0.00    +0.000 HD
ENDBRANCH  15  16
ENDBRANCH  14  15
ENDBRANCH   3  14
TORSDOF 3
ENDMDL
MODEL 7
REMARK VINA RESULT:      -6.4      1.538      3.063
REMARK  Name = 
REMARK  4 active torsions:
REMARK  status: ('A' for Active; 'I' for Inactive)
REMARK    1  A    between atoms: C_1  and  C_2
REMARK    2  A    between atoms: C_3  and  C_4
REMARK    3  A    between atoms: C_4  and  C_5
REMARK    4  A    between atoms: C_5  and  O_6
REMARK                            x       y       z     vdW  Elec       q    Type
REMARK                         _______ _______ _______ _____ _____    ______ ____
ROOT
ATOM      1  C   UNL     1       2.873   8.219  17.910  0.00  0.00    +0.000 C 
ATOM      2  C   UNL     1       3.227   6.817  18.344  0.00  0.00    +0.000 C 
ATOM      3  C   UNL     1       4.122   6.028  17.731  0.00  0.00    +0.000 C 
ATOM      4  C   UNL     1       4.440   4.677  18.298  0.00  0.00    +0.000 C 
ATOM      5  O   UNL     1       5.314   3.969  17.834  0.00  0.00    +0.000 OA
ATOM      6  C   UNL     1       3.654   4.190  19.454  0.00  0.00    +0.000 A 
ATOM      7  C   UNL     1       3.893   2.895  19.941  0.00  0.00    +0.000 A 
ATOM      8  C   UNL     1       3.148   2.404  21.011  0.00  0.00    +0.000 A 
ATOM      9  C   UNL     1       2.170   3.204  21.597  0.00  0.00    +0.000 A 
ATOM     10  C   UNL     1       1.937   4.496  21.114  0.00  0.00    +0.000 A 
ATOM     11  C   UNL     1       2.687   4.988  20.038  0.00  0.00    +0.000 A 
ATOM     12  C   UNL     1       2.445   6.351  19.535  0.00  0.00    +0.000 C 
ATOM     13  O   UNL     1       1.612   7.071  20.070  0.00  0.00    +0.000 OA
ENDROOT
BRANCH   3  14
ATOM     14  C   UNL     1       4.913   6.471  16.510  0.00  0.00    +0.000 C 
BRANCH  14  15
ATOM     15  C   UNL     1       6.346   6.955  16.755  0.00  0.00    +0.000 C 
BRANCH  15  16
ATOM     16  O   UNL     1       7.296   5.993  16.312  0.00  0.00    +0.000 OA
ATOM     17  H   UNL     1       7.157   5.193  16.853  0.00  0.00    +0.000 HD
ENDBRANCH  15  16
ENDBRANCH  14  15
ENDBRANCH   3  14
TORSDOF 3
ENDMDL
MODEL 8
REMARK VINA RESULT:      -6.3      1.424      2.822
REMARK  Name = 
REMARK  4 active torsions:
REMARK  status: ('A' for Active; 'I' for Inactive)
REMARK    1  A    between atoms: C_1  and  C_2
REMARK    2  A    between atoms: C_3  and  C_4
REMARK    3  A    between atoms: C_4  and  C_5
REMARK    4  A    between atoms: C_5  and  O_6
REMARK                            x       y       z     vdW  Elec       q    Type
REMARK                         _______ _______ _______ _____ _____    ______ ____
ROOT
ATOM      1  C   UNL     1       4.709   7.130  17.069  0.00  0.00    +0.000 C 
ATOM      2  C   UNL     1       4.385   5.941  17.942  0.00  0.00    +0.000 C 
ATOM      3  C   UNL     1       5.244   4.957  18.245  0.00  0.00    +0.000 C 
ATOM      4  C   UNL     1       4.828   3.862  19.180  0.00  0.00    +0.000 C 
ATOM      5  O   UNL     1       5.602   3.004  19.561  0.00  0.00    +0.000 OA
ATOM      6  C   UNL     1       3.423   3.822  19.644  0.00  0.00    +0.000 A 
ATOM      7  C   UNL     1       3.004   2.756  20.457  0.00  0.00    +0.000 A 
ATOM      8  C   UNL     1       1.680   2.683  20.885  0.00  0.00    +0.000 A 
ATOM      9  C   UNL     1       0.776   3.672  20.506  0.00  0.00    +0.000 A 
ATOM     10  C   UNL     1       1.195   4.736  19.701  0.00  0.00    +0.000 A 
ATOM     11  C   UNL     1       2.527   4.809  19.271  0.00  0.00    +0.000 A 
ATOM     12  C   UNL     1       2.968   5.933  18.429  0.00  0.00    +0.000 C 
ATOM     13  O   UNL     1       2.185   6.824  18.124  0.00  0.00    +0.000 OA
ENDROOT
BRANCH   3  14
ATOM     14  C   UNL     1       6.681   4.933  17.747  0.00  0.00    +0.000 C 
BRANCH  14  15
ATOM     15  C   UNL     1       6.906   4.441  16.313  0.00  0.00    +0.000 C 
BRANCH  15  16
ATOM     16  O   UNL     1       7.475   5.464  15.503  0.00  0.00    +0.000 OA
ATOM     17  H   UNL     1       6.752   5.819  14.952  0.00  0.00    +0.000 HD
ENDBRANCH  15  16
ENDBRANCH  14  15
ENDBRANCH   3  14
TORSDOF 3
ENDMDL
MODEL 9
REMARK VINA RESULT:      -6.1      1.854      4.606
REMARK  Name = 
REMARK  4 active torsions:
REMARK  status: ('A' for Active; 'I' for Inactive)
REMARK    1  A    between atoms: C_1  and  C_2
REMARK    2  A    between atoms: C_3  and  C_4
REMARK    3  A    between atoms: C_4  and  C_5
REMARK    4  A    between atoms: C_5  and  O_6
REMARK                            x       y       z     vdW  Elec       q    Type
REMARK                         _______ _______ _______ _____ _____    ______ ____
ROOT
ATOM      1  C   UNL     1       3.418   1.435  18.413  0.00  0.00    +0.000 C 
ATOM      2  C   UNL     1       3.080   2.897  18.576  0.00  0.00    +0.000 C 
ATOM      3  C   UNL     1       2.118   3.376  19.379  0.00  0.00    +0.000 C 
ATOM      4  C   UNL     1       1.921   4.856  19.512  0.00  0.00    +0.000 C 
ATOM      5  O   UNL     1       1.130   5.337  20.300  0.00  0.00    +0.000 OA
ATOM      6  C   UNL     1       2.713   5.756  18.643  0.00  0.00    +0.000 A 
ATOM      7  C   UNL     1       2.478   7.140  18.705  0.00  0.00    +0.000 A 
ATOM      8  C   UNL     1       3.192   8.006  17.878  0.00  0.00    +0.000 A 
ATOM      9  C   UNL     1       4.139   7.494  16.995  0.00  0.00    +0.000 A 
ATOM     10  C   UNL     1       4.375   6.116  16.938  0.00  0.00    +0.000 A 
ATOM     11  C   UNL     1       3.657   5.247  17.770  0.00  0.00    +0.000 A 
ATOM     12  C   UNL     1       3.911   3.798  17.714  0.00  0.00    +0.000 C 
ATOM     13  O   UNL     1       4.769   3.346  16.965  0.00  0.00    +0.000 OA
ENDROOT
BRANCH   3  14
ATOM     14  C   UNL     1       1.248   2.481  20.250  0.00  0.00    +0.000 C 
BRANCH  14  15
ATOM     15  C   UNL     1       1.528   2.502  21.756  0.00  0.00    +0.000 C 
BRANCH  15  16
ATOM     16  O   UNL     1       2.926   2.464  22.020  0.00  0.00    +0.000 OA
ATOM     17  H   UNL     1       3.287   3.325  21.736  0.00  0.00    +0.000 HD
ENDBRANCH  15  16
ENDBRANCH  14  15
ENDBRANCH   3  14
TORSDOF 3
ENDMDL
