MODEL 1
REMARK VINA RESULT:      -8.6      0.000      0.000
REMARK  Name = 
REMARK  2 active torsions:
REMARK  status: ('A' for Active; 'I' for Inactive)
REMARK    1  A    between atoms: C_15  and  N_16
REMARK    2  A    between atoms: N_16  and  C_17
REMARK                            x       y       z     vdW  Elec       q    Type
REMARK                         _______ _______ _______ _____ _____    ______ ____
ROOT
ATOM      1  C   UNL     1       0.718   9.993  19.206  0.00  0.00    +0.000 A 
ATOM      2  C   UNL     1       1.254   9.753  17.942  0.00  0.00    +0.000 A 
ATOM      3  C   UNL     1       2.067   8.633  17.712  0.00  0.00    +0.000 A 
ATOM      4  C   UNL     1       2.361   7.744  18.751  0.00  0.00    +0.000 A 
ATOM      5  C   UNL     1       1.790   7.998  20.012  0.00  0.00    +0.000 A 
ATOM      6  C   UNL     1       0.990   9.113  20.252  0.00  0.00    +0.000 A 
ATOM      7  O   UNL     1       2.086   7.159  21.054  0.00  0.00    +0.000 OA
ATOM      8  C   UNL     1       1.323   5.945  20.977  0.00  0.00    +0.000 C 
ATOM      9  C   UNL     1       1.670   4.924  19.898  0.00  0.00    +0.000 A 
ATOM     10  N   UNL     1       1.129   3.689  20.113  0.00  0.00    +0.000 NA
ATOM     11  C   UNL     1       1.181   2.789  19.111  0.00  0.00    +0.000 A 
ATOM     12  C   UNL     1       1.649   3.086  17.848  0.00  0.00    +0.000 A 
ATOM     13  C   UNL     1       2.196   4.343  17.639  0.00  0.00    +0.000 A 
ATOM     14  C   UNL     1       2.333   5.246  18.704  0.00  0.00    +0.000 A 
ATOM     15  C   UNL     1       3.214   6.487  18.612  0.00  0.00    +0.000 C 
ENDROOT
BRANCH  15  16
ATOM     16  N   UNL     1       4.171   6.526  17.465  0.00  0.00    +0.000 NA
ATOM     17  H   UNL     1       4.682   7.406  17.548  0.00  0.00    +0.000 HD
BRANCH  16  18
ATOM     18  C   UNL     1       5.172   5.421  17.454  0.00  0.00    +0.000 C 
ATOM     19  C   UNL     1       5.814   5.047  18.828  0.00  0.00    +0.000 C 
ATOM     20  N   UNL     1       7.277   5.292  18.854  0.00  0.00    +0.000 NA
ATOM     21  C   UNL     1       7.936   4.390  17.884  0.00  0.00    +0.000 C 
ATOM     22  C   UNL     1       7.280   4.486  16.496  0.00  0.00    +0.000 C 
ATOM     23  C   UNL     1       6.337   5.713  16.464  0.00  0.00    +0.000 C 
ATOM     24  C   UNL     1       7.168   6.909  16.957  0.00  0.00    +0.000 C 
ATOM     25  C   UNL     1       7.519   6.694  18.437  0.00  0.00    +0.000 C 
ENDBRANCH  16  18
ENDBRANCH  15  16
TORSDOF 2
ENDMDL
MODEL 2
REMARK VINA RESULT:      -8.3      0.954      1.517
REMARK  Name = 
REMARK  2 active torsions:
REMARK  status: ('A' for Active; 'I' for Inactive)
REMARK    1  A    between atoms: C_15  and  N_16
REMARK    2  A    between atoms: N_16  and  C_17
REMARK                            x       y       z     vdW  Elec       q    Type
REMARK                         _______ _______ _______ _____ _____    ______ ____
ROOT
ATOM      1  C   UNL     1       0.481  10.222  19.320  0.00  0.00    +0.000 A 
ATOM      2  C   UNL     1       0.928   9.947  18.029  0.00  0.00    +0.000 A 
ATOM      3  C   UNL     1       1.731   8.825  17.774  0.00  0.00    +0.000 A 
ATOM      4  C   UNL     1       2.105   7.970  18.815  0.00  0.00    +0.000 A 
ATOM      5  C   UNL     1       1.623   8.258  20.106  0.00  0.00    +0.000 A 
ATOM      6  C   UNL     1       0.833   9.375  20.370  0.00  0.00    +0.000 A 
ATOM      7  O   UNL     1       1.999   7.451  21.149  0.00  0.00    +0.000 OA
ATOM      8  C   UNL     1       1.241   6.232  21.161  0.00  0.00    +0.000 C 
ATOM      9  C   UNL     1       1.519   5.180  20.090  0.00  0.00    +0.000 A 
ATOM     10  N   UNL     1       1.004   3.950  20.380  0.00  0.00    +0.000 NA
ATOM     11  C   UNL     1       0.991   3.021  19.403  0.00  0.00    +0.000 A 
ATOM     12  C   UNL     1       1.366   3.283  18.102  0.00  0.00    +0.000 A 
ATOM     13  C   UNL     1       1.888   4.536  17.817  0.00  0.00    +0.000 A 
ATOM     14  C   UNL     1       2.093   5.471  18.844  0.00  0.00    +0.000 A 
ATOM     15  C   UNL     1       2.956   6.714  18.653  0.00  0.00    +0.000 C 
ENDROOT
BRANCH  15  16
ATOM     16  N   UNL     1       3.828   6.724  17.440  0.00  0.00    +0.000 NA
ATOM     17  H   UNL     1       3.878   7.696  17.132  0.00  0.00    +0.000 HD
BRANCH  16  18
ATOM     18  C   UNL     1       5.223   6.251  17.675  0.00  0.00    +0.000 C 
ATOM     19  C   UNL     1       6.325   6.831  16.730  0.00  0.00    +0.000 C 
ATOM     20  N   UNL     1       6.965   5.783  15.898  0.00  0.00    +0.000 NA
ATOM     21  C   UNL     1       7.695   4.844  16.779  0.00  0.00    +0.000 C 
ATOM     22  C   UNL     1       6.791   4.323  17.909  0.00  0.00    +0.000 C 
ATOM     23  C   UNL     1       5.322   4.700  17.601  0.00  0.00    +0.000 C 
ATOM     24  C   UNL     1       5.043   4.215  16.169  0.00  0.00    +0.000 C 
ATOM     25  C   UNL     1       5.897   5.037  15.191  0.00  0.00    +0.000 C 
ENDBRANCH  16  18
ENDBRANCH  15  16
TORSDOF 2
ENDMDL
MODEL 3
REMARK VINA RESULT:      -7.2      0.970      1.618
REMARK  Name = 
REMARK  2 active torsions:
REMARK  status: ('A' for Active; 'I' for Inactive)
REMARK    1  A    between atoms: C_15  and  N_16
REMARK    2  A    between atoms: N_16  and  C_17
REMARK                            x       y       z     vdW  Elec       q    Type
REMARK                         _______ _______ _______ _____ _____    ______ ____
ROOT
ATOM      1  C   UNL     1       0.988   9.664  19.100  0.00  0.00    +0.000 A 
ATOM      2  C   UNL     1       1.296   9.254  17.805  0.00  0.00    +0.000 A 
ATOM      3  C   UNL     1       1.950   8.034  17.577  0.00  0.00    +0.000 A 
ATOM      4  C   UNL     1       2.314   7.214  18.649  0.00  0.00    +0.000 A 
ATOM      5  C   UNL     1       1.973   7.641  19.946  0.00  0.00    +0.000 A 
ATOM      6  C   UNL     1       1.332   8.855  20.182  0.00  0.00    +0.000 A 
ATOM      7  O   UNL     1       2.345   6.869  21.016  0.00  0.00    +0.000 OA
ATOM      8  C   UNL     1       1.464   5.746  21.177  0.00  0.00    +0.000 C 
ATOM      9  C   UNL     1       1.538   4.601  20.172  0.00  0.00    +0.000 A 
ATOM     10  N   UNL     1       0.919   3.459  20.591  0.00  0.00    +0.000 NA
ATOM     11  C   UNL     1       0.727   2.473  19.691  0.00  0.00    +0.000 A 
ATOM     12  C   UNL     1       1.020   2.603  18.350  0.00  0.00    +0.000 A 
ATOM     13  C   UNL     1       1.648   3.767  17.934  0.00  0.00    +0.000 A 
ATOM     14  C   UNL     1       2.036   4.740  18.868  0.00  0.00    +0.000 A 
ATOM     15  C   UNL     1       3.009   5.862  18.520  0.00  0.00    +0.000 C 
ENDROOT
BRANCH  15  16
ATOM     16  N   UNL     1       3.775   5.691  17.248  0.00  0.00    +0.000 NA
ATOM     17  H   UNL     1       3.153   5.993  16.497  0.00  0.00    +0.000 HD
BRANCH  16  18
ATOM     18  C   UNL     1       5.021   6.506  17.160  0.00  0.00    +0.000 C 
ATOM     19  C   UNL     1       5.746   6.525  15.776  0.00  0.00    +0.000 C 
ATOM     20  N   UNL     1       7.101   5.925  15.839  0.00  0.00    +0.000 NA
ATOM     21  C   UNL     1       7.958   6.755  16.713  0.00  0.00    +0.000 C 
ATOM     22  C   UNL     1       7.289   7.008  18.075  0.00  0.00    +0.000 C 
ATOM     23  C   UNL     1       6.069   6.067  18.224  0.00  0.00    +0.000 C 
ATOM     24  C   UNL     1       6.577   4.649  17.919  0.00  0.00    +0.000 C 
ATOM     25  C   UNL     1       6.981   4.574  16.438  0.00  0.00    +0.000 C 
ENDBRANCH  16  18
ENDBRANCH  15  16
TORSDOF 2
ENDMDL
MODEL 4
REMARK VINA RESULT:      -6.9      4.631      8.675
REMARK  Name = 
REMARK  2 active torsions:
REMARK  status: ('A' for Active; 'I' for Inactive)
REMARK    1  A    between atoms: C_15  and  N_16
REMARK    2  A    between atoms: N_16  and  C_17
REMARK                            x       y       z     vdW  Elec       q    Type
REMARK                         _______ _______ _______ _____ _____    ______ ____
ROOT
ATOM      1  C   UNL     1       2.220   7.491  19.580  0.00  0.00    +0.000 A 
ATOM      2  C   UNL     1       2.238   8.118  18.336  0.00  0.00    +0.000 A 
ATOM      3  C   UNL     1       1.443   9.249  18.094  0.00  0.00    +0.000 A 
ATOM      4  C   UNL     1       0.611   9.758  19.096  0.00  0.00    +0.000 A 
ATOM      5  C   UNL     1       0.627   9.118  20.350  0.00  0.00    +0.000 A 
ATOM      6  C   UNL     1       1.406   7.989  20.596  0.00  0.00    +0.000 A 
ATOM      7  O   UNL     1      -0.202   9.579  21.339  0.00  0.00    +0.000 OA
ATOM      8  C   UNL     1       0.335  10.759  21.958  0.00  0.00    +0.000 C 
ATOM      9  C   UNL     1       0.329  12.069  21.176  0.00  0.00    +0.000 A 
ATOM     10  N   UNL     1       0.540  13.173  21.950  0.00  0.00    +0.000 NA
ATOM     11  C   UNL     1       0.784  14.346  21.330  0.00  0.00    +0.000 A 
ATOM     12  C   UNL     1       0.942  14.464  19.966  0.00  0.00    +0.000 A 
ATOM     13  C   UNL     1       0.726  13.337  19.188  0.00  0.00    +0.000 A 
ATOM     14  C   UNL     1       0.287  12.141  19.776  0.00  0.00    +0.000 A 
ATOM     15  C   UNL     1      -0.279  10.988  18.952  0.00  0.00    +0.000 C 
ENDROOT
BRANCH  15  16
ATOM     16  N   UNL     1      -0.645  11.312  17.540  0.00  0.00    +0.000 NA
ATOM     17  H   UNL     1      -0.489  10.459  17.002  0.00  0.00    +0.000 HD
BRANCH  16  18
ATOM     18  C   UNL     1      -2.067  11.718  17.345  0.00  0.00    +0.000 C 
ATOM     19  C   UNL     1      -3.020  11.532  18.569  0.00  0.00    +0.000 C 
ATOM     20  N   UNL     1      -4.102  10.554  18.301  0.00  0.00    +0.000 NA
ATOM     21  C   UNL     1      -4.977  11.080  17.231  0.00  0.00    +0.000 C 
ATOM     22  C   UNL     1      -4.160  11.508  16.000  0.00  0.00    +0.000 C 
ATOM     23  C   UNL     1      -2.714  10.974  16.140  0.00  0.00    +0.000 C 
ATOM     24  C   UNL     1      -2.835   9.472  16.443  0.00  0.00    +0.000 C 
ATOM     25  C   UNL     1      -3.479   9.294  17.827  0.00  0.00    +0.000 C 
ENDBRANCH  16  18
ENDBRANCH  15  16
TORSDOF 2
ENDMDL
MODEL 5
REMARK VINA RESULT:      -6.9      6.536      9.221
REMARK  Name = 
REMARK  2 active torsions:
REMARK  status: ('A' for Active; 'I' for Inactive)
REMARK    1  A    between atoms: C_15  and  N_16
REMARK    2  A    between atoms: N_16  and  C_17
REMARK                            x       y       z     vdW  Elec       q    Type
REMARK                         _______ _______ _______ _____ _____    ______ ____
ROOT
ATOM      1  C   UNL     1      -0.216   9.225  22.851  0.00  0.00    +0.000 A 
ATOM      2  C   UNL     1       0.116   8.805  21.565  0.00  0.00    +0.000 A 
ATOM      3  C   UNL     1       0.020   9.687  20.478  0.00  0.00    +0.000 A 
ATOM      4  C   UNL     1      -0.421  11.000  20.667  0.00  0.00    +0.000 A 
ATOM      5  C   UNL     1      -0.731  11.405  21.979  0.00  0.00    +0.000 A 
ATOM      6  C   UNL     1      -0.647  10.534  23.063  0.00  0.00    +0.000 A 
ATOM      7  O   UNL     1      -1.194  12.679  22.187  0.00  0.00    +0.000 OA
ATOM      8  C   UNL     1      -0.119  13.631  22.169  0.00  0.00    +0.000 C 
ATOM      9  C   UNL     1       0.549  13.963  20.838  0.00  0.00    +0.000 A 
ATOM     10  N   UNL     1       1.307  15.097  20.870  0.00  0.00    +0.000 NA
ATOM     11  C   UNL     1       2.119  15.349  19.823  0.00  0.00    +0.000 A 
ATOM     12  C   UNL     1       2.306  14.467  18.780  0.00  0.00    +0.000 A 
ATOM     13  C   UNL     1       1.532  13.316  18.756  0.00  0.00    +0.000 A 
ATOM     14  C   UNL     1       0.541  13.106  19.727  0.00  0.00    +0.000 A 
ATOM     15  C   UNL     1      -0.546  12.048  19.566  0.00  0.00    +0.000 C 
ENDROOT
BRANCH  15  16
ATOM     16  N   UNL     1      -0.702  11.475  18.195  0.00  0.00    +0.000 NA
ATOM     17  H   UNL     1      -0.667  10.460  18.305  0.00  0.00    +0.000 HD
BRANCH  16  18
ATOM     18  C   UNL     1      -1.988  11.815  17.521  0.00  0.00    +0.000 C 
ATOM     19  C   UNL     1      -3.268  11.805  18.416  0.00  0.00    +0.000 C 
ATOM     20  N   UNL     1      -4.247  10.774  17.993  0.00  0.00    +0.000 NA
ATOM     21  C   UNL     1      -4.747  11.107  16.641  0.00  0.00    +0.000 C 
ATOM     22  C   UNL     1      -3.587  11.352  15.661  0.00  0.00    +0.000 C 
ATOM     23  C   UNL     1      -2.265  10.877  16.310  0.00  0.00    +0.000 C 
ATOM     24  C   UNL     1      -2.513   9.439  16.794  0.00  0.00    +0.000 C 
ATOM     25  C   UNL     1      -3.546   9.469  17.931  0.00  0.00    +0.000 C 
ENDBRANCH  16  18
ENDBRANCH  15  16
TORSDOF 2
ENDMDL
MODEL 6
REMARK VINA RESULT:      -6.7      1.308      1.729
REMARK  Name = 
REMARK  2 active torsions:
REMARK  status: ('A' for Active; 'I' for Inactive)
REMARK    1  A    between atoms: C_15  and  N_16
REMARK    2  A    between atoms: N_16  and  C_17
REMARK                            x       y       z     vdW  Elec       q    Type
REMARK                         _______ _______ _______ _____ _____    ______ ____
ROOT
ATOM      1  C   UNL     1       1.441   9.330  18.720  0.00  0.00    +0.000 A 
ATOM      2  C   UNL     1       2.381   8.941  17.769  0.00  0.00    +0.000 A 
ATOM      3  C   UNL     1       3.083   7.734  17.911  0.00  0.00    +0.000 A 
ATOM      4  C   UNL     1       2.857   6.908  19.016  0.00  0.00    +0.000 A 
ATOM      5  C   UNL     1       1.887   7.315  19.951  0.00  0.00    +0.000 A 
ATOM      6  C   UNL     1       1.192   8.516  19.824  0.00  0.00    +0.000 A 
ATOM      7  O   UNL     1       1.668   6.537  21.059  0.00  0.00    +0.000 OA
ATOM      8  C   UNL     1       0.852   5.399  20.741  0.00  0.00    +0.000 C 
ATOM      9  C   UNL     1       1.458   4.266  19.917  0.00  0.00    +0.000 A 
ATOM     10  N   UNL     1       0.734   3.109  19.955  0.00  0.00    +0.000 NA
ATOM     11  C   UNL     1       1.053   2.131  19.085  0.00  0.00    +0.000 A 
ATOM     12  C   UNL     1       1.994   2.280  18.088  0.00  0.00    +0.000 A 
ATOM     13  C   UNL     1       2.724   3.459  18.056  0.00  0.00    +0.000 A 
ATOM     14  C   UNL     1       2.554   4.427  19.057  0.00  0.00    +0.000 A 
ATOM     15  C   UNL     1       3.545   5.569  19.263  0.00  0.00    +0.000 C 
ENDROOT
BRANCH  15  16
ATOM     16  N   UNL     1       4.861   5.425  18.570  0.00  0.00    +0.000 NA
ATOM     17  H   UNL     1       5.314   4.609  18.984  0.00  0.00    +0.000 HD
BRANCH  16  18
ATOM     18  C   UNL     1       4.766   5.192  17.100  0.00  0.00    +0.000 C 
ATOM     19  C   UNL     1       5.182   3.774  16.589  0.00  0.00    +0.000 C 
ATOM     20  N   UNL     1       6.363   3.819  15.695  0.00  0.00    +0.000 NA
ATOM     21  C   UNL     1       6.012   4.563  14.465  0.00  0.00    +0.000 C 
ATOM     22  C   UNL     1       5.389   5.930  14.798  0.00  0.00    +0.000 C 
ATOM     23  C   UNL     1       5.603   6.233  16.300  0.00  0.00    +0.000 C 
ATOM     24  C   UNL     1       7.102   6.035  16.573  0.00  0.00    +0.000 C 
ATOM     25  C   UNL     1       7.447   4.548  16.396  0.00  0.00    +0.000 C 
ENDBRANCH  16  18
ENDBRANCH  15  16
TORSDOF 2
ENDMDL
MODEL 7
REMARK VINA RESULT:      -6.7      6.307      9.142
REMARK  Name = 
REMARK  2 active torsions:
REMARK  status: ('A' for Active; 'I' for Inactive)
REMARK    1  A    between atoms: C_15  and  N_16
REMARK    2  A    between atoms: N_16  and  C_17
REMARK                            x       y       z     vdW  Elec       q    Type
REMARK                         _______ _______ _______ _____ _____    ______ ____
ROOT
ATOM      1  C   UNL     1       0.334   9.379  22.753  0.00  0.00    +0.000 A 
ATOM      2  C   UNL     1      -0.695  10.225  23.162  0.00  0.00    +0.000 A 
ATOM      3  C   UNL     1      -1.237  11.169  22.277  0.00  0.00    +0.000 A 
ATOM      4  C   UNL     1      -0.746  11.284  20.973  0.00  0.00    +0.000 A 
ATOM      5  C   UNL     1       0.279  10.403  20.579  0.00  0.00    +0.000 A 
ATOM      6  C   UNL     1       0.830   9.469  21.453  0.00  0.00    +0.000 A 
ATOM      7  O   UNL     1       0.799  10.515  19.316  0.00  0.00    +0.000 OA
ATOM      8  C   UNL     1      -0.067   9.908  18.343  0.00  0.00    +0.000 C 
ATOM      9  C   UNL     1      -1.381  10.600  17.994  0.00  0.00    +0.000 A 
ATOM     10  N   UNL     1      -1.958  10.139  16.846  0.00  0.00    +0.000 NA
ATOM     11  C   UNL     1      -3.224  10.516  16.575  0.00  0.00    +0.000 A 
ATOM     12  C   UNL     1      -4.001  11.246  17.449  0.00  0.00    +0.000 A 
ATOM     13  C   UNL     1      -3.407  11.709  18.613  0.00  0.00    +0.000 A 
ATOM     14  C   UNL     1      -2.039  11.499  18.846  0.00  0.00    +0.000 A 
ATOM     15  C   UNL     1      -1.270  12.258  19.923  0.00  0.00    +0.000 C 
ENDROOT
BRANCH  15  16
ATOM     16  N   UNL     1      -1.957  13.456  20.494  0.00  0.00    +0.000 NA
ATOM     17  H   UNL     1      -1.980  13.317  21.505  0.00  0.00    +0.000 HD
BRANCH  16  18
ATOM     18  C   UNL     1      -1.266  14.751  20.230  0.00  0.00    +0.000 C 
ATOM     19  C   UNL     1       0.080  14.677  19.441  0.00  0.00    +0.000 C 
ATOM     20  N   UNL     1       1.234  15.146  20.245  0.00  0.00    +0.000 NA
ATOM     21  C   UNL     1       1.064  16.585  20.543  0.00  0.00    +0.000 C 
ATOM     22  C   UNL     1      -0.319  16.869  21.153  0.00  0.00    +0.000 C 
ATOM     23  C   UNL     1      -0.985  15.529  21.549  0.00  0.00    +0.000 C 
ATOM     24  C   UNL     1       0.043  14.773  22.406  0.00  0.00    +0.000 C 
ATOM     25  C   UNL     1       1.243  14.395  21.524  0.00  0.00    +0.000 C 
ENDBRANCH  16  18
ENDBRANCH  15  16
TORSDOF 2
ENDMDL
MODEL 8
REMARK VINA RESULT:      -6.6      1.778      5.961
REMARK  Name = 
REMARK  2 active torsions:
REMARK  status: ('A' for Active; 'I' for Inactive)
REMARK    1  A    between atoms: C_15  and  N_16
REMARK    2  A    between atoms: N_16  and  C_17
REMARK                            x       y       z     vdW  Elec       q    Type
REMARK                         _______ _______ _______ _____ _____    ______ ____
ROOT
ATOM      1  C   UNL     1       1.427   2.105  19.328  0.00  0.00    +0.000 A 
ATOM      2  C   UNL     1       0.749   2.956  18.460  0.00  0.00    +0.000 A 
ATOM      3  C   UNL     1       1.226   4.252  18.211  0.00  0.00    +0.000 A 
ATOM      4  C   UNL     1       2.387   4.713  18.841  0.00  0.00    +0.000 A 
ATOM      5  C   UNL     1       3.065   3.825  19.697  0.00  0.00    +0.000 A 
ATOM      6  C   UNL     1       2.593   2.541  19.957  0.00  0.00    +0.000 A 
ATOM      7  O   UNL     1       4.188   4.262  20.349  0.00  0.00    +0.000 OA
ATOM      8  C   UNL     1       5.329   4.259  19.477  0.00  0.00    +0.000 C 
ATOM      9  C   UNL     1       5.416   5.308  18.373  0.00  0.00    +0.000 A 
ATOM     10  N   UNL     1       6.662   5.434  17.830  0.00  0.00    +0.000 NA
ATOM     11  C   UNL     1       6.791   6.159  16.700  0.00  0.00    +0.000 A 
ATOM     12  C   UNL     1       5.721   6.682  16.007  0.00  0.00    +0.000 A 
ATOM     13  C   UNL     1       4.459   6.548  16.567  0.00  0.00    +0.000 A 
ATOM     14  C   UNL     1       4.300   5.965  17.833  0.00  0.00    +0.000 A 
ATOM     15  C   UNL     1       3.007   6.091  18.632  0.00  0.00    +0.000 C 
ENDROOT
BRANCH  15  16
ATOM     16  N   UNL     1       2.041   7.126  18.154  0.00  0.00    +0.000 NA
ATOM     17  H   UNL     1       1.111   6.782  18.396  0.00  0.00    +0.000 HD
BRANCH  16  18
ATOM     18  C   UNL     1       2.207   8.468  18.783  0.00  0.00    +0.000 C 
ATOM     19  C   UNL     1       1.521   8.677  20.171  0.00  0.00    +0.000 C 
ATOM     20  N   UNL     1       0.464   9.716  20.129  0.00  0.00    +0.000 NA
ATOM     21  C   UNL     1       1.083  11.025  19.826  0.00  0.00    +0.000 C 
ATOM     22  C   UNL     1       1.974  10.945  18.575  0.00  0.00    +0.000 C 
ATOM     23  C   UNL     1       1.707   9.605  17.846  0.00  0.00    +0.000 C 
ATOM     24  C   UNL     1       0.185   9.512  17.658  0.00  0.00    +0.000 C 
ATOM     25  C   UNL     1      -0.478   9.373  19.037  0.00  0.00    +0.000 C 
ENDBRANCH  16  18
ENDBRANCH  15  16
TORSDOF 2
ENDMDL
MODEL 9
REMARK VINA RESULT:      -6.6      6.854     10.616
REMARK  Name = 
REMARK  2 active torsions:
REMARK  status: ('A' for Active; 'I' for Inactive)
REMARK    1  A    between atoms: C_15  and  N_16
REMARK    2  A    between atoms: N_16  and  C_17
REMARK                            x       y       z     vdW  Elec       q    Type
REMARK                         _______ _______ _______ _____ _____    ______ ____
ROOT
ATOM      1  C   UNL     1      -2.767   9.829  16.130  0.00  0.00    +0.000 A 
ATOM      2  C   UNL     1      -3.648  10.883  16.362  0.00  0.00    +0.000 A 
ATOM      3  C   UNL     1      -3.478  11.725  17.471  0.00  0.00    +0.000 A 
ATOM      4  C   UNL     1      -2.427  11.512  18.369  0.00  0.00    +0.000 A 
ATOM      5  C   UNL     1      -1.540  10.453  18.100  0.00  0.00    +0.000 A 
ATOM      6  C   UNL     1      -1.706   9.606  17.007  0.00  0.00    +0.000 A 
ATOM      7  O   UNL     1      -0.519  10.205  18.981  0.00  0.00    +0.000 OA
ATOM      8  C   UNL     1       0.563  11.131  18.795  0.00  0.00    +0.000 C 
ATOM      9  C   UNL     1       0.376  12.580  19.234  0.00  0.00    +0.000 A 
ATOM     10  N   UNL     1       1.543  13.282  19.328  0.00  0.00    +0.000 NA
ATOM     11  C   UNL     1       1.469  14.620  19.479  0.00  0.00    +0.000 A 
ATOM     12  C   UNL     1       0.286  15.324  19.430  0.00  0.00    +0.000 A 
ATOM     13  C   UNL     1      -0.895  14.603  19.333  0.00  0.00    +0.000 A 
ATOM     14  C   UNL     1      -0.875  13.200  19.362  0.00  0.00    +0.000 A 
ATOM     15  C   UNL     1      -2.136  12.373  19.594  0.00  0.00    +0.000 C 
ENDROOT
BRANCH  15  16
ATOM     16  N   UNL     1      -3.323  13.120  20.109  0.00  0.00    +0.000 NA
ATOM     17  H   UNL     1      -4.063  12.993  19.417  0.00  0.00    +0.000 HD
BRANCH  16  18
ATOM     18  C   UNL     1      -3.841  12.636  21.420  0.00  0.00    +0.000 C 
ATOM     19  C   UNL     1      -5.193  13.250  21.907  0.00  0.00    +0.000 C 
ATOM     20  N   UNL     1      -5.043  14.026  23.162  0.00  0.00    +0.000 NA
ATOM     21  C   UNL     1      -4.644  13.110  24.253  0.00  0.00    +0.000 C 
ATOM     22  C   UNL     1      -3.422  12.266  23.853  0.00  0.00    +0.000 C 
ATOM     23  C   UNL     1      -2.803  12.848  22.560  0.00  0.00    +0.000 C 
ATOM     24  C   UNL     1      -2.593  14.348  22.819  0.00  0.00    +0.000 C 
ATOM     25  C   UNL     1      -3.965  15.024  22.963  0.00  0.00    +0.000 C 
ENDBRANCH  16  18
ENDBRANCH  15  16
TORSDOF 2
ENDMDL
