MODEL 1
REMARK VINA RESULT:      -6.4      0.000      0.000
REMARK  Name = 
REMARK  9 active torsions:
REMARK  status: ('A' for Active; 'I' for Inactive)
REMARK    1  A    between atoms: C_1  and  O_2
REMARK    2  A    between atoms: O_2  and  C_3
REMARK    3  A    between atoms: C_6  and  C_7
REMARK    4  A    between atoms: C_9  and  N_10
REMARK    5  A    between atoms: C_11  and  C_13
REMARK    6  A    between atoms: C_13  and  S_14
REMARK    7  A    between atoms: S_14  and  C_15
REMARK    8  A    between atoms: C_17  and  S_18
REMARK    9  A    between atoms: S_18  and  C_19
REMARK                            x       y       z     vdW  Elec       q    Type
REMARK                         _______ _______ _______ _____ _____    ______ ____
ROOT
ATOM      1  N   UNL     1       2.549   6.264  20.542  0.00  0.00    +0.000 N 
ATOM      2  C   UNL     1       1.844   5.078  20.717  0.00  0.00    +0.000 C 
ATOM      3  O   UNL     1       0.768   4.801  20.186  0.00  0.00    +0.000 OA
ATOM      4  H   UNL     1       3.524   6.307  20.824  0.00  0.00    +0.000 HD
ENDROOT
BRANCH   1  11
ATOM      5  C   UNL     1       2.398   7.629  18.507  0.00  0.00    +0.000 A 
ATOM      6  C   UNL     1       1.863   8.742  17.838  0.00  0.00    +0.000 A 
ATOM      7  C   UNL     1       1.053   9.662  18.506  0.00  0.00    +0.000 A 
ATOM      8  C   UNL     1       0.767   9.489  19.855  0.00  0.00    +0.000 A 
ATOM      9  C   UNL     1      -0.083  10.461  20.613  0.00  0.00    +0.000 C 
ATOM     10  C   UNL     1       1.282   8.370  20.520  0.00  0.00    +0.000 A 
ATOM     11  C   UNL     1       2.069   7.417  19.864  0.00  0.00    +0.000 A 
BRANCH   5  13
ATOM     12  C   UNL     1       4.301   7.255  17.137  0.00  0.00    +0.000 C 
ATOM     13  O   UNL     1       3.223   6.707  17.899  0.00  0.00    +0.000 OA
ENDBRANCH   5  13
ENDBRANCH   1  11
BRANCH   2  14
ATOM     14  C   UNL     1       2.539   4.017  21.544  0.00  0.00    +0.000 C 
BRANCH  14  15
ATOM     15  S   UNL     1       2.936   2.534  20.608  0.00  0.00    +0.000 S 
BRANCH  15  16
ATOM     16  C   UNL     1       3.922   3.099  19.280  0.00  0.00    +0.000 A 
ATOM     17  N   UNL     1       5.134   3.604  19.359  0.00  0.00    +0.000 NA
ATOM     18  C   UNL     1       5.533   3.963  18.072  0.00  0.00    +0.000 A 
ATOM     19  N   UNL     1       4.715   3.735  17.045  0.00  0.00    +0.000 NA
ATOM     20  S   UNL     1       3.335   3.049  17.666  0.00  0.00    +0.000 S 
BRANCH  18  21
ATOM     21  S   UNL     1       7.065   4.727  17.689  0.00  0.00    +0.000 S 
ATOM     22  C   UNL     1       7.037   4.774  15.897  0.00  0.00    +0.000 C 
ENDBRANCH  18  21
ENDBRANCH  15  16
ENDBRANCH  14  15
ENDBRANCH   2  14
TORSDOF 6
ENDMDL
MODEL 2
REMARK VINA RESULT:      -6.1      6.160      8.308
REMARK  Name = 
REMARK  9 active torsions:
REMARK  status: ('A' for Active; 'I' for Inactive)
REMARK    1  A    between atoms: C_1  and  O_2
REMARK    2  A    between atoms: O_2  and  C_3
REMARK    3  A    between atoms: C_6  and  C_7
REMARK    4  A    between atoms: C_9  and  N_10
REMARK    5  A    between atoms: C_11  and  C_13
REMARK    6  A    between atoms: C_13  and  S_14
REMARK    7  A    between atoms: S_14  and  C_15
REMARK    8  A    between atoms: C_17  and  S_18
REMARK    9  A    between atoms: S_18  and  C_19
REMARK                            x       y       z     vdW  Elec       q    Type
REMARK                         _______ _______ _______ _____ _____    ______ ____
ROOT
ATOM      1  N   UNL     1       6.620   7.626  16.831  0.00  0.00    +0.000 N 
ATOM      2  C   UNL     1       7.628   7.949  17.733  0.00  0.00    +0.000 C 
ATOM      3  O   UNL     1       8.129   7.177  18.552  0.00  0.00    +0.000 OA
ATOM      4  H   UNL     1       6.440   8.244  16.045  0.00  0.00    +0.000 HD
ENDROOT
BRANCH   1  11
ATOM      5  C   UNL     1       6.305   5.334  16.009  0.00  0.00    +0.000 A 
ATOM      6  C   UNL     1       5.597   4.121  16.058  0.00  0.00    +0.000 A 
ATOM      7  C   UNL     1       4.460   3.984  16.856  0.00  0.00    +0.000 A 
ATOM      8  C   UNL     1       4.007   5.056  17.615  0.00  0.00    +0.000 A 
ATOM      9  C   UNL     1       2.781   4.956  18.470  0.00  0.00    +0.000 C 
ATOM     10  C   UNL     1       4.720   6.259  17.583  0.00  0.00    +0.000 A 
ATOM     11  C   UNL     1       5.882   6.411  16.818  0.00  0.00    +0.000 A 
BRANCH   5  13
ATOM     12  C   UNL     1       7.348   4.962  13.909  0.00  0.00    +0.000 C 
ATOM     13  O   UNL     1       7.418   5.527  15.220  0.00  0.00    +0.000 OA
ENDBRANCH   5  13
ENDBRANCH   1  11
BRANCH   2  14
ATOM     14  C   UNL     1       8.215   9.337  17.592  0.00  0.00    +0.000 C 
BRANCH  14  15
ATOM     15  S   UNL     1       9.096   9.889  19.059  0.00  0.00    +0.000 S 
BRANCH  15  16
ATOM     16  C   UNL     1       9.690  11.480  18.646  0.00  0.00    +0.000 A 
ATOM     17  N   UNL     1       9.017  12.609  18.694  0.00  0.00    +0.000 NA
ATOM     18  C   UNL     1       9.855  13.627  18.241  0.00  0.00    +0.000 A 
ATOM     19  N   UNL     1      11.107  13.337  17.887  0.00  0.00    +0.000 NA
ATOM     20  S   UNL     1      11.302  11.700  18.092  0.00  0.00    +0.000 S 
BRANCH  18  21
ATOM     21  S   UNL     1       9.373  15.306  18.081  0.00  0.00    +0.000 S 
ATOM     22  C   UNL     1      10.683  15.990  17.065  0.00  0.00    +0.000 C 
ENDBRANCH  18  21
ENDBRANCH  15  16
ENDBRANCH  14  15
ENDBRANCH   2  14
TORSDOF 6
ENDMDL
MODEL 3
REMARK VINA RESULT:      -6.0      6.270      8.253
REMARK  Name = 
REMARK  9 active torsions:
REMARK  status: ('A' for Active; 'I' for Inactive)
REMARK    1  A    between atoms: C_1  and  O_2
REMARK    2  A    between atoms: O_2  and  C_3
REMARK    3  A    between atoms: C_6  and  C_7
REMARK    4  A    between atoms: C_9  and  N_10
REMARK    5  A    between atoms: C_11  and  C_13
REMARK    6  A    between atoms: C_13  and  S_14
REMARK    7  A    between atoms: S_14  and  C_15
REMARK    8  A    between atoms: C_17  and  S_18
REMARK    9  A    between atoms: S_18  and  C_19
REMARK                            x       y       z     vdW  Elec       q    Type
REMARK                         _______ _______ _______ _____ _____    ______ ____
ROOT
ATOM      1  N   UNL     1       6.611   7.661  16.878  0.00  0.00    +0.000 N 
ATOM      2  C   UNL     1       7.645   7.934  17.767  0.00  0.00    +0.000 C 
ATOM      3  O   UNL     1       8.127   7.134  18.570  0.00  0.00    +0.000 OA
ATOM      4  H   UNL     1       6.444   8.295  16.102  0.00  0.00    +0.000 HD
ENDROOT
BRANCH   1  11
ATOM      5  C   UNL     1       6.219   5.375  16.071  0.00  0.00    +0.000 A 
ATOM      6  C   UNL     1       5.463   4.192  16.119  0.00  0.00    +0.000 A 
ATOM      7  C   UNL     1       4.309   4.107  16.898  0.00  0.00    +0.000 A 
ATOM      8  C   UNL     1       3.886   5.203  17.640  0.00  0.00    +0.000 A 
ATOM      9  C   UNL     1       2.644   5.160  18.475  0.00  0.00    +0.000 C 
ATOM     10  C   UNL     1       4.647   6.377  17.610  0.00  0.00    +0.000 A 
ATOM     11  C   UNL     1       5.826   6.476  16.863  0.00  0.00    +0.000 A 
BRANCH   5  13
ATOM     12  C   UNL     1       7.272   4.964  13.983  0.00  0.00    +0.000 C 
ATOM     13  O   UNL     1       7.352   5.517  15.298  0.00  0.00    +0.000 OA
ENDBRANCH   5  13
ENDBRANCH   1  11
BRANCH   2  14
ATOM     14  C   UNL     1       8.284   9.299  17.632  0.00  0.00    +0.000 C 
BRANCH  14  15
ATOM     15  S   UNL     1       9.115   9.847  19.129  0.00  0.00    +0.000 S 
BRANCH  15  16
ATOM     16  C   UNL     1       9.722  11.439  18.742  0.00  0.00    +0.000 A 
ATOM     17  N   UNL     1      10.867  11.961  19.127  0.00  0.00    +0.000 NA
ATOM     18  C   UNL     1      10.933  13.262  18.631  0.00  0.00    +0.000 A 
ATOM     19  N   UNL     1       9.932  13.731  17.885  0.00  0.00    +0.000 NA
ATOM     20  S   UNL     1       8.798  12.521  17.778  0.00  0.00    +0.000 S 
BRANCH  18  21
ATOM     21  S   UNL     1      12.260  14.369  18.932  0.00  0.00    +0.000 S 
ATOM     22  C   UNL     1      11.831  15.777  17.908  0.00  0.00    +0.000 C 
ENDBRANCH  18  21
ENDBRANCH  15  16
ENDBRANCH  14  15
ENDBRANCH   2  14
TORSDOF 6
ENDMDL
MODEL 4
REMARK VINA RESULT:      -5.9      2.796      6.150
REMARK  Name = 
REMARK  9 active torsions:
REMARK  status: ('A' for Active; 'I' for Inactive)
REMARK    1  A    between atoms: C_1  and  O_2
REMARK    2  A    between atoms: O_2  and  C_3
REMARK    3  A    between atoms: C_6  and  C_7
REMARK    4  A    between atoms: C_9  and  N_10
REMARK    5  A    between atoms: C_11  and  C_13
REMARK    6  A    between atoms: C_13  and  S_14
REMARK    7  A    between atoms: S_14  and  C_15
REMARK    8  A    between atoms: C_17  and  S_18
REMARK    9  A    between atoms: S_18  and  C_19
REMARK                            x       y       z     vdW  Elec       q    Type
REMARK                         _______ _______ _______ _____ _____    ______ ____
ROOT
ATOM      1  N   UNL     1       3.799   4.671  18.122  0.00  0.00    +0.000 N 
ATOM      2  C   UNL     1       3.055   3.596  18.596  0.00  0.00    +0.000 C 
ATOM      3  O   UNL     1       3.366   2.409  18.489  0.00  0.00    +0.000 OA
ATOM      4  H   UNL     1       3.590   5.606  18.461  0.00  0.00    +0.000 HD
ENDROOT
BRANCH   1  11
ATOM      5  C   UNL     1       6.237   4.722  17.842  0.00  0.00    +0.000 A 
ATOM      6  C   UNL     1       7.360   4.564  17.012  0.00  0.00    +0.000 A 
ATOM      7  C   UNL     1       7.216   4.315  15.646  0.00  0.00    +0.000 A 
ATOM      8  C   UNL     1       5.948   4.224  15.084  0.00  0.00    +0.000 A 
ATOM      9  C   UNL     1       5.749   3.976  13.621  0.00  0.00    +0.000 C 
ATOM     10  C   UNL     1       4.828   4.361  15.911  0.00  0.00    +0.000 A 
ATOM     11  C   UNL     1       4.946   4.578  17.289  0.00  0.00    +0.000 A 
BRANCH   5  13
ATOM     12  C   UNL     1       7.520   5.662  19.605  0.00  0.00    +0.000 C 
ATOM     13  O   UNL     1       6.327   4.993  19.190  0.00  0.00    +0.000 OA
ENDBRANCH   5  13
ENDBRANCH   1  11
BRANCH   2  14
ATOM     14  C   UNL     1       1.827   3.953  19.406  0.00  0.00    +0.000 C 
BRANCH  14  15
ATOM     15  S   UNL     1       2.194   4.967  20.845  0.00  0.00    +0.000 S 
BRANCH  15  16
ATOM     16  C   UNL     1       1.862   6.603  20.330  0.00  0.00    +0.000 A 
ATOM     17  N   UNL     1       2.185   7.146  19.176  0.00  0.00    +0.000 NA
ATOM     18  C   UNL     1       1.770   8.477  19.197  0.00  0.00    +0.000 A 
ATOM     19  N   UNL     1       1.140   8.950  20.273  0.00  0.00    +0.000 NA
ATOM     20  S   UNL     1       1.048   7.704  21.368  0.00  0.00    +0.000 S 
BRANCH  18  21
ATOM     21  S   UNL     1       2.033   9.617  17.890  0.00  0.00    +0.000 S 
ATOM     22  C   UNL     1       1.454  11.159  18.597  0.00  0.00    +0.000 C 
ENDBRANCH  18  21
ENDBRANCH  15  16
ENDBRANCH  14  15
ENDBRANCH   2  14
TORSDOF 6
ENDMDL
MODEL 5
REMARK VINA RESULT:      -5.9      0.997      1.109
REMARK  Name = 
REMARK  9 active torsions:
REMARK  status: ('A' for Active; 'I' for Inactive)
REMARK    1  A    between atoms: C_1  and  O_2
REMARK    2  A    between atoms: O_2  and  C_3
REMARK    3  A    between atoms: C_6  and  C_7
REMARK    4  A    between atoms: C_9  and  N_10
REMARK    5  A    between atoms: C_11  and  C_13
REMARK    6  A    between atoms: C_13  and  S_14
REMARK    7  A    between atoms: S_14  and  C_15
REMARK    8  A    between atoms: C_17  and  S_18
REMARK    9  A    between atoms: S_18  and  C_19
REMARK                            x       y       z     vdW  Elec       q    Type
REMARK                         _______ _______ _______ _____ _____    ______ ____
ROOT
ATOM      1  N   UNL     1       2.536   5.998  20.661  0.00  0.00    +0.000 N 
ATOM      2  C   UNL     1       1.889   4.768  20.597  0.00  0.00    +0.000 C 
ATOM      3  O   UNL     1       0.833   4.546  20.003  0.00  0.00    +0.000 OA
ATOM      4  H   UNL     1       3.505   6.033  20.963  0.00  0.00    +0.000 HD
ENDROOT
BRANCH   1  11
ATOM      5  C   UNL     1       2.279   7.679  18.891  0.00  0.00    +0.000 A 
ATOM      6  C   UNL     1       1.695   8.874  18.437  0.00  0.00    +0.000 A 
ATOM      7  C   UNL     1       0.891   9.646  19.277  0.00  0.00    +0.000 A 
ATOM      8  C   UNL     1       0.660   9.242  20.586  0.00  0.00    +0.000 A 
ATOM      9  C   UNL     1      -0.182  10.049  21.526  0.00  0.00    +0.000 C 
ATOM     10  C   UNL     1       1.224   8.042  21.036  0.00  0.00    +0.000 A 
ATOM     11  C   UNL     1       2.006   7.234  20.202  0.00  0.00    +0.000 A 
BRANCH   5  13
ATOM     12  C   UNL     1       3.791   7.582  17.063  0.00  0.00    +0.000 C 
ATOM     13  O   UNL     1       3.100   6.895  18.109  0.00  0.00    +0.000 OA
ENDBRANCH   5  13
ENDBRANCH   1  11
BRANCH   2  14
ATOM     14  C   UNL     1       2.628   3.604  21.222  0.00  0.00    +0.000 C 
BRANCH  14  15
ATOM     15  S   UNL     1       3.256   2.430  20.014  0.00  0.00    +0.000 S 
BRANCH  15  16
ATOM     16  C   UNL     1       4.299   3.375  18.978  0.00  0.00    +0.000 A 
ATOM     17  N   UNL     1       5.251   4.199  19.360  0.00  0.00    +0.000 NA
ATOM     18  C   UNL     1       5.803   4.775  18.216  0.00  0.00    +0.000 A 
ATOM     19  N   UNL     1       5.346   4.417  17.016  0.00  0.00    +0.000 NA
ATOM     20  S   UNL     1       4.135   3.308  17.269  0.00  0.00    +0.000 S 
BRANCH  18  21
ATOM     21  S   UNL     1       7.077   5.981  18.233  0.00  0.00    +0.000 S 
ATOM     22  C   UNL     1       8.015   5.534  19.694  0.00  0.00    +0.000 C 
ENDBRANCH  18  21
ENDBRANCH  15  16
ENDBRANCH  14  15
ENDBRANCH   2  14
TORSDOF 6
ENDMDL
MODEL 6
REMARK VINA RESULT:      -5.8      2.508      5.739
REMARK  Name = 
REMARK  9 active torsions:
REMARK  status: ('A' for Active; 'I' for Inactive)
REMARK    1  A    between atoms: C_1  and  O_2
REMARK    2  A    between atoms: O_2  and  C_3
REMARK    3  A    between atoms: C_6  and  C_7
REMARK    4  A    between atoms: C_9  and  N_10
REMARK    5  A    between atoms: C_11  and  C_13
REMARK    6  A    between atoms: C_13  and  S_14
REMARK    7  A    between atoms: S_14  and  C_15
REMARK    8  A    between atoms: C_17  and  S_18
REMARK    9  A    between atoms: S_18  and  C_19
REMARK                            x       y       z     vdW  Elec       q    Type
REMARK                         _______ _______ _______ _____ _____    ______ ____
ROOT
ATOM      1  N   UNL     1       4.636   3.527  18.642  0.00  0.00    +0.000 N 
ATOM      2  C   UNL     1       3.766   2.445  18.575  0.00  0.00    +0.000 C 
ATOM      3  O   UNL     1       3.702   1.635  17.649  0.00  0.00    +0.000 OA
ATOM      4  H   UNL     1       4.782   3.992  19.534  0.00  0.00    +0.000 HD
ENDROOT
BRANCH   1  11
ATOM      5  C   UNL     1       6.703   4.611  17.878  0.00  0.00    +0.000 A 
ATOM      6  C   UNL     1       7.544   4.995  16.820  0.00  0.00    +0.000 A 
ATOM      7  C   UNL     1       7.162   4.804  15.492  0.00  0.00    +0.000 A 
ATOM      8  C   UNL     1       5.930   4.232  15.196  0.00  0.00    +0.000 A 
ATOM      9  C   UNL     1       5.474   4.026  13.784  0.00  0.00    +0.000 C 
ATOM     10  C   UNL     1       5.098   3.830  16.247  0.00  0.00    +0.000 A 
ATOM     11  C   UNL     1       5.474   3.980  17.587  0.00  0.00    +0.000 A 
BRANCH   5  13
ATOM     12  C   UNL     1       7.954   5.853  19.468  0.00  0.00    +0.000 C 
ATOM     13  O   UNL     1       7.024   4.800  19.205  0.00  0.00    +0.000 OA
ENDBRANCH   5  13
ENDBRANCH   1  11
BRANCH   2  14
ATOM     14  C   UNL     1       2.920   2.205  19.807  0.00  0.00    +0.000 C 
BRANCH  14  15
ATOM     15  S   UNL     1       1.333   3.047  19.755  0.00  0.00    +0.000 S 
BRANCH  15  16
ATOM     16  C   UNL     1       1.734   4.736  19.555  0.00  0.00    +0.000 A 
ATOM     17  N   UNL     1       2.094   5.333  18.440  0.00  0.00    +0.000 NA
ATOM     18  C   UNL     1       2.362   6.669  18.736  0.00  0.00    +0.000 A 
ATOM     19  N   UNL     1       2.200   7.109  19.984  0.00  0.00    +0.000 NA
ATOM     20  S   UNL     1       1.702   5.811  20.895  0.00  0.00    +0.000 S 
BRANCH  18  21
ATOM     21  S   UNL     1       2.926   7.847  17.566  0.00  0.00    +0.000 S 
ATOM     22  C   UNL     1       1.913   9.279  17.938  0.00  0.00    +0.000 C 
ENDBRANCH  18  21
ENDBRANCH  15  16
ENDBRANCH  14  15
ENDBRANCH   2  14
TORSDOF 6
ENDMDL
MODEL 7
REMARK VINA RESULT:      -5.8      2.284      3.596
REMARK  Name = 
REMARK  9 active torsions:
REMARK  status: ('A' for Active; 'I' for Inactive)
REMARK    1  A    between atoms: C_1  and  O_2
REMARK    2  A    between atoms: O_2  and  C_3
REMARK    3  A    between atoms: C_6  and  C_7
REMARK    4  A    between atoms: C_9  and  N_10
REMARK    5  A    between atoms: C_11  and  C_13
REMARK    6  A    between atoms: C_13  and  S_14
REMARK    7  A    between atoms: S_14  and  C_15
REMARK    8  A    between atoms: C_17  and  S_18
REMARK    9  A    between atoms: S_18  and  C_19
REMARK                            x       y       z     vdW  Elec       q    Type
REMARK                         _______ _______ _______ _____ _____    ______ ____
ROOT
ATOM      1  N   UNL     1       3.120   5.504  18.319  0.00  0.00    +0.000 N 
ATOM      2  C   UNL     1       2.493   4.476  17.623  0.00  0.00    +0.000 C 
ATOM      3  O   UNL     1       1.301   4.443  17.316  0.00  0.00    +0.000 OA
ATOM      4  H   UNL     1       4.135   5.558  18.317  0.00  0.00    +0.000 HD
ENDROOT
BRANCH   1  11
ATOM      5  C   UNL     1       1.979   6.485  20.259  0.00  0.00    +0.000 A 
ATOM      6  C   UNL     1       1.388   7.601  20.874  0.00  0.00    +0.000 A 
ATOM      7  C   UNL     1       1.232   8.804  20.184  0.00  0.00    +0.000 A 
ATOM      8  C   UNL     1       1.659   8.912  18.866  0.00  0.00    +0.000 A 
ATOM      9  C   UNL     1       1.495  10.179  18.084  0.00  0.00    +0.000 C 
ATOM     10  C   UNL     1       2.266   7.808  18.256  0.00  0.00    +0.000 A 
ATOM     11  C   UNL     1       2.463   6.602  18.938  0.00  0.00    +0.000 A 
BRANCH   5  13
ATOM     12  C   UNL     1       1.065   4.337  20.697  0.00  0.00    +0.000 C 
ATOM     13  O   UNL     1       2.133   5.269  20.889  0.00  0.00    +0.000 OA
ENDBRANCH   5  13
ENDBRANCH   1  11
BRANCH   2  14
ATOM     14  C   UNL     1       3.402   3.376  17.118  0.00  0.00    +0.000 C 
BRANCH  14  15
ATOM     15  S   UNL     1       5.100   3.539  17.686  0.00  0.00    +0.000 S 
BRANCH  15  16
ATOM     16  C   UNL     1       5.962   4.204  16.319  0.00  0.00    +0.000 A 
ATOM     17  N   UNL     1       5.909   3.782  15.074  0.00  0.00    +0.000 NA
ATOM     18  C   UNL     1       6.781   4.565  14.318  0.00  0.00    +0.000 A 
ATOM     19  N   UNL     1       7.455   5.552  14.909  0.00  0.00    +0.000 NA
ATOM     20  S   UNL     1       7.029   5.537  16.515  0.00  0.00    +0.000 S 
BRANCH  18  21
ATOM     21  S   UNL     1       7.083   4.338  12.605  0.00  0.00    +0.000 S 
ATOM     22  C   UNL     1       5.848   3.120  12.152  0.00  0.00    +0.000 C 
ENDBRANCH  18  21
ENDBRANCH  15  16
ENDBRANCH  14  15
ENDBRANCH   2  14
TORSDOF 6
ENDMDL
MODEL 8
REMARK VINA RESULT:      -5.7      3.004      6.481
REMARK  Name = 
REMARK  9 active torsions:
REMARK  status: ('A' for Active; 'I' for Inactive)
REMARK    1  A    between atoms: C_1  and  O_2
REMARK    2  A    between atoms: O_2  and  C_3
REMARK    3  A    between atoms: C_6  and  C_7
REMARK    4  A    between atoms: C_9  and  N_10
REMARK    5  A    between atoms: C_11  and  C_13
REMARK    6  A    between atoms: C_13  and  S_14
REMARK    7  A    between atoms: S_14  and  C_15
REMARK    8  A    between atoms: C_17  and  S_18
REMARK    9  A    between atoms: S_18  and  C_19
REMARK                            x       y       z     vdW  Elec       q    Type
REMARK                         _______ _______ _______ _____ _____    ______ ____
ROOT
ATOM      1  N   UNL     1       3.868   4.707  18.163  0.00  0.00    +0.000 N 
ATOM      2  C   UNL     1       2.624   4.115  17.973  0.00  0.00    +0.000 C 
ATOM      3  O   UNL     1       2.352   3.286  17.103  0.00  0.00    +0.000 OA
ATOM      4  H   UNL     1       4.060   5.188  19.037  0.00  0.00    +0.000 HD
ENDROOT
BRANCH   1  11
ATOM      5  C   UNL     1       6.295   4.691  17.794  0.00  0.00    +0.000 A 
ATOM      6  C   UNL     1       7.382   4.508  16.922  0.00  0.00    +0.000 A 
ATOM      7  C   UNL     1       7.181   4.274  15.561  0.00  0.00    +0.000 A 
ATOM      8  C   UNL     1       5.891   4.224  15.045  0.00  0.00    +0.000 A 
ATOM      9  C   UNL     1       5.632   3.993  13.589  0.00  0.00    +0.000 C 
ATOM     10  C   UNL     1       4.806   4.386  15.914  0.00  0.00    +0.000 A 
ATOM     11  C   UNL     1       4.981   4.588  17.288  0.00  0.00    +0.000 A 
BRANCH   5  13
ATOM     12  C   UNL     1       7.596   5.713  19.497  0.00  0.00    +0.000 C 
ATOM     13  O   UNL     1       6.442   4.948  19.140  0.00  0.00    +0.000 OA
ENDBRANCH   5  13
ENDBRANCH   1  11
BRANCH   2  14
ATOM     14  C   UNL     1       1.572   4.453  19.007  0.00  0.00    +0.000 C 
BRANCH  14  15
ATOM     15  S   UNL     1       2.236   5.295  20.450  0.00  0.00    +0.000 S 
BRANCH  15  16
ATOM     16  C   UNL     1       1.800   6.972  20.224  0.00  0.00    +0.000 A 
ATOM     17  N   UNL     1       1.168   7.743  21.082  0.00  0.00    +0.000 NA
ATOM     18  C   UNL     1       0.987   8.990  20.484  0.00  0.00    +0.000 A 
ATOM     19  N   UNL     1       1.463   9.204  19.257  0.00  0.00    +0.000 NA
ATOM     20  S   UNL     1       2.175   7.787  18.759  0.00  0.00    +0.000 S 
BRANCH  18  21
ATOM     21  S   UNL     1       0.145  10.333  21.234  0.00  0.00    +0.000 S 
ATOM     22  C   UNL     1       1.059  11.752  20.627  0.00  0.00    +0.000 C 
ENDBRANCH  18  21
ENDBRANCH  15  16
ENDBRANCH  14  15
ENDBRANCH   2  14
TORSDOF 6
ENDMDL
MODEL 9
REMARK VINA RESULT:      -5.7      3.161      5.505
REMARK  Name = 
REMARK  9 active torsions:
REMARK  status: ('A' for Active; 'I' for Inactive)
REMARK    1  A    between atoms: C_1  and  O_2
REMARK    2  A    between atoms: O_2  and  C_3
REMARK    3  A    between atoms: C_6  and  C_7
REMARK    4  A    between atoms: C_9  and  N_10
REMARK    5  A    between atoms: C_11  and  C_13
REMARK    6  A    between atoms: C_13  and  S_14
REMARK    7  A    between atoms: S_14  and  C_15
REMARK    8  A    between atoms: C_17  and  S_18
REMARK    9  A    between atoms: S_18  and  C_19
REMARK                            x       y       z     vdW  Elec       q    Type
REMARK                         _______ _______ _______ _____ _____    ______ ____
ROOT
ATOM      1  N   UNL     1       5.165   4.313  18.803  0.00  0.00    +0.000 N 
ATOM      2  C   UNL     1       5.328   4.459  17.429  0.00  0.00    +0.000 C 
ATOM      3  O   UNL     1       4.442   4.770  16.632  0.00  0.00    +0.000 OA
ATOM      4  H   UNL     1       5.986   4.291  19.401  0.00  0.00    +0.000 HD
ENDROOT
BRANCH   1  11
ATOM      5  C   UNL     1       3.328   3.120  19.912  0.00  0.00    +0.000 A 
ATOM      6  C   UNL     1       2.131   3.163  20.646  0.00  0.00    +0.000 A 
ATOM      7  C   UNL     1       1.500   4.376  20.924  0.00  0.00    +0.000 A 
ATOM      8  C   UNL     1       2.051   5.569  20.469  0.00  0.00    +0.000 A 
ATOM      9  C   UNL     1       1.398   6.891  20.730  0.00  0.00    +0.000 C 
ATOM     10  C   UNL     1       3.254   5.532  19.754  0.00  0.00    +0.000 A 
ATOM     11  C   UNL     1       3.922   4.330  19.492  0.00  0.00    +0.000 A 
BRANCH   5  13
ATOM     12  C   UNL     1       3.513   1.293  18.406  0.00  0.00    +0.000 C 
ATOM     13  O   UNL     1       3.976   1.946  19.591  0.00  0.00    +0.000 OA
ENDBRANCH   5  13
ENDBRANCH   1  11
BRANCH   2  14
ATOM     14  C   UNL     1       6.748   4.329  16.920  0.00  0.00    +0.000 C 
BRANCH  14  15
ATOM     15  S   UNL     1       7.202   5.611  15.745  0.00  0.00    +0.000 S 
BRANCH  15  16
ATOM     16  C   UNL     1       7.001   4.867  14.177  0.00  0.00    +0.000 A 
ATOM     17  N   UNL     1       6.159   3.906  13.864  0.00  0.00    +0.000 NA
ATOM     18  C   UNL     1       6.357   3.582  12.522  0.00  0.00    +0.000 A 
ATOM     19  N   UNL     1       7.267   4.252  11.814  0.00  0.00    +0.000 NA
ATOM     20  S   UNL     1       7.964   5.356  12.841  0.00  0.00    +0.000 S 
BRANCH  18  21
ATOM     21  S   UNL     1       5.492   2.315  11.672  0.00  0.00    +0.000 S 
ATOM     22  C   UNL     1       3.999   3.153  11.141  0.00  0.00    +0.000 C 
ENDBRANCH  18  21
ENDBRANCH  15  16
ENDBRANCH  14  15
ENDBRANCH   2  14
TORSDOF 6
ENDMDL
