MODEL 1
REMARK VINA RESULT:      -6.9      0.000      0.000
REMARK  Name = 
REMARK  3 active torsions:
REMARK  status: ('A' for Active; 'I' for Inactive)
REMARK    1  A    between atoms: C_4  and  C_5
REMARK    2  A    between atoms: C_5  and  N_6
REMARK    3  A    between atoms: N_6  and  C_7
REMARK                            x       y       z     vdW  Elec       q    Type
REMARK                         _______ _______ _______ _____ _____    ______ ____
ROOT
ATOM      1  N   UNL     1       4.386   2.975  17.158  0.00  0.00    +0.000 N 
ATOM      2  H   UNL     1       4.470   2.056  16.743  0.00  0.00    +0.000 HD
ENDROOT
BRANCH   1   3
ATOM      3  C   UNL     1       5.335   3.884  16.705  0.00  0.00    +0.000 A 
ATOM      4  N   UNL     1       5.564   4.023  15.379  0.00  0.00    +0.000 NA
ATOM      5  C   UNL     1       6.454   4.940  14.965  0.00  0.00    +0.000 A 
ATOM      6  N   UNL     1       7.191   5.762  15.717  0.00  0.00    +0.000 NA
ATOM      7  C   UNL     1       6.951   5.598  17.028  0.00  0.00    +0.000 A 
ATOM      8  S   UNL     1       7.776   6.537  18.188  0.00  0.00    +0.000 S 
ATOM      9  C   UNL     1       6.958   5.773  19.479  0.00  0.00    +0.000 A 
ATOM     10  C   UNL     1       6.068   4.822  19.030  0.00  0.00    +0.000 A 
ATOM     11  C   UNL     1       6.057   4.704  17.597  0.00  0.00    +0.000 A 
ENDBRANCH   1   3
BRANCH   1  12
ATOM     12  C   UNL     1       3.017   3.452  17.256  0.00  0.00    +0.000 C 
BRANCH  12  16
ATOM     13  C   UNL     1       1.864   3.565  21.419  0.00  0.00    +0.000 A 
ATOM     14  C   UNL     1       1.296   4.456  20.511  0.00  0.00    +0.000 A 
ATOM     15  C   UNL     1       1.669   4.413  19.167  0.00  0.00    +0.000 A 
ATOM     16  C   UNL     1       2.618   3.482  18.715  0.00  0.00    +0.000 A 
ATOM     17  C   UNL     1       3.183   2.591  19.639  0.00  0.00    +0.000 A 
ATOM     18  C   UNL     1       2.806   2.634  20.984  0.00  0.00    +0.000 A 
ENDBRANCH  12  16
ENDBRANCH   1  12
TORSDOF 3
ENDMDL
MODEL 2
REMARK VINA RESULT:      -6.9      0.470      1.146
REMARK  Name = 
REMARK  3 active torsions:
REMARK  status: ('A' for Active; 'I' for Inactive)
REMARK    1  A    between atoms: C_4  and  C_5
REMARK    2  A    between atoms: C_5  and  N_6
REMARK    3  A    between atoms: N_6  and  C_7
REMARK                            x       y       z     vdW  Elec       q    Type
REMARK                         _______ _______ _______ _____ _____    ______ ____
ROOT
ATOM      1  N   UNL     1       4.307   2.997  17.080  0.00  0.00    +0.000 N 
ATOM      2  H   UNL     1       4.413   2.061  16.711  0.00  0.00    +0.000 HD
ENDROOT
BRANCH   1   3
ATOM      3  C   UNL     1       5.304   3.876  16.671  0.00  0.00    +0.000 A 
ATOM      4  N   UNL     1       5.598   4.008  15.358  0.00  0.00    +0.000 NA
ATOM      5  C   UNL     1       6.534   4.897  14.987  0.00  0.00    +0.000 A 
ATOM      6  N   UNL     1       7.261   5.696  15.772  0.00  0.00    +0.000 NA
ATOM      7  C   UNL     1       6.956   5.539  17.070  0.00  0.00    +0.000 A 
ATOM      8  S   UNL     1       7.756   6.453  18.268  0.00  0.00    +0.000 S 
ATOM      9  C   UNL     1       6.856   5.714  19.520  0.00  0.00    +0.000 A 
ATOM     10  C   UNL     1       5.959   4.791  19.029  0.00  0.00    +0.000 A 
ATOM     11  C   UNL     1       6.010   4.674  17.596  0.00  0.00    +0.000 A 
ENDBRANCH   1   3
BRANCH   1  12
ATOM     12  C   UNL     1       2.942   3.493  17.042  0.00  0.00    +0.000 C 
BRANCH  12  16
ATOM     13  C   UNL     1       1.440   3.704  21.088  0.00  0.00    +0.000 A 
ATOM     14  C   UNL     1       1.741   2.469  20.517  0.00  0.00    +0.000 A 
ATOM     15  C   UNL     1       2.229   2.407  19.211  0.00  0.00    +0.000 A 
ATOM     16  C   UNL     1       2.418   3.578  18.459  0.00  0.00    +0.000 A 
ATOM     17  C   UNL     1       2.111   4.814  19.046  0.00  0.00    +0.000 A 
ATOM     18  C   UNL     1       1.625   4.875  20.354  0.00  0.00    +0.000 A 
ENDBRANCH  12  16
ENDBRANCH   1  12
TORSDOF 3
ENDMDL
MODEL 3
REMARK VINA RESULT:      -6.8      1.792      2.789
REMARK  Name = 
REMARK  3 active torsions:
REMARK  status: ('A' for Active; 'I' for Inactive)
REMARK    1  A    between atoms: C_4  and  C_5
REMARK    2  A    between atoms: C_5  and  N_6
REMARK    3  A    between atoms: N_6  and  C_7
REMARK                            x       y       z     vdW  Elec       q    Type
REMARK                         _______ _______ _______ _____ _____    ______ ____
ROOT
ATOM      1  N   UNL     1       5.548   3.812  18.935  0.00  0.00    +0.000 N 
ATOM      2  H   UNL     1       5.262   2.964  18.463  0.00  0.00    +0.000 HD
ENDROOT
BRANCH   1   3
ATOM      3  C   UNL     1       6.202   4.720  18.108  0.00  0.00    +0.000 A 
ATOM      4  N   UNL     1       6.818   5.801  18.638  0.00  0.00    +0.000 NA
ATOM      5  C   UNL     1       7.480   6.637  17.821  0.00  0.00    +0.000 A 
ATOM      6  N   UNL     1       7.607   6.555  16.495  0.00  0.00    +0.000 NA
ATOM      7  C   UNL     1       6.980   5.479  15.993  0.00  0.00    +0.000 A 
ATOM      8  S   UNL     1       7.002   5.161  14.318  0.00  0.00    +0.000 S 
ATOM      9  C   UNL     1       6.066   3.744  14.512  0.00  0.00    +0.000 A 
ATOM     10  C   UNL     1       5.748   3.517  15.833  0.00  0.00    +0.000 A 
ATOM     11  C   UNL     1       6.272   4.528  16.712  0.00  0.00    +0.000 A 
ENDBRANCH   1   3
BRANCH   1  12
ATOM     12  C   UNL     1       4.542   4.353  19.833  0.00  0.00    +0.000 C 
BRANCH  12  16
ATOM     13  C   UNL     1       0.735   2.504  18.960  0.00  0.00    +0.000 A 
ATOM     14  C   UNL     1       0.878   3.316  20.084  0.00  0.00    +0.000 A 
ATOM     15  C   UNL     1       2.109   3.913  20.359  0.00  0.00    +0.000 A 
ATOM     16  C   UNL     1       3.213   3.703  19.517  0.00  0.00    +0.000 A 
ATOM     17  C   UNL     1       3.056   2.884  18.389  0.00  0.00    +0.000 A 
ATOM     18  C   UNL     1       1.822   2.289  18.114  0.00  0.00    +0.000 A 
ENDBRANCH  12  16
ENDBRANCH   1  12
TORSDOF 3
ENDMDL
MODEL 4
REMARK VINA RESULT:      -6.7      2.166      5.080
REMARK  Name = 
REMARK  3 active torsions:
REMARK  status: ('A' for Active; 'I' for Inactive)
REMARK    1  A    between atoms: C_4  and  C_5
REMARK    2  A    between atoms: C_5  and  N_6
REMARK    3  A    between atoms: N_6  and  C_7
REMARK                            x       y       z     vdW  Elec       q    Type
REMARK                         _______ _______ _______ _____ _____    ______ ____
ROOT
ATOM      1  N   UNL     1       4.640   4.231  16.162  0.00  0.00    +0.000 N 
ATOM      2  H   UNL     1       4.170   4.002  15.296  0.00  0.00    +0.000 HD
ENDROOT
BRANCH   1   3
ATOM      3  C   UNL     1       3.966   3.796  17.298  0.00  0.00    +0.000 A 
ATOM      4  N   UNL     1       3.885   2.475  17.576  0.00  0.00    +0.000 NA
ATOM      5  C   UNL     1       3.266   2.085  18.703  0.00  0.00    +0.000 A 
ATOM      6  N   UNL     1       2.679   2.854  19.622  0.00  0.00    +0.000 NA
ATOM      7  C   UNL     1       2.765   4.159  19.318  0.00  0.00    +0.000 A 
ATOM      8  S   UNL     1       2.085   5.339  20.345  0.00  0.00    +0.000 S 
ATOM      9  C   UNL     1       2.597   6.611  19.324  0.00  0.00    +0.000 A 
ATOM     10  C   UNL     1       3.278   6.141  18.222  0.00  0.00    +0.000 A 
ATOM     11  C   UNL     1       3.380   4.706  18.203  0.00  0.00    +0.000 A 
ENDBRANCH   1   3
BRANCH   1  12
ATOM     12  C   UNL     1       6.076   4.009  16.129  0.00  0.00    +0.000 C 
BRANCH  12  16
ATOM     13  C   UNL     1       7.993   7.011  18.576  0.00  0.00    +0.000 A 
ATOM     14  C   UNL     1       7.347   7.377  17.396  0.00  0.00    +0.000 A 
ATOM     15  C   UNL     1       6.726   6.404  16.612  0.00  0.00    +0.000 A 
ATOM     16  C   UNL     1       6.747   5.053  16.994  0.00  0.00    +0.000 A 
ATOM     17  C   UNL     1       7.401   4.698  18.183  0.00  0.00    +0.000 A 
ATOM     18  C   UNL     1       8.019   5.673  18.969  0.00  0.00    +0.000 A 
ENDBRANCH  12  16
ENDBRANCH   1  12
TORSDOF 3
ENDMDL
MODEL 5
REMARK VINA RESULT:      -6.7      2.188      5.226
REMARK  Name = 
REMARK  3 active torsions:
REMARK  status: ('A' for Active; 'I' for Inactive)
REMARK    1  A    between atoms: C_4  and  C_5
REMARK    2  A    between atoms: C_5  and  N_6
REMARK    3  A    between atoms: N_6  and  C_7
REMARK                            x       y       z     vdW  Elec       q    Type
REMARK                         _______ _______ _______ _____ _____    ______ ____
ROOT
ATOM      1  N   UNL     1       4.388   4.199  16.283  0.00  0.00    +0.000 N 
ATOM      2  H   UNL     1       3.876   4.002  15.433  0.00  0.00    +0.000 HD
ENDROOT
BRANCH   1   3
ATOM      3  C   UNL     1       3.756   3.744  17.436  0.00  0.00    +0.000 A 
ATOM      4  N   UNL     1       3.689   2.419  17.697  0.00  0.00    +0.000 NA
ATOM      5  C   UNL     1       3.112   2.009  18.839  0.00  0.00    +0.000 A 
ATOM      6  N   UNL     1       2.556   2.762  19.790  0.00  0.00    +0.000 NA
ATOM      7  C   UNL     1       2.629   4.072  19.504  0.00  0.00    +0.000 A 
ATOM      8  S   UNL     1       1.984   5.234  20.573  0.00  0.00    +0.000 S 
ATOM      9  C   UNL     1       2.455   6.523  19.554  0.00  0.00    +0.000 A 
ATOM     10  C   UNL     1       3.097   6.072  18.421  0.00  0.00    +0.000 A 
ATOM     11  C   UNL     1       3.202   4.638  18.376  0.00  0.00    +0.000 A 
ENDBRANCH   1   3
BRANCH   1  12
ATOM     12  C   UNL     1       5.816   3.951  16.180  0.00  0.00    +0.000 C 
BRANCH  12  16
ATOM     13  C   UNL     1       7.914   6.954  18.472  0.00  0.00    +0.000 A 
ATOM     14  C   UNL     1       7.996   5.611  18.836  0.00  0.00    +0.000 A 
ATOM     15  C   UNL     1       7.320   4.645  18.090  0.00  0.00    +0.000 A 
ATOM     16  C   UNL     1       6.549   5.010  16.974  0.00  0.00    +0.000 A 
ATOM     17  C   UNL     1       6.475   6.364  16.619  0.00  0.00    +0.000 A 
ATOM     18  C   UNL     1       7.155   7.329  17.365  0.00  0.00    +0.000 A 
ENDBRANCH  12  16
ENDBRANCH   1  12
TORSDOF 3
ENDMDL
MODEL 6
REMARK VINA RESULT:      -6.5      1.618      2.703
REMARK  Name = 
REMARK  3 active torsions:
REMARK  status: ('A' for Active; 'I' for Inactive)
REMARK    1  A    between atoms: C_4  and  C_5
REMARK    2  A    between atoms: C_5  and  N_6
REMARK    3  A    between atoms: N_6  and  C_7
REMARK                            x       y       z     vdW  Elec       q    Type
REMARK                         _______ _______ _______ _____ _____    ______ ____
ROOT
ATOM      1  N   UNL     1       4.955   3.545  18.158  0.00  0.00    +0.000 N 
ATOM      2  H   UNL     1       5.328   2.605  18.135  0.00  0.00    +0.000 HD
ENDROOT
BRANCH   1   3
ATOM      3  C   UNL     1       5.782   4.491  17.561  0.00  0.00    +0.000 A 
ATOM      4  N   UNL     1       6.321   5.486  18.301  0.00  0.00    +0.000 NA
ATOM      5  C   UNL     1       7.152   6.360  17.709  0.00  0.00    +0.000 A 
ATOM      6  N   UNL     1       7.525   6.394  16.428  0.00  0.00    +0.000 NA
ATOM      7  C   UNL     1       6.970   5.402  15.714  0.00  0.00    +0.000 A 
ATOM      8  S   UNL     1       7.297   5.239  14.048  0.00  0.00    +0.000 S 
ATOM      9  C   UNL     1       6.296   3.859  13.923  0.00  0.00    +0.000 A 
ATOM     10  C   UNL     1       5.727   3.528  15.133  0.00  0.00    +0.000 A 
ATOM     11  C   UNL     1       6.108   4.426  16.190  0.00  0.00    +0.000 A 
ENDBRANCH   1   3
BRANCH   1  12
ATOM     12  C   UNL     1       3.539   3.624  17.844  0.00  0.00    +0.000 C 
BRANCH  12  16
ATOM     13  C   UNL     1       1.305   2.837  21.459  0.00  0.00    +0.000 A 
ATOM     14  C   UNL     1       2.687   2.658  21.437  0.00  0.00    +0.000 A 
ATOM     15  C   UNL     1       3.404   2.917  20.269  0.00  0.00    +0.000 A 
ATOM     16  C   UNL     1       2.748   3.354  19.106  0.00  0.00    +0.000 A 
ATOM     17  C   UNL     1       1.357   3.529  19.141  0.00  0.00    +0.000 A 
ATOM     18  C   UNL     1       0.641   3.272  20.313  0.00  0.00    +0.000 A 
ENDBRANCH  12  16
ENDBRANCH   1  12
TORSDOF 3
ENDMDL
MODEL 7
REMARK VINA RESULT:      -6.5      2.911      5.822
REMARK  Name = 
REMARK  3 active torsions:
REMARK  status: ('A' for Active; 'I' for Inactive)
REMARK    1  A    between atoms: C_4  and  C_5
REMARK    2  A    between atoms: C_5  and  N_6
REMARK    3  A    between atoms: N_6  and  C_7
REMARK                            x       y       z     vdW  Elec       q    Type
REMARK                         _______ _______ _______ _____ _____    ______ ____
ROOT
ATOM      1  N   UNL     1       3.119   6.713  17.605  0.00  0.00    +0.000 N 
ATOM      2  H   UNL     1       2.875   6.391  16.677  0.00  0.00    +0.000 HD
ENDROOT
BRANCH   1   3
ATOM      3  C   UNL     1       2.629   5.905  18.625  0.00  0.00    +0.000 A 
ATOM      4  N   UNL     1       2.255   6.451  19.805  0.00  0.00    +0.000 NA
ATOM      5  C   UNL     1       1.743   5.654  20.758  0.00  0.00    +0.000 A 
ATOM      6  N   UNL     1       1.557   4.333  20.706  0.00  0.00    +0.000 NA
ATOM      7  C   UNL     1       1.943   3.815  19.529  0.00  0.00    +0.000 A 
ATOM      8  S   UNL     1       1.803   2.142  19.226  0.00  0.00    +0.000 S 
ATOM      9  C   UNL     1       2.449   2.311  17.652  0.00  0.00    +0.000 A 
ATOM     10  C   UNL     1       2.761   3.621  17.364  0.00  0.00    +0.000 A 
ATOM     11  C   UNL     1       2.475   4.513  18.456  0.00  0.00    +0.000 A 
ENDBRANCH   1   3
BRANCH   1  12
ATOM     12  C   UNL     1       4.496   7.160  17.729  0.00  0.00    +0.000 C 
BRANCH  12  16
ATOM     13  C   UNL     1       7.024   4.380  15.595  0.00  0.00    +0.000 A 
ATOM     14  C   UNL     1       6.028   5.082  14.918  0.00  0.00    +0.000 A 
ATOM     15  C   UNL     1       5.217   5.981  15.611  0.00  0.00    +0.000 A 
ATOM     16  C   UNL     1       5.388   6.186  16.990  0.00  0.00    +0.000 A 
ATOM     17  C   UNL     1       6.393   5.473  17.659  0.00  0.00    +0.000 A 
ATOM     18  C   UNL     1       7.206   4.575  16.963  0.00  0.00    +0.000 A 
ENDBRANCH  12  16
ENDBRANCH   1  12
TORSDOF 3
ENDMDL
MODEL 8
REMARK VINA RESULT:      -6.5      2.148      2.686
REMARK  Name = 
REMARK  3 active torsions:
REMARK  status: ('A' for Active; 'I' for Inactive)
REMARK    1  A    between atoms: C_4  and  C_5
REMARK    2  A    between atoms: C_5  and  N_6
REMARK    3  A    between atoms: N_6  and  C_7
REMARK                            x       y       z     vdW  Elec       q    Type
REMARK                         _______ _______ _______ _____ _____    ______ ____
ROOT
ATOM      1  N   UNL     1       5.323   3.557  19.384  0.00  0.00    +0.000 N 
ATOM      2  H   UNL     1       6.271   3.436  19.718  0.00  0.00    +0.000 HD
ENDROOT
BRANCH   1   3
ATOM      3  C   UNL     1       5.197   4.528  18.397  0.00  0.00    +0.000 A 
ATOM      4  N   UNL     1       5.957   4.466  17.280  0.00  0.00    +0.000 NA
ATOM      5  C   UNL     1       5.784   5.392  16.322  0.00  0.00    +0.000 A 
ATOM      6  N   UNL     1       4.936   6.423  16.325  0.00  0.00    +0.000 NA
ATOM      7  C   UNL     1       4.200   6.467  17.448  0.00  0.00    +0.000 A 
ATOM      8  S   UNL     1       3.044   7.700  17.683  0.00  0.00    +0.000 S 
ATOM      9  C   UNL     1       2.597   7.074  19.209  0.00  0.00    +0.000 A 
ATOM     10  C   UNL     1       3.315   5.943  19.530  0.00  0.00    +0.000 A 
ATOM     11  C   UNL     1       4.261   5.578  18.509  0.00  0.00    +0.000 A 
ENDBRANCH   1   3
BRANCH   1  12
ATOM     12  C   UNL     1       4.613   2.308  19.167  0.00  0.00    +0.000 C 
BRANCH  12  16
ATOM     13  C   UNL     1       0.458   2.889  20.202  0.00  0.00    +0.000 A 
ATOM     14  C   UNL     1       1.438   2.935  21.191  0.00  0.00    +0.000 A 
ATOM     15  C   UNL     1       2.779   2.751  20.851  0.00  0.00    +0.000 A 
ATOM     16  C   UNL     1       3.155   2.513  19.519  0.00  0.00    +0.000 A 
ATOM     17  C   UNL     1       2.158   2.469  18.533  0.00  0.00    +0.000 A 
ATOM     18  C   UNL     1       0.817   2.657  18.875  0.00  0.00    +0.000 A 
ENDBRANCH  12  16
ENDBRANCH   1  12
TORSDOF 3
ENDMDL
MODEL 9
REMARK VINA RESULT:      -6.4      2.153      2.605
REMARK  Name = 
REMARK  3 active torsions:
REMARK  status: ('A' for Active; 'I' for Inactive)
REMARK    1  A    between atoms: C_4  and  C_5
REMARK    2  A    between atoms: C_5  and  N_6
REMARK    3  A    between atoms: N_6  and  C_7
REMARK                            x       y       z     vdW  Elec       q    Type
REMARK                         _______ _______ _______ _____ _____    ______ ____
ROOT
ATOM      1  N   UNL     1       5.320   3.584  19.305  0.00  0.00    +0.000 N 
ATOM      2  H   UNL     1       6.271   3.446  19.621  0.00  0.00    +0.000 HD
ENDROOT
BRANCH   1   3
ATOM      3  C   UNL     1       5.188   4.578  18.340  0.00  0.00    +0.000 A 
ATOM      4  N   UNL     1       5.946   4.543  17.220  0.00  0.00    +0.000 NA
ATOM      5  C   UNL     1       5.767   5.489  16.284  0.00  0.00    +0.000 A 
ATOM      6  N   UNL     1       4.917   6.518  16.313  0.00  0.00    +0.000 NA
ATOM      7  C   UNL     1       4.183   6.534  17.438  0.00  0.00    +0.000 A 
ATOM      8  S   UNL     1       3.025   7.758  17.704  0.00  0.00    +0.000 S 
ATOM      9  C   UNL     1       2.584   7.097  19.217  0.00  0.00    +0.000 A 
ATOM     10  C   UNL     1       3.306   5.961  19.510  0.00  0.00    +0.000 A 
ATOM     11  C   UNL     1       4.250   5.622  18.479  0.00  0.00    +0.000 A 
ENDBRANCH   1   3
BRANCH   1  12
ATOM     12  C   UNL     1       4.592   2.348  19.074  0.00  0.00    +0.000 C 
BRANCH  12  16
ATOM     13  C   UNL     1       0.485   2.910  20.296  0.00  0.00    +0.000 A 
ATOM     14  C   UNL     1       0.793   2.689  18.955  0.00  0.00    +0.000 A 
ATOM     15  C   UNL     1       2.120   2.505  18.566  0.00  0.00    +0.000 A 
ATOM     16  C   UNL     1       3.157   2.543  19.512  0.00  0.00    +0.000 A 
ATOM     17  C   UNL     1       2.834   2.766  20.859  0.00  0.00    +0.000 A 
ATOM     18  C   UNL     1       1.504   2.947  21.246  0.00  0.00    +0.000 A 
ENDBRANCH  12  16
ENDBRANCH   1  12
TORSDOF 3
ENDMDL
