MODEL 1
REMARK VINA RESULT:      -8.4      0.000      0.000
REMARK  Name = 
REMARK  10 active torsions:
REMARK  status: ('A' for Active; 'I' for Inactive)
REMARK    1  A    between atoms: N_1  and  C_2
REMARK    2  A    between atoms: C_2  and  C_3
REMARK    3  A    between atoms: C_3  and  C_4
REMARK    4  A    between atoms: C_4  and  C_5
REMARK    5  A    between atoms: C_5  and  C_6
REMARK    6  A    between atoms: C_6  and  C_7
REMARK    7  A    between atoms: C_7  and  N_8
REMARK    8  A    between atoms: N_8  and  C_9
REMARK    9  A    between atoms: C_11  and  C_12
REMARK   10  A    between atoms: C_13  and  C_14
REMARK                            x       y       z     vdW  Elec       q    Type
REMARK                         _______ _______ _______ _____ _____    ______ ____
ROOT
ATOM      1  C   UNL     1       6.271   4.752  17.900  0.00  0.00    +0.000 A 
ATOM      2  N   UNL     1       6.877   5.787  18.506  0.00  0.00    +0.000 NA
ATOM      3  C   UNL     1       7.531   6.664  17.734  0.00  0.00    +0.000 A 
ATOM      4  N   UNL     1       7.652   6.583  16.402  0.00  0.00    +0.000 NA
ATOM      5  C   UNL     1       7.061   5.544  15.801  0.00  0.00    +0.000 A 
ATOM      6  C   UNL     1       7.159   5.440  14.415  0.00  0.00    +0.000 A 
ATOM      7  C   UNL     1       6.552   4.404  13.700  0.00  0.00    +0.000 A 
ATOM      8  C   UNL     1       5.809   3.450  14.373  0.00  0.00    +0.000 A 
ATOM      9  C   UNL     1       5.693   3.534  15.761  0.00  0.00    +0.000 A 
ATOM     10  C   UNL     1       6.330   4.572  16.500  0.00  0.00    +0.000 A 
ENDROOT
BRANCH   1  11
ATOM     11  N   UNL     1       5.641   3.781  18.718  0.00  0.00    +0.000 N 
ATOM     12  H   UNL     1       5.463   2.942  18.182  0.00  0.00    +0.000 HD
BRANCH  11  13
ATOM     13  C   UNL     1       4.398   4.254  19.336  0.00  0.00    +0.000 C 
BRANCH  13  14
ATOM     14  C   UNL     1       3.247   4.130  18.331  0.00  0.00    +0.000 C 
BRANCH  14  15
ATOM     15  C   UNL     1       2.911   2.663  18.047  0.00  0.00    +0.000 C 
BRANCH  15  16
ATOM     16  C   UNL     1       2.137   2.022  19.202  0.00  0.00    +0.000 C 
BRANCH  16  17
ATOM     17  C   UNL     1       0.981   2.912  19.667  0.00  0.00    +0.000 C 
BRANCH  17  18
ATOM     18  C   UNL     1       1.257   3.497  21.052  0.00  0.00    +0.000 C 
BRANCH  18  19
ATOM     19  N   UNL     1       1.720   2.457  21.962  0.00  0.00    +0.000 NA
ATOM     20  H   UNL     1       2.293   1.788  21.448  0.00  0.00    +0.000 HD
ATOM     21  H   UNL     1       0.922   1.932  22.320  0.00  0.00    +0.000 HD
ENDBRANCH  18  19
ENDBRANCH  17  18
ENDBRANCH  16  17
ENDBRANCH  15  16
ENDBRANCH  14  15
ENDBRANCH  13  14
ENDBRANCH  11  13
ENDBRANCH   1  11
BRANCH   3  22
ATOM     22  C   UNL     1       8.128   7.845  18.366  0.00  0.00    +0.000 C 
ATOM     23  C   UNL     1       8.202   9.060  17.785  0.00  0.00    +0.000 C 
BRANCH  23  24
ATOM     24  C   UNL     1       8.810  10.254  18.393  0.00  0.00    +0.000 A 
ATOM     25  C   UNL     1       8.744  11.522  17.799  0.00  0.00    +0.000 A 
ATOM     26  C   UNL     1       9.317  12.634  18.425  0.00  0.00    +0.000 A 
ATOM     27  C   UNL     1       9.950  12.489  19.655  0.00  0.00    +0.000 A 
ATOM     28 CL   UNL     1      10.662  13.856  20.419  0.00  0.00    +0.000 Cl
ATOM     29  C   UNL     1      10.006  11.242  20.271  0.00  0.00    +0.000 A 
ATOM     30  C   UNL     1       9.433  10.130  19.644  0.00  0.00    +0.000 A 
ENDBRANCH  23  24
ENDBRANCH   3  22
TORSDOF 10
ENDMDL
MODEL 2
REMARK VINA RESULT:      -8.4      1.758      2.610
REMARK  Name = 
REMARK  10 active torsions:
REMARK  status: ('A' for Active; 'I' for Inactive)
REMARK    1  A    between atoms: N_1  and  C_2
REMARK    2  A    between atoms: C_2  and  C_3
REMARK    3  A    between atoms: C_3  and  C_4
REMARK    4  A    between atoms: C_4  and  C_5
REMARK    5  A    between atoms: C_5  and  C_6
REMARK    6  A    between atoms: C_6  and  C_7
REMARK    7  A    between atoms: C_7  and  N_8
REMARK    8  A    between atoms: N_8  and  C_9
REMARK    9  A    between atoms: C_11  and  C_12
REMARK   10  A    between atoms: C_13  and  C_14
REMARK                            x       y       z     vdW  Elec       q    Type
REMARK                         _______ _______ _______ _____ _____    ______ ____
ROOT
ATOM      1  C   UNL     1       6.273   4.818  18.039  0.00  0.00    +0.000 A 
ATOM      2  N   UNL     1       6.923   5.843  18.619  0.00  0.00    +0.000 NA
ATOM      3  C   UNL     1       7.581   6.693  17.821  0.00  0.00    +0.000 A 
ATOM      4  N   UNL     1       7.665   6.595  16.487  0.00  0.00    +0.000 NA
ATOM      5  C   UNL     1       7.031   5.566  15.913  0.00  0.00    +0.000 A 
ATOM      6  C   UNL     1       7.091   5.446  14.526  0.00  0.00    +0.000 A 
ATOM      7  C   UNL     1       6.438   4.420  13.838  0.00  0.00    +0.000 A 
ATOM      8  C   UNL     1       5.686   3.494  14.540  0.00  0.00    +0.000 A 
ATOM      9  C   UNL     1       5.607   3.595  15.930  0.00  0.00    +0.000 A 
ATOM     10  C   UNL     1       6.292   4.623  16.641  0.00  0.00    +0.000 A 
ENDROOT
BRANCH   1  11
ATOM     11  N   UNL     1       5.637   3.874  18.884  0.00  0.00    +0.000 N 
ATOM     12  H   UNL     1       5.470   3.016  18.376  0.00  0.00    +0.000 HD
BRANCH  11  13
ATOM     13  C   UNL     1       4.384   4.362  19.468  0.00  0.00    +0.000 C 
BRANCH  13  14
ATOM     14  C   UNL     1       3.200   3.857  18.635  0.00  0.00    +0.000 C 
BRANCH  14  15
ATOM     15  C   UNL     1       2.474   5.014  17.940  0.00  0.00    +0.000 C 
BRANCH  15  16
ATOM     16  C   UNL     1       2.458   6.277  18.804  0.00  0.00    +0.000 C 
BRANCH  16  17
ATOM     17  C   UNL     1       2.854   7.517  17.996  0.00  0.00    +0.000 C 
BRANCH  17  18
ATOM     18  C   UNL     1       2.115   8.759  18.494  0.00  0.00    +0.000 C 
BRANCH  18  19
ATOM     19  N   UNL     1       1.924   9.710  17.405  0.00  0.00    +0.000 NA
ATOM     20  H   UNL     1       2.809  10.176  17.205  0.00  0.00    +0.000 HD
ATOM     21  H   UNL     1       1.276  10.442  17.696  0.00  0.00    +0.000 HD
ENDBRANCH  18  19
ENDBRANCH  17  18
ENDBRANCH  16  17
ENDBRANCH  15  16
ENDBRANCH  14  15
ENDBRANCH  13  14
ENDBRANCH  11  13
ENDBRANCH   1  11
BRANCH   3  22
ATOM     22  C   UNL     1       8.226   7.863  18.425  0.00  0.00    +0.000 C 
ATOM     23  C   UNL     1       8.148   9.114  17.925  0.00  0.00    +0.000 C 
BRANCH  23  24
ATOM     24  C   UNL     1       8.800  10.299  18.505  0.00  0.00    +0.000 A 
ATOM     25  C   UNL     1       9.434  10.277  19.755  0.00  0.00    +0.000 A 
ATOM     26  C   UNL     1      10.062  11.422  20.257  0.00  0.00    +0.000 A 
ATOM     27  C   UNL     1      10.070  12.594  19.508  0.00  0.00    +0.000 A 
ATOM     28 CL   UNL     1      10.835  14.004  20.130  0.00  0.00    +0.000 Cl
ATOM     29  C   UNL     1       9.465  12.629  18.255  0.00  0.00    +0.000 A 
ATOM     30  C   UNL     1       8.837  11.482  17.753  0.00  0.00    +0.000 A 
ENDBRANCH  23  24
ENDBRANCH   3  22
TORSDOF 10
ENDMDL
MODEL 3
REMARK VINA RESULT:      -8.3      2.461      5.067
REMARK  Name = 
REMARK  10 active torsions:
REMARK  status: ('A' for Active; 'I' for Inactive)
REMARK    1  A    between atoms: N_1  and  C_2
REMARK    2  A    between atoms: C_2  and  C_3
REMARK    3  A    between atoms: C_3  and  C_4
REMARK    4  A    between atoms: C_4  and  C_5
REMARK    5  A    between atoms: C_5  and  C_6
REMARK    6  A    between atoms: C_6  and  C_7
REMARK    7  A    between atoms: C_7  and  N_8
REMARK    8  A    between atoms: N_8  and  C_9
REMARK    9  A    between atoms: C_11  and  C_12
REMARK   10  A    between atoms: C_13  and  C_14
REMARK                            x       y       z     vdW  Elec       q    Type
REMARK                         _______ _______ _______ _____ _____    ______ ____
ROOT
ATOM      1  C   UNL     1       6.832   5.411  16.282  0.00  0.00    +0.000 A 
ATOM      2  N   UNL     1       7.546   6.540  16.436  0.00  0.00    +0.000 NA
ATOM      3  C   UNL     1       7.033   7.499  17.218  0.00  0.00    +0.000 A 
ATOM      4  N   UNL     1       5.850   7.436  17.845  0.00  0.00    +0.000 NA
ATOM      5  C   UNL     1       5.134   6.318  17.678  0.00  0.00    +0.000 A 
ATOM      6  C   UNL     1       3.905   6.220  18.327  0.00  0.00    +0.000 A 
ATOM      7  C   UNL     1       3.101   5.081  18.232  0.00  0.00    +0.000 A 
ATOM      8  C   UNL     1       3.532   3.997  17.487  0.00  0.00    +0.000 A 
ATOM      9  C   UNL     1       4.761   4.070  16.830  0.00  0.00    +0.000 A 
ATOM     10  C   UNL     1       5.574   5.237  16.901  0.00  0.00    +0.000 A 
ENDROOT
BRANCH   1  11
ATOM     11  N   UNL     1       7.335   4.425  15.397  0.00  0.00    +0.000 N 
ATOM     12  H   UNL     1       8.308   4.243  15.602  0.00  0.00    +0.000 HD
BRANCH  11  13
ATOM     13  C   UNL     1       7.179   4.774  13.981  0.00  0.00    +0.000 C 
BRANCH  13  14
ATOM     14  C   UNL     1       5.962   4.040  13.404  0.00  0.00    +0.000 C 
BRANCH  14  15
ATOM     15  C   UNL     1       6.312   3.325  12.095  0.00  0.00    +0.000 C 
BRANCH  15  16
ATOM     16  C   UNL     1       5.122   2.540  11.539  0.00  0.00    +0.000 C 
BRANCH  16  17
ATOM     17  C   UNL     1       3.882   3.427  11.394  0.00  0.00    +0.000 C 
BRANCH  17  18
ATOM     18  C   UNL     1       3.183   3.183  10.056  0.00  0.00    +0.000 C 
BRANCH  18  19
ATOM     19  N   UNL     1       2.858   4.450   9.412  0.00  0.00    +0.000 NA
ATOM     20  H   UNL     1       2.928   5.205  10.094  0.00  0.00    +0.000 HD
ATOM     21  H   UNL     1       1.888   4.439   9.098  0.00  0.00    +0.000 HD
ENDBRANCH  18  19
ENDBRANCH  17  18
ENDBRANCH  16  17
ENDBRANCH  15  16
ENDBRANCH  14  15
ENDBRANCH  13  14
ENDBRANCH  11  13
ENDBRANCH   1  11
BRANCH   3  22
ATOM     22  C   UNL     1       7.833   8.702  17.467  0.00  0.00    +0.000 C 
ATOM     23  C   UNL     1       8.486   8.953  18.620  0.00  0.00    +0.000 C 
BRANCH  23  24
ATOM     24  C   UNL     1       9.281  10.160  18.897  0.00  0.00    +0.000 A 
ATOM     25  C   UNL     1       9.559  10.598  20.199  0.00  0.00    +0.000 A 
ATOM     26  C   UNL     1      10.339  11.740  20.416  0.00  0.00    +0.000 A 
ATOM     27  C   UNL     1      10.856  12.444  19.333  0.00  0.00    +0.000 A 
ATOM     28 CL   UNL     1      11.807  13.852  19.602  0.00  0.00    +0.000 Cl
ATOM     29  C   UNL     1      10.609  12.011  18.034  0.00  0.00    +0.000 A 
ATOM     30  C   UNL     1       9.828  10.869  17.818  0.00  0.00    +0.000 A 
ENDBRANCH  23  24
ENDBRANCH   3  22
TORSDOF 10
ENDMDL
MODEL 4
REMARK VINA RESULT:      -8.1      1.266      1.415
REMARK  Name = 
REMARK  10 active torsions:
REMARK  status: ('A' for Active; 'I' for Inactive)
REMARK    1  A    between atoms: N_1  and  C_2
REMARK    2  A    between atoms: C_2  and  C_3
REMARK    3  A    between atoms: C_3  and  C_4
REMARK    4  A    between atoms: C_4  and  C_5
REMARK    5  A    between atoms: C_5  and  C_6
REMARK    6  A    between atoms: C_6  and  C_7
REMARK    7  A    between atoms: C_7  and  N_8
REMARK    8  A    between atoms: N_8  and  C_9
REMARK    9  A    between atoms: C_11  and  C_12
REMARK   10  A    between atoms: C_13  and  C_14
REMARK                            x       y       z     vdW  Elec       q    Type
REMARK                         _______ _______ _______ _____ _____    ______ ____
ROOT
ATOM      1  C   UNL     1       5.642   5.554  17.917  0.00  0.00    +0.000 A 
ATOM      2  N   UNL     1       6.438   6.497  18.451  0.00  0.00    +0.000 NA
ATOM      3  C   UNL     1       7.430   6.977  17.690  0.00  0.00    +0.000 A 
ATOM      4  N   UNL     1       7.710   6.577  16.442  0.00  0.00    +0.000 NA
ATOM      5  C   UNL     1       6.926   5.628  15.917  0.00  0.00    +0.000 A 
ATOM      6  C   UNL     1       7.186   5.202  14.617  0.00  0.00    +0.000 A 
ATOM      7  C   UNL     1       6.405   4.236  13.978  0.00  0.00    +0.000 A 
ATOM      8  C   UNL     1       5.320   3.685  14.639  0.00  0.00    +0.000 A 
ATOM      9  C   UNL     1       5.036   4.098  15.941  0.00  0.00    +0.000 A 
ATOM     10  C   UNL     1       5.844   5.064  16.608  0.00  0.00    +0.000 A 
ENDROOT
BRANCH   1  11
ATOM     11  N   UNL     1       4.637   4.990  18.743  0.00  0.00    +0.000 N 
ATOM     12  H   UNL     1       4.182   4.228  18.260  0.00  0.00    +0.000 HD
BRANCH  11  13
ATOM     13  C   UNL     1       3.638   5.963  19.197  0.00  0.00    +0.000 C 
BRANCH  13  14
ATOM     14  C   UNL     1       2.235   5.362  19.051  0.00  0.00    +0.000 C 
BRANCH  14  15
ATOM     15  C   UNL     1       2.229   4.196  18.057  0.00  0.00    +0.000 C 
BRANCH  15  16
ATOM     16  C   UNL     1       1.214   3.119  18.449  0.00  0.00    +0.000 C 
BRANCH  16  17
ATOM     17  C   UNL     1       1.891   1.935  19.146  0.00  0.00    +0.000 C 
BRANCH  17  18
ATOM     18  C   UNL     1       3.411   2.006  19.002  0.00  0.00    +0.000 C 
BRANCH  18  19
ATOM     19  N   UNL     1       3.914   0.823  18.314  0.00  0.00    +0.000 NA
ATOM     20  H   UNL     1       4.542   1.110  17.564  0.00  0.00    +0.000 HD
ATOM     21  H   UNL     1       3.142   0.330  17.866  0.00  0.00    +0.000 HD
ENDBRANCH  18  19
ENDBRANCH  17  18
ENDBRANCH  16  17
ENDBRANCH  15  16
ENDBRANCH  14  15
ENDBRANCH  13  14
ENDBRANCH  11  13
ENDBRANCH   1  11
BRANCH   3  22
ATOM     22  C   UNL     1       8.258   8.063  18.222  0.00  0.00    +0.000 C 
ATOM     23  C   UNL     1       8.086   9.366  17.917  0.00  0.00    +0.000 C 
BRANCH  23  24
ATOM     24  C   UNL     1       8.914  10.471  18.426  0.00  0.00    +0.000 A 
ATOM     25  C   UNL     1       9.134  11.648  17.696  0.00  0.00    +0.000 A 
ATOM     26  C   UNL     1       9.910  12.683  18.230  0.00  0.00    +0.000 A 
ATOM     27  C   UNL     1      10.462  12.553  19.500  0.00  0.00    +0.000 A 
ATOM     28 CL   UNL     1      11.423  13.824  20.151  0.00  0.00    +0.000 Cl
ATOM     29  C   UNL     1      10.235  11.402  20.248  0.00  0.00    +0.000 A 
ATOM     30  C   UNL     1       9.459  10.367  19.714  0.00  0.00    +0.000 A 
ENDBRANCH  23  24
ENDBRANCH   3  22
TORSDOF 10
ENDMDL
MODEL 5
REMARK VINA RESULT:      -8.1      0.815      1.237
REMARK  Name = 
REMARK  10 active torsions:
REMARK  status: ('A' for Active; 'I' for Inactive)
REMARK    1  A    between atoms: N_1  and  C_2
REMARK    2  A    between atoms: C_2  and  C_3
REMARK    3  A    between atoms: C_3  and  C_4
REMARK    4  A    between atoms: C_4  and  C_5
REMARK    5  A    between atoms: C_5  and  C_6
REMARK    6  A    between atoms: C_6  and  C_7
REMARK    7  A    between atoms: C_7  and  N_8
REMARK    8  A    between atoms: N_8  and  C_9
REMARK    9  A    between atoms: C_11  and  C_12
REMARK   10  A    between atoms: C_13  and  C_14
REMARK                            x       y       z     vdW  Elec       q    Type
REMARK                         _______ _______ _______ _____ _____    ______ ____
ROOT
ATOM      1  C   UNL     1       5.367   5.330  17.394  0.00  0.00    +0.000 A 
ATOM      2  N   UNL     1       6.070   6.256  18.069  0.00  0.00    +0.000 NA
ATOM      3  C   UNL     1       7.143   6.783  17.466  0.00  0.00    +0.000 A 
ATOM      4  N   UNL     1       7.590   6.447  16.248  0.00  0.00    +0.000 NA
ATOM      5  C   UNL     1       6.898   5.515  15.583  0.00  0.00    +0.000 A 
ATOM      6  C   UNL     1       7.331   5.154  14.310  0.00  0.00    +0.000 A 
ATOM      7  C   UNL     1       6.657   4.209  13.532  0.00  0.00    +0.000 A 
ATOM      8  C   UNL     1       5.506   3.615  14.020  0.00  0.00    +0.000 A 
ATOM      9  C   UNL     1       5.049   3.962  15.292  0.00  0.00    +0.000 A 
ATOM     10  C   UNL     1       5.746   4.905  16.101  0.00  0.00    +0.000 A 
ENDROOT
BRANCH   1  11
ATOM     11  N   UNL     1       4.275   4.715  18.056  0.00  0.00    +0.000 N 
ATOM     12  H   UNL     1       4.148   3.774  17.709  0.00  0.00    +0.000 HD
BRANCH  11  13
ATOM     13  C   UNL     1       3.020   5.466  17.937  0.00  0.00    +0.000 C 
BRANCH  13  14
ATOM     14  C   UNL     1       1.835   4.495  18.000  0.00  0.00    +0.000 C 
BRANCH  14  15
ATOM     15  C   UNL     1       2.301   3.039  17.899  0.00  0.00    +0.000 C 
BRANCH  15  16
ATOM     16  C   UNL     1       2.181   2.309  19.239  0.00  0.00    +0.000 C 
BRANCH  16  17
ATOM     17  C   UNL     1       1.018   2.853  20.074  0.00  0.00    +0.000 C 
BRANCH  17  18
ATOM     18  C   UNL     1       1.488   3.274  21.466  0.00  0.00    +0.000 C 
BRANCH  18  19
ATOM     19  N   UNL     1       2.705   2.560  21.832  0.00  0.00    +0.000 NA
ATOM     20  H   UNL     1       3.259   2.384  20.994  0.00  0.00    +0.000 HD
ATOM     21  H   UNL     1       2.467   1.644  22.213  0.00  0.00    +0.000 HD
ENDBRANCH  18  19
ENDBRANCH  17  18
ENDBRANCH  16  17
ENDBRANCH  15  16
ENDBRANCH  14  15
ENDBRANCH  13  14
ENDBRANCH  11  13
ENDBRANCH   1  11
BRANCH   3  22
ATOM     22  C   UNL     1       7.875   7.854  18.150  0.00  0.00    +0.000 C 
ATOM     23  C   UNL     1       7.973   9.118  17.691  0.00  0.00    +0.000 C 
BRANCH  23  24
ATOM     24  C   UNL     1       8.715  10.204  18.351  0.00  0.00    +0.000 A 
ATOM     25  C   UNL     1       9.515   9.992  19.483  0.00  0.00    +0.000 A 
ATOM     26  C   UNL     1      10.222  11.050  20.065  0.00  0.00    +0.000 A 
ATOM     27  C   UNL     1      10.144  12.324  19.513  0.00  0.00    +0.000 A 
ATOM     28 CL   UNL     1      11.007  13.626  20.235  0.00  0.00    +0.000 Cl
ATOM     29  C   UNL     1       9.373  12.549  18.376  0.00  0.00    +0.000 A 
ATOM     30  C   UNL     1       8.666  11.490  17.794  0.00  0.00    +0.000 A 
ENDBRANCH  23  24
ENDBRANCH   3  22
TORSDOF 10
ENDMDL
MODEL 6
REMARK VINA RESULT:      -8.0      1.363      1.650
REMARK  Name = 
REMARK  10 active torsions:
REMARK  status: ('A' for Active; 'I' for Inactive)
REMARK    1  A    between atoms: N_1  and  C_2
REMARK    2  A    between atoms: C_2  and  C_3
REMARK    3  A    between atoms: C_3  and  C_4
REMARK    4  A    between atoms: C_4  and  C_5
REMARK    5  A    between atoms: C_5  and  C_6
REMARK    6  A    between atoms: C_6  and  C_7
REMARK    7  A    between atoms: C_7  and  N_8
REMARK    8  A    between atoms: N_8  and  C_9
REMARK    9  A    between atoms: C_11  and  C_12
REMARK   10  A    between atoms: C_13  and  C_14
REMARK                            x       y       z     vdW  Elec       q    Type
REMARK                         _______ _______ _______ _____ _____    ______ ____
ROOT
ATOM      1  C   UNL     1       5.348   5.724  17.794  0.00  0.00    +0.000 A 
ATOM      2  N   UNL     1       6.178   6.625  18.348  0.00  0.00    +0.000 NA
ATOM      3  C   UNL     1       7.283   6.953  17.666  0.00  0.00    +0.000 A 
ATOM      4  N   UNL     1       7.644   6.439  16.482  0.00  0.00    +0.000 NA
ATOM      5  C   UNL     1       6.824   5.531  15.940  0.00  0.00    +0.000 A 
ATOM      6  C   UNL     1       7.168   4.988  14.704  0.00  0.00    +0.000 A 
ATOM      7  C   UNL     1       6.361   4.054  14.049  0.00  0.00    +0.000 A 
ATOM      8  C   UNL     1       5.166   3.656  14.626  0.00  0.00    +0.000 A 
ATOM      9  C   UNL     1       4.798   4.189  15.862  0.00  0.00    +0.000 A 
ATOM     10  C   UNL     1       5.629   5.122  16.548  0.00  0.00    +0.000 A 
ENDROOT
BRANCH   1  11
ATOM     11  N   UNL     1       4.216   5.318  18.544  0.00  0.00    +0.000 N 
ATOM     12  H   UNL     1       3.913   4.401  18.242  0.00  0.00    +0.000 HD
BRANCH  11  13
ATOM     13  C   UNL     1       3.097   6.263  18.473  0.00  0.00    +0.000 C 
BRANCH  13  14
ATOM     14  C   UNL     1       2.423   6.364  19.847  0.00  0.00    +0.000 C 
BRANCH  14  15
ATOM     15  C   UNL     1       2.362   4.998  20.539  0.00  0.00    +0.000 C 
BRANCH  15  16
ATOM     16  C   UNL     1       1.146   4.185  20.089  0.00  0.00    +0.000 C 
BRANCH  16  17
ATOM     17  C   UNL     1       1.440   2.682  20.093  0.00  0.00    +0.000 C 
BRANCH  17  18
ATOM     18  C   UNL     1       1.775   2.182  18.688  0.00  0.00    +0.000 C 
BRANCH  18  19
ATOM     19  N   UNL     1       1.595   3.248  17.710  0.00  0.00    +0.000 NA
ATOM     20  H   UNL     1       0.654   3.632  17.797  0.00  0.00    +0.000 HD
ATOM     21  H   UNL     1       1.661   2.866  16.767  0.00  0.00    +0.000 HD
ENDBRANCH  18  19
ENDBRANCH  17  18
ENDBRANCH  16  17
ENDBRANCH  15  16
ENDBRANCH  14  15
ENDBRANCH  13  14
ENDBRANCH  11  13
ENDBRANCH   1  11
BRANCH   3  22
ATOM     22  C   UNL     1       8.159   7.994  18.212  0.00  0.00    +0.000 C 
ATOM     23  C   UNL     1       8.085   9.299  17.877  0.00  0.00    +0.000 C 
BRANCH  23  24
ATOM     24  C   UNL     1       8.963  10.358  18.400  0.00  0.00    +0.000 A 
ATOM     25  C   UNL     1       9.399  11.434  17.614  0.00  0.00    +0.000 A 
ATOM     26  C   UNL     1      10.215  12.432  18.159  0.00  0.00    +0.000 A 
ATOM     27  C   UNL     1      10.591  12.366  19.497  0.00  0.00    +0.000 A 
ATOM     28 CL   UNL     1      11.602  13.589  20.164  0.00  0.00    +0.000 Cl
ATOM     29  C   UNL     1      10.149  11.318  20.299  0.00  0.00    +0.000 A 
ATOM     30  C   UNL     1       9.333  10.321  19.752  0.00  0.00    +0.000 A 
ENDBRANCH  23  24
ENDBRANCH   3  22
TORSDOF 10
ENDMDL
MODEL 7
REMARK VINA RESULT:      -8.0      1.385      1.893
REMARK  Name = 
REMARK  10 active torsions:
REMARK  status: ('A' for Active; 'I' for Inactive)
REMARK    1  A    between atoms: N_1  and  C_2
REMARK    2  A    between atoms: C_2  and  C_3
REMARK    3  A    between atoms: C_3  and  C_4
REMARK    4  A    between atoms: C_4  and  C_5
REMARK    5  A    between atoms: C_5  and  C_6
REMARK    6  A    between atoms: C_6  and  C_7
REMARK    7  A    between atoms: C_7  and  N_8
REMARK    8  A    between atoms: N_8  and  C_9
REMARK    9  A    between atoms: C_11  and  C_12
REMARK   10  A    between atoms: C_13  and  C_14
REMARK                            x       y       z     vdW  Elec       q    Type
REMARK                         _______ _______ _______ _____ _____    ______ ____
ROOT
ATOM      1  C   UNL     1       5.158   6.467  17.365  0.00  0.00    +0.000 A 
ATOM      2  N   UNL     1       6.028   7.329  17.920  0.00  0.00    +0.000 NA
ATOM      3  C   UNL     1       7.278   7.347  17.439  0.00  0.00    +0.000 A 
ATOM      4  N   UNL     1       7.743   6.558  16.461  0.00  0.00    +0.000 NA
ATOM      5  C   UNL     1       6.880   5.690  15.920  0.00  0.00    +0.000 A 
ATOM      6  C   UNL     1       7.331   4.864  14.893  0.00  0.00    +0.000 A 
ATOM      7  C   UNL     1       6.496   3.947  14.251  0.00  0.00    +0.000 A 
ATOM      8  C   UNL     1       5.166   3.854  14.623  0.00  0.00    +0.000 A 
ATOM      9  C   UNL     1       4.688   4.673  15.647  0.00  0.00    +0.000 A 
ATOM     10  C   UNL     1       5.541   5.592  16.324  0.00  0.00    +0.000 A 
ENDROOT
BRANCH   1  11
ATOM     11  N   UNL     1       3.856   6.392  17.919  0.00  0.00    +0.000 N 
ATOM     12  H   UNL     1       3.475   7.322  18.030  0.00  0.00    +0.000 HD
BRANCH  11  13
ATOM     13  C   UNL     1       3.805   5.674  19.197  0.00  0.00    +0.000 C 
BRANCH  13  14
ATOM     14  C   UNL     1       2.415   5.053  19.379  0.00  0.00    +0.000 C 
BRANCH  14  15
ATOM     15  C   UNL     1       1.888   4.468  18.064  0.00  0.00    +0.000 C 
BRANCH  15  16
ATOM     16  C   UNL     1       1.503   2.994  18.210  0.00  0.00    +0.000 C 
BRANCH  16  17
ATOM     17  C   UNL     1       2.319   2.305  19.307  0.00  0.00    +0.000 C 
BRANCH  17  18
ATOM     18  C   UNL     1       3.618   1.727  18.747  0.00  0.00    +0.000 C 
BRANCH  18  19
ATOM     19  N   UNL     1       4.761   2.192  19.523  0.00  0.00    +0.000 NA
ATOM     20  H   UNL     1       4.663   3.191  19.704  0.00  0.00    +0.000 HD
ATOM     21  H   UNL     1       5.616   2.085  18.977  0.00  0.00    +0.000 HD
ENDBRANCH  18  19
ENDBRANCH  17  18
ENDBRANCH  16  17
ENDBRANCH  15  16
ENDBRANCH  14  15
ENDBRANCH  13  14
ENDBRANCH  11  13
ENDBRANCH   1  11
BRANCH   3  22
ATOM     22  C   UNL     1       8.219   8.337  17.972  0.00  0.00    +0.000 C 
ATOM     23  C   UNL     1       8.023   9.670  17.927  0.00  0.00    +0.000 C 
BRANCH  23  24
ATOM     24  C   UNL     1       8.961  10.682  18.441  0.00  0.00    +0.000 A 
ATOM     25  C   UNL     1       9.658  10.521  19.647  0.00  0.00    +0.000 A 
ATOM     26  C   UNL     1      10.558  11.499  20.086  0.00  0.00    +0.000 A 
ATOM     27  C   UNL     1      10.776  12.638  19.317  0.00  0.00    +0.000 A 
ATOM     28 CL   UNL     1      11.876  13.843  19.863  0.00  0.00    +0.000 Cl
ATOM     29  C   UNL     1      10.110  12.803  18.107  0.00  0.00    +0.000 A 
ATOM     30  C   UNL     1       9.210  11.825  17.668  0.00  0.00    +0.000 A 
ENDBRANCH  23  24
ENDBRANCH   3  22
TORSDOF 10
ENDMDL
MODEL 8
REMARK VINA RESULT:      -8.0      1.771      2.234
REMARK  Name = 
REMARK  10 active torsions:
REMARK  status: ('A' for Active; 'I' for Inactive)
REMARK    1  A    between atoms: N_1  and  C_2
REMARK    2  A    between atoms: C_2  and  C_3
REMARK    3  A    between atoms: C_3  and  C_4
REMARK    4  A    between atoms: C_4  and  C_5
REMARK    5  A    between atoms: C_5  and  C_6
REMARK    6  A    between atoms: C_6  and  C_7
REMARK    7  A    between atoms: C_7  and  N_8
REMARK    8  A    between atoms: N_8  and  C_9
REMARK    9  A    between atoms: C_11  and  C_12
REMARK   10  A    between atoms: C_13  and  C_14
REMARK                            x       y       z     vdW  Elec       q    Type
REMARK                         _______ _______ _______ _____ _____    ______ ____
ROOT
ATOM      1  C   UNL     1       6.244   4.760  17.988  0.00  0.00    +0.000 A 
ATOM      2  N   UNL     1       6.879   5.795  18.565  0.00  0.00    +0.000 NA
ATOM      3  C   UNL     1       7.532   6.649  17.766  0.00  0.00    +0.000 A 
ATOM      4  N   UNL     1       7.625   6.544  16.433  0.00  0.00    +0.000 NA
ATOM      5  C   UNL     1       7.006   5.504  15.861  0.00  0.00    +0.000 A 
ATOM      6  C   UNL     1       7.075   5.376  14.476  0.00  0.00    +0.000 A 
ATOM      7  C   UNL     1       6.438   4.339  13.790  0.00  0.00    +0.000 A 
ATOM      8  C   UNL     1       5.693   3.408  14.493  0.00  0.00    +0.000 A 
ATOM      9  C   UNL     1       5.605   3.517  15.882  0.00  0.00    +0.000 A 
ATOM     10  C   UNL     1       6.273   4.557  16.590  0.00  0.00    +0.000 A 
ENDROOT
BRANCH   1  11
ATOM     11  N   UNL     1       5.615   3.814  18.834  0.00  0.00    +0.000 N 
ATOM     12  H   UNL     1       5.432   2.962  18.322  0.00  0.00    +0.000 HD
BRANCH  11  13
ATOM     13  C   UNL     1       4.376   4.307  19.444  0.00  0.00    +0.000 C 
BRANCH  13  14
ATOM     14  C   UNL     1       3.201   4.058  18.491  0.00  0.00    +0.000 C 
BRANCH  14  15
ATOM     15  C   UNL     1       2.159   5.177  18.585  0.00  0.00    +0.000 C 
BRANCH  15  16
ATOM     16  C   UNL     1       2.801   6.526  18.919  0.00  0.00    +0.000 C 
BRANCH  16  17
ATOM     17  C   UNL     1       2.508   7.571  17.838  0.00  0.00    +0.000 C 
BRANCH  17  18
ATOM     18  C   UNL     1       2.002   8.875  18.454  0.00  0.00    +0.000 C 
BRANCH  18  19
ATOM     19  N   UNL     1       1.458   8.634  19.785  0.00  0.00    +0.000 NA
ATOM     20  H   UNL     1       1.806   9.346  20.427  0.00  0.00    +0.000 HD
ATOM     21  H   UNL     1       1.798   7.740  20.139  0.00  0.00    +0.000 HD
ENDBRANCH  18  19
ENDBRANCH  17  18
ENDBRANCH  16  17
ENDBRANCH  15  16
ENDBRANCH  14  15
ENDBRANCH  13  14
ENDBRANCH  11  13
ENDBRANCH   1  11
BRANCH   3  22
ATOM     22  C   UNL     1       8.160   7.829  18.366  0.00  0.00    +0.000 C 
ATOM     23  C   UNL     1       8.120   9.065  17.827  0.00  0.00    +0.000 C 
BRANCH  23  24
ATOM     24  C   UNL     1       8.757  10.261  18.403  0.00  0.00    +0.000 A 
ATOM     25  C   UNL     1       8.697  11.519  17.788  0.00  0.00    +0.000 A 
ATOM     26  C   UNL     1       9.297  12.634  18.384  0.00  0.00    +0.000 A 
ATOM     27  C   UNL     1       9.951  12.501  19.605  0.00  0.00    +0.000 A 
ATOM     28 CL   UNL     1      10.696  13.871  20.331  0.00  0.00    +0.000 Cl
ATOM     29  C   UNL     1      10.001  11.265  20.242  0.00  0.00    +0.000 A 
ATOM     30  C   UNL     1       9.400  10.150  19.645  0.00  0.00    +0.000 A 
ENDBRANCH  23  24
ENDBRANCH   3  22
TORSDOF 10
ENDMDL
MODEL 9
REMARK VINA RESULT:      -7.9      1.042      1.131
REMARK  Name = 
REMARK  10 active torsions:
REMARK  status: ('A' for Active; 'I' for Inactive)
REMARK    1  A    between atoms: N_1  and  C_2
REMARK    2  A    between atoms: C_2  and  C_3
REMARK    3  A    between atoms: C_3  and  C_4
REMARK    4  A    between atoms: C_4  and  C_5
REMARK    5  A    between atoms: C_5  and  C_6
REMARK    6  A    between atoms: C_6  and  C_7
REMARK    7  A    between atoms: C_7  and  N_8
REMARK    8  A    between atoms: N_8  and  C_9
REMARK    9  A    between atoms: C_11  and  C_12
REMARK   10  A    between atoms: C_13  and  C_14
REMARK                            x       y       z     vdW  Elec       q    Type
REMARK                         _______ _______ _______ _____ _____    ______ ____
ROOT
ATOM      1  C   UNL     1       5.249   5.887  17.481  0.00  0.00    +0.000 A 
ATOM      2  N   UNL     1       6.071   6.784  18.055  0.00  0.00    +0.000 NA
ATOM      3  C   UNL     1       7.227   7.054  17.434  0.00  0.00    +0.000 A 
ATOM      4  N   UNL     1       7.645   6.486  16.295  0.00  0.00    +0.000 NA
ATOM      5  C   UNL     1       6.832   5.583  15.733  0.00  0.00    +0.000 A 
ATOM      6  C   UNL     1       7.235   4.985  14.541  0.00  0.00    +0.000 A 
ATOM      7  C   UNL     1       6.442   4.051  13.870  0.00  0.00    +0.000 A 
ATOM      8  C   UNL     1       5.202   3.710  14.383  0.00  0.00    +0.000 A 
ATOM      9  C   UNL     1       4.774   4.299  15.573  0.00  0.00    +0.000 A 
ATOM     10  C   UNL     1       5.589   5.232  16.277  0.00  0.00    +0.000 A 
ENDROOT
BRANCH   1  11
ATOM     11  N   UNL     1       4.060   5.542  18.172  0.00  0.00    +0.000 N 
ATOM     12  H   UNL     1       3.481   6.363  18.292  0.00  0.00    +0.000 HD
BRANCH  11  13
ATOM     13  C   UNL     1       4.301   4.906  19.471  0.00  0.00    +0.000 C 
BRANCH  13  14
ATOM     14  C   UNL     1       4.833   3.484  19.253  0.00  0.00    +0.000 C 
BRANCH  14  15
ATOM     15  C   UNL     1       3.743   2.437  19.505  0.00  0.00    +0.000 C 
BRANCH  15  16
ATOM     16  C   UNL     1       2.913   2.166  18.248  0.00  0.00    +0.000 C 
BRANCH  16  17
ATOM     17  C   UNL     1       1.470   2.653  18.411  0.00  0.00    +0.000 C 
BRANCH  17  18
ATOM     18  C   UNL     1       1.050   2.649  19.881  0.00  0.00    +0.000 C 
BRANCH  18  19
ATOM     19  N   UNL     1       0.725   4.000  20.323  0.00  0.00    +0.000 NA
ATOM     20  H   UNL     1       1.585   4.536  20.434  0.00  0.00    +0.000 HD
ATOM     21  H   UNL     1       0.289   3.966  21.244  0.00  0.00    +0.000 HD
ENDBRANCH  18  19
ENDBRANCH  17  18
ENDBRANCH  16  17
ENDBRANCH  15  16
ENDBRANCH  14  15
ENDBRANCH  13  14
ENDBRANCH  11  13
ENDBRANCH   1  11
BRANCH   3  22
ATOM     22  C   UNL     1       8.099   8.089  17.998  0.00  0.00    +0.000 C 
ATOM     23  C   UNL     1       7.915   9.413  17.822  0.00  0.00    +0.000 C 
BRANCH  23  24
ATOM     24  C   UNL     1       8.786  10.468  18.364  0.00  0.00    +0.000 A 
ATOM     25  C   UNL     1       8.967  11.702  17.723  0.00  0.00    +0.000 A 
ATOM     26  C   UNL     1       9.787  12.686  18.288  0.00  0.00    +0.000 A 
ATOM     27  C   UNL     1      10.422  12.447  19.503  0.00  0.00    +0.000 A 
ATOM     28 CL   UNL     1      11.436  13.655  20.191  0.00  0.00    +0.000 Cl
ATOM     29  C   UNL     1      10.235  11.238  20.165  0.00  0.00    +0.000 A 
ATOM     30  C   UNL     1       9.415  10.254  19.600  0.00  0.00    +0.000 A 
ENDBRANCH  23  24
ENDBRANCH   3  22
TORSDOF 10
ENDMDL
