MODEL 1
REMARK VINA RESULT:      -6.9      0.000      0.000
REMARK  Name = 
REMARK  4 active torsions:
REMARK  status: ('A' for Active; 'I' for Inactive)
REMARK    1  A    between atoms: C_1  and  C_2
REMARK    2  A    between atoms: C_2  and  C_3
REMARK    3  A    between atoms: C_3  and  C_4
REMARK    4  A    between atoms: C_10  and  N_11
REMARK                            x       y       z     vdW  Elec       q    Type
REMARK                         _______ _______ _______ _____ _____    ______ ____
ROOT
ATOM      1  C   UNL     1       0.043  12.126  19.317  0.00  0.00    +0.000 C 
ATOM      2  C   UNL     1       0.587  10.758  19.580  0.00  0.00    +0.000 A 
ATOM      3  C   UNL     1       0.119  10.298  20.814  0.00  0.00    +0.000 A 
ATOM      4  N   UNL     1       0.408   9.075  21.287  0.00  0.00    +0.000 NA
ATOM      5  C   UNL     1       1.176   8.270  20.485  0.00  0.00    +0.000 A 
ATOM      6  C   UNL     1       1.677   8.673  19.240  0.00  0.00    +0.000 A 
ATOM      7  C   UNL     1       1.422   9.985  18.805  0.00  0.00    +0.000 A 
ATOM      8  C   UNL     1       2.498   7.768  18.369  0.00  0.00    +0.000 C 
ATOM      9  C   UNL     1       2.733   6.338  18.814  0.00  0.00    +0.000 C 
ATOM     10  C   UNL     1       2.366   5.968  20.239  0.00  0.00    +0.000 C 
ATOM     11  C   UNL     1       1.417   6.884  21.011  0.00  0.00    +0.000 C 
ATOM     12  N   UNL     1      -0.668  11.321  21.393  0.00  0.00    +0.000 N 
ATOM     13  C   UNL     1      -1.355  11.312  22.594  0.00  0.00    +0.000 A 
ATOM     14  O   UNL     1      -1.423  10.378  23.386  0.00  0.00    +0.000 OA
ATOM     15  C   UNL     1      -2.079  12.584  22.923  0.00  0.00    +0.000 A 
ATOM     16  C   UNL     1      -2.845  12.681  24.096  0.00  0.00    +0.000 A 
ATOM     17  C   UNL     1      -3.529  13.868  24.406  0.00  0.00    +0.000 A 
ATOM     18  C   UNL     1      -3.456  14.965  23.549  0.00  0.00    +0.000 A 
ATOM     19  C   UNL     1      -2.694  14.880  22.388  0.00  0.00    +0.000 A 
ATOM     20  C   UNL     1      -2.003  13.697  22.088  0.00  0.00    +0.000 A 
ATOM     21  C   UNL     1      -1.224  13.647  20.848  0.00  0.00    +0.000 A 
ATOM     22  O   UNL     1      -1.104  14.643  20.138  0.00  0.00    +0.000 OA
ATOM     23  N   UNL     1      -0.693  12.435  20.536  0.00  0.00    +0.000 N 
ENDROOT
BRANCH   7  24
ATOM     24  N   UNL     1       1.800  10.423  17.526  0.00  0.00    +0.000 N 
ATOM     25  H   UNL     1       2.793  10.549  17.383  0.00  0.00    +0.000 HD
ATOM     26  H   UNL     1       1.276  11.220  17.176  0.00  0.00    +0.000 HD
ENDBRANCH   7  24
BRANCH   1  27
ATOM     27  C   UNL     1      -0.852  12.227  18.068  0.00  0.00    +0.000 C 
BRANCH  27  29
ATOM     28  C   UNL     1      -1.971  10.182  17.126  0.00  0.00    +0.000 C 
ATOM     29  C   UNL     1      -2.098  11.333  18.108  0.00  0.00    +0.000 C 
ENDBRANCH  27  29
ENDBRANCH   1  27
TORSDOF 3
ENDMDL
MODEL 2
REMARK VINA RESULT:      -6.8      3.871      9.319
REMARK  Name = 
REMARK  4 active torsions:
REMARK  status: ('A' for Active; 'I' for Inactive)
REMARK    1  A    between atoms: C_1  and  C_2
REMARK    2  A    between atoms: C_2  and  C_3
REMARK    3  A    between atoms: C_3  and  C_4
REMARK    4  A    between atoms: C_10  and  N_11
REMARK                            x       y       z     vdW  Elec       q    Type
REMARK                         _______ _______ _______ _____ _____    ______ ____
ROOT
ATOM      1  C   UNL     1       2.852   5.990  19.925  0.00  0.00    +0.000 C 
ATOM      2  C   UNL     1       2.246   7.346  19.744  0.00  0.00    +0.000 A 
ATOM      3  C   UNL     1       2.612   7.857  18.496  0.00  0.00    +0.000 A 
ATOM      4  N   UNL     1       2.170   9.042  18.043  0.00  0.00    +0.000 NA
ATOM      5  C   UNL     1       1.311   9.732  18.859  0.00  0.00    +0.000 A 
ATOM      6  C   UNL     1       0.909   9.274  20.121  0.00  0.00    +0.000 A 
ATOM      7  C   UNL     1       1.447   8.067  20.601  0.00  0.00    +0.000 A 
ATOM      8  C   UNL     1      -0.050  10.036  20.988  0.00  0.00    +0.000 C 
ATOM      9  C   UNL     1      -0.668  11.311  20.452  0.00  0.00    +0.000 C 
ATOM     10  C   UNL     1      -0.085  11.905  19.183  0.00  0.00    +0.000 C 
ATOM     11  C   UNL     1       0.778  11.016  18.290  0.00  0.00    +0.000 C 
ATOM     12  N   UNL     1       3.467   6.920  17.871  0.00  0.00    +0.000 N 
ATOM     13  C   UNL     1       4.057   6.982  16.621  0.00  0.00    +0.000 A 
ATOM     14  O   UNL     1       3.920   7.881  15.797  0.00  0.00    +0.000 OA
ATOM     15  C   UNL     1       4.936   5.819  16.272  0.00  0.00    +0.000 A 
ATOM     16  C   UNL     1       5.556   5.750  15.014  0.00  0.00    +0.000 A 
ATOM     17  C   UNL     1       6.377   4.660  14.681  0.00  0.00    +0.000 A 
ATOM     18  C   UNL     1       6.583   3.631  15.598  0.00  0.00    +0.000 A 
ATOM     19  C   UNL     1       5.978   3.693  16.849  0.00  0.00    +0.000 A 
ATOM     20  C   UNL     1       5.169   4.790  17.182  0.00  0.00    +0.000 A 
ATOM     21  C   UNL     1       4.541   4.808  18.505  0.00  0.00    +0.000 A 
ATOM     22  O   UNL     1       4.790   3.935  19.334  0.00  0.00    +0.000 OA
ATOM     23  N   UNL     1       3.657   5.818  18.722  0.00  0.00    +0.000 N 
ENDROOT
BRANCH   7  24
ATOM     24  N   UNL     1       1.010   7.494  21.806  0.00  0.00    +0.000 N 
ATOM     25  H   UNL     1       1.734   7.288  22.480  0.00  0.00    +0.000 HD
ATOM     26  H   UNL     1       0.374   6.708  21.699  0.00  0.00    +0.000 HD
ENDBRANCH   7  24
BRANCH   1  27
ATOM     27  C   UNL     1       1.829   4.852  20.095  0.00  0.00    +0.000 C 
BRANCH  27  29
ATOM     28  C   UNL     1       1.624   2.570  21.133  0.00  0.00    +0.000 C 
ATOM     29  C   UNL     1       2.014   4.019  21.370  0.00  0.00    +0.000 C 
ENDBRANCH  27  29
ENDBRANCH   1  27
TORSDOF 3
ENDMDL
MODEL 3
REMARK VINA RESULT:      -6.8      8.186     10.134
REMARK  Name = 
REMARK  4 active torsions:
REMARK  status: ('A' for Active; 'I' for Inactive)
REMARK    1  A    between atoms: C_1  and  C_2
REMARK    2  A    between atoms: C_2  and  C_3
REMARK    3  A    between atoms: C_3  and  C_4
REMARK    4  A    between atoms: C_10  and  N_11
REMARK                            x       y       z     vdW  Elec       q    Type
REMARK                         _______ _______ _______ _____ _____    ______ ____
ROOT
ATOM      1  C   UNL     1       6.035   5.468  17.267  0.00  0.00    +0.000 C 
ATOM      2  C   UNL     1       6.066   4.878  15.893  0.00  0.00    +0.000 A 
ATOM      3  C   UNL     1       4.934   4.081  15.702  0.00  0.00    +0.000 A 
ATOM      4  N   UNL     1       4.673   3.463  14.539  0.00  0.00    +0.000 NA
ATOM      5  C   UNL     1       5.566   3.668  13.518  0.00  0.00    +0.000 A 
ATOM      6  C   UNL     1       6.720   4.453  13.647  0.00  0.00    +0.000 A 
ATOM      7  C   UNL     1       7.006   5.026  14.899  0.00  0.00    +0.000 A 
ATOM      8  C   UNL     1       7.672   4.681  12.510  0.00  0.00    +0.000 C 
ATOM      9  C   UNL     1       7.339   4.105  11.149  0.00  0.00    +0.000 C 
ATOM     10  C   UNL     1       6.208   3.098  11.060  0.00  0.00    +0.000 C 
ATOM     11  C   UNL     1       5.205   3.023  12.210  0.00  0.00    +0.000 C 
ATOM     12  N   UNL     1       4.188   4.084  16.903  0.00  0.00    +0.000 N 
ATOM     13  C   UNL     1       2.985   3.458  17.179  0.00  0.00    +0.000 A 
ATOM     14  O   UNL     1       2.320   2.785  16.398  0.00  0.00    +0.000 OA
ATOM     15  C   UNL     1       2.473   3.648  18.576  0.00  0.00    +0.000 A 
ATOM     16  C   UNL     1       1.241   3.094  18.961  0.00  0.00    +0.000 A 
ATOM     17  C   UNL     1       0.755   3.274  20.267  0.00  0.00    +0.000 A 
ATOM     18  C   UNL     1       1.492   4.007  21.195  0.00  0.00    +0.000 A 
ATOM     19  C   UNL     1       2.717   4.554  20.824  0.00  0.00    +0.000 A 
ATOM     20  C   UNL     1       3.204   4.362  19.523  0.00  0.00    +0.000 A 
ATOM     21  C   UNL     1       4.490   4.967  19.171  0.00  0.00    +0.000 A 
ATOM     22  O   UNL     1       5.168   5.546  20.018  0.00  0.00    +0.000 OA
ATOM     23  N   UNL     1       4.847   4.871  17.862  0.00  0.00    +0.000 N 
ENDROOT
BRANCH   7  24
ATOM     24  N   UNL     1       8.084   5.909  15.074  0.00  0.00    +0.000 N 
ATOM     25  H   UNL     1       8.836   5.570  15.658  0.00  0.00    +0.000 HD
ATOM     26  H   UNL     1       7.820   6.857  15.330  0.00  0.00    +0.000 HD
ENDBRANCH   7  24
BRANCH   1  27
ATOM     27  C   UNL     1       5.978   7.007  17.299  0.00  0.00    +0.000 C 
BRANCH  27  29
ATOM     28  C   UNL     1       8.098   6.790  18.634  0.00  0.00    +0.000 C 
ATOM     29  C   UNL     1       7.297   7.680  17.700  0.00  0.00    +0.000 C 
ENDBRANCH  27  29
ENDBRANCH   1  27
TORSDOF 3
ENDMDL
MODEL 4
REMARK VINA RESULT:      -6.8      6.980      9.797
REMARK  Name = 
REMARK  4 active torsions:
REMARK  status: ('A' for Active; 'I' for Inactive)
REMARK    1  A    between atoms: C_1  and  C_2
REMARK    2  A    between atoms: C_2  and  C_3
REMARK    3  A    between atoms: C_3  and  C_4
REMARK    4  A    between atoms: C_10  and  N_11
REMARK                            x       y       z     vdW  Elec       q    Type
REMARK                         _______ _______ _______ _____ _____    ______ ____
ROOT
ATOM      1  C   UNL     1       5.570   5.626  17.743  0.00  0.00    +0.000 C 
ATOM      2  C   UNL     1       5.861   5.114  16.367  0.00  0.00    +0.000 A 
ATOM      3  C   UNL     1       4.909   4.153  16.016  0.00  0.00    +0.000 A 
ATOM      4  N   UNL     1       4.894   3.557  14.813  0.00  0.00    +0.000 NA
ATOM      5  C   UNL     1       5.855   3.952  13.917  0.00  0.00    +0.000 A 
ATOM      6  C   UNL     1       6.837   4.908  14.210  0.00  0.00    +0.000 A 
ATOM      7  C   UNL     1       6.874   5.460  15.502  0.00  0.00    +0.000 A 
ATOM      8  C   UNL     1       7.865   5.343  13.207  0.00  0.00    +0.000 C 
ATOM      9  C   UNL     1       7.796   4.785  11.799  0.00  0.00    +0.000 C 
ATOM     10  C   UNL     1       6.868   3.613  11.543  0.00  0.00    +0.000 C 
ATOM     11  C   UNL     1       5.763   3.320  12.557  0.00  0.00    +0.000 C 
ATOM     12  N   UNL     1       4.037   3.977  17.115  0.00  0.00    +0.000 N 
ATOM     13  C   UNL     1       2.932   3.152  17.222  0.00  0.00    +0.000 A 
ATOM     14  O   UNL     1       2.485   2.417  16.347  0.00  0.00    +0.000 OA
ATOM     15  C   UNL     1       2.234   3.189  18.549  0.00  0.00    +0.000 A 
ATOM     16  C   UNL     1       1.076   2.424  18.763  0.00  0.00    +0.000 A 
ATOM     17  C   UNL     1       0.416   2.460  20.003  0.00  0.00    +0.000 A 
ATOM     18  C   UNL     1       0.905   3.259  21.036  0.00  0.00    +0.000 A 
ATOM     19  C   UNL     1       2.056   4.015  20.835  0.00  0.00    +0.000 A 
ATOM     20  C   UNL     1       2.718   3.967  19.599  0.00  0.00    +0.000 A 
ATOM     21  C   UNL     1       3.918   4.789  19.426  0.00  0.00    +0.000 A 
ATOM     22  O   UNL     1       4.384   5.430  20.366  0.00  0.00    +0.000 OA
ATOM     23  N   UNL     1       4.437   4.815  18.169  0.00  0.00    +0.000 N 
ENDROOT
BRANCH   7  24
ATOM     24  N   UNL     1       7.760   6.497  15.834  0.00  0.00    +0.000 N 
ATOM     25  H   UNL     1       8.595   6.217  16.330  0.00  0.00    +0.000 HD
ATOM     26  H   UNL     1       7.326   7.304  16.274  0.00  0.00    +0.000 HD
ENDBRANCH   7  24
BRANCH   1  27
ATOM     27  C   UNL     1       5.253   7.131  17.809  0.00  0.00    +0.000 C 
BRANCH  27  29
ATOM     28  C   UNL     1       2.883   7.960  17.950  0.00  0.00    +0.000 C 
ATOM     29  C   UNL     1       4.010   7.552  17.016  0.00  0.00    +0.000 C 
ENDBRANCH  27  29
ENDBRANCH   1  27
TORSDOF 3
ENDMDL
MODEL 5
REMARK VINA RESULT:      -6.7      1.551      2.518
REMARK  Name = 
REMARK  4 active torsions:
REMARK  status: ('A' for Active; 'I' for Inactive)
REMARK    1  A    between atoms: C_1  and  C_2
REMARK    2  A    between atoms: C_2  and  C_3
REMARK    3  A    between atoms: C_3  and  C_4
REMARK    4  A    between atoms: C_10  and  N_11
REMARK                            x       y       z     vdW  Elec       q    Type
REMARK                         _______ _______ _______ _____ _____    ______ ____
ROOT
ATOM      1  C   UNL     1       1.609   9.807  18.909  0.00  0.00    +0.000 C 
ATOM      2  C   UNL     1       1.875   8.396  19.332  0.00  0.00    +0.000 A 
ATOM      3  C   UNL     1       1.218   8.140  20.539  0.00  0.00    +0.000 A 
ATOM      4  N   UNL     1       1.239   6.935  21.131  0.00  0.00    +0.000 NA
ATOM      5  C   UNL     1       1.925   5.941  20.481  0.00  0.00    +0.000 A 
ATOM      6  C   UNL     1       2.605   6.135  19.271  0.00  0.00    +0.000 A 
ATOM      7  C   UNL     1       2.629   7.426  18.713  0.00  0.00    +0.000 A 
ATOM      8  C   UNL     1       3.331   5.027  18.566  0.00  0.00    +0.000 C 
ATOM      9  C   UNL     1       3.265   3.626  19.141  0.00  0.00    +0.000 C 
ATOM     10  C   UNL     1       2.705   3.458  20.541  0.00  0.00    +0.000 C 
ATOM     11  C   UNL     1       1.866   4.589  21.133  0.00  0.00    +0.000 C 
ATOM     12  N   UNL     1       0.574   9.330  20.949  0.00  0.00    +0.000 N 
ATOM     13  C   UNL     1      -0.214   9.550  22.065  0.00  0.00    +0.000 A 
ATOM     14  O   UNL     1      -0.521   8.718  22.913  0.00  0.00    +0.000 OA
ATOM     15  C   UNL     1      -0.729  10.950  22.217  0.00  0.00    +0.000 A 
ATOM     16  C   UNL     1      -1.572  11.284  23.288  0.00  0.00    +0.000 A 
ATOM     17  C   UNL     1      -2.061  12.593  23.431  0.00  0.00    +0.000 A 
ATOM     18  C   UNL     1      -1.714  13.577  22.507  0.00  0.00    +0.000 A 
ATOM     19  C   UNL     1      -0.873  13.257  21.445  0.00  0.00    +0.000 A 
ATOM     20  C   UNL     1      -0.378  11.951  21.313  0.00  0.00    +0.000 A 
ATOM     21  C   UNL     1       0.493  11.655  20.173  0.00  0.00    +0.000 A 
ATOM     22  O   UNL     1       0.855  12.546  19.408  0.00  0.00    +0.000 OA
ATOM     23  N   UNL     1       0.828  10.347  20.013  0.00  0.00    +0.000 N 
ENDROOT
BRANCH   7  24
ATOM     24  N   UNL     1       3.198   7.672  17.454  0.00  0.00    +0.000 N 
ATOM     25  H   UNL     1       4.058   7.178  17.259  0.00  0.00    +0.000 HD
ATOM     26  H   UNL     1       3.275   8.655  17.206  0.00  0.00    +0.000 HD
ENDBRANCH   7  24
BRANCH   1  27
ATOM     27  C   UNL     1       0.869   9.940  17.566  0.00  0.00    +0.000 C 
BRANCH  27  29
ATOM     28  C   UNL     1      -1.594  10.435  17.444  0.00  0.00    +0.000 C 
ATOM     29  C   UNL     1      -0.544   9.343  17.560  0.00  0.00    +0.000 C 
ENDBRANCH  27  29
ENDBRANCH   1  27
TORSDOF 3
ENDMDL
MODEL 6
REMARK VINA RESULT:      -6.7      1.905      6.733
REMARK  Name = 
REMARK  4 active torsions:
REMARK  status: ('A' for Active; 'I' for Inactive)
REMARK    1  A    between atoms: C_1  and  C_2
REMARK    2  A    between atoms: C_2  and  C_3
REMARK    3  A    between atoms: C_3  and  C_4
REMARK    4  A    between atoms: C_10  and  N_11
REMARK                            x       y       z     vdW  Elec       q    Type
REMARK                         _______ _______ _______ _____ _____    ______ ____
ROOT
ATOM      1  C   UNL     1       0.598  11.632  18.737  0.00  0.00    +0.000 C 
ATOM      2  C   UNL     1      -0.376  12.033  19.799  0.00  0.00    +0.000 A 
ATOM      3  C   UNL     1      -0.485  11.008  20.743  0.00  0.00    +0.000 A 
ATOM      4  N   UNL     1      -1.255  11.114  21.838  0.00  0.00    +0.000 NA
ATOM      5  C   UNL     1      -1.923  12.299  22.010  0.00  0.00    +0.000 A 
ATOM      6  C   UNL     1      -1.856  13.363  21.099  0.00  0.00    +0.000 A 
ATOM      7  C   UNL     1      -1.103  13.195  19.924  0.00  0.00    +0.000 A 
ATOM      8  C   UNL     1      -2.579  14.660  21.318  0.00  0.00    +0.000 C 
ATOM      9  C   UNL     1      -3.351  14.860  22.607  0.00  0.00    +0.000 C 
ATOM     10  C   UNL     1      -3.587  13.648  23.490  0.00  0.00    +0.000 C 
ATOM     11  C   UNL     1      -2.714  12.411  23.282  0.00  0.00    +0.000 C 
ATOM     12  N   UNL     1       0.335   9.936  20.323  0.00  0.00    +0.000 N 
ATOM     13  C   UNL     1       0.565   8.723  20.948  0.00  0.00    +0.000 A 
ATOM     14  O   UNL     1       0.099   8.359  22.022  0.00  0.00    +0.000 OA
ATOM     15  C   UNL     1       1.482   7.791  20.213  0.00  0.00    +0.000 A 
ATOM     16  C   UNL     1       1.822   6.547  20.769  0.00  0.00    +0.000 A 
ATOM     17  C   UNL     1       2.685   5.673  20.086  0.00  0.00    +0.000 A 
ATOM     18  C   UNL     1       3.215   6.033  18.849  0.00  0.00    +0.000 A 
ATOM     19  C   UNL     1       2.878   7.261  18.288  0.00  0.00    +0.000 A 
ATOM     20  C   UNL     1       2.007   8.126  18.967  0.00  0.00    +0.000 A 
ATOM     21  C   UNL     1       1.690   9.415  18.346  0.00  0.00    +0.000 A 
ATOM     22  O   UNL     1       2.101   9.691  17.221  0.00  0.00    +0.000 OA
ATOM     23  N   UNL     1       0.958  10.271  19.109  0.00  0.00    +0.000 N 
ENDROOT
BRANCH   7  24
ATOM     24  N   UNL     1      -0.904  14.251  19.021  0.00  0.00    +0.000 N 
ATOM     25  H   UNL     1      -1.163  15.168  19.357  0.00  0.00    +0.000 HD
ATOM     26  H   UNL     1      -1.270  14.088  18.086  0.00  0.00    +0.000 HD
ENDBRANCH   7  24
BRANCH   1  27
ATOM     27  C   UNL     1       1.836  12.542  18.630  0.00  0.00    +0.000 C 
BRANCH  27  29
ATOM     28  C   UNL     1       2.730  14.546  19.858  0.00  0.00    +0.000 C 
ATOM     29  C   UNL     1       2.342  13.082  19.974  0.00  0.00    +0.000 C 
ENDBRANCH  27  29
ENDBRANCH   1  27
TORSDOF 3
ENDMDL
MODEL 7
REMARK VINA RESULT:      -6.5      3.601      5.639
REMARK  Name = 
REMARK  4 active torsions:
REMARK  status: ('A' for Active; 'I' for Inactive)
REMARK    1  A    between atoms: C_1  and  C_2
REMARK    2  A    between atoms: C_2  and  C_3
REMARK    3  A    between atoms: C_3  and  C_4
REMARK    4  A    between atoms: C_10  and  N_11
REMARK                            x       y       z     vdW  Elec       q    Type
REMARK                         _______ _______ _______ _____ _____    ______ ____
ROOT
ATOM      1  C   UNL     1      -6.333  13.716  19.896  0.00  0.00    +0.000 C 
ATOM      2  C   UNL     1      -5.239  12.918  19.261  0.00  0.00    +0.000 A 
ATOM      3  C   UNL     1      -4.073  13.037  20.022  0.00  0.00    +0.000 A 
ATOM      4  N   UNL     1      -2.940  12.385  19.714  0.00  0.00    +0.000 NA
ATOM      5  C   UNL     1      -2.980  11.563  18.617  0.00  0.00    +0.000 A 
ATOM      6  C   UNL     1      -4.117  11.402  17.814  0.00  0.00    +0.000 A 
ATOM      7  C   UNL     1      -5.265  12.156  18.115  0.00  0.00    +0.000 A 
ATOM      8  C   UNL     1      -4.146  10.480  16.630  0.00  0.00    +0.000 C 
ATOM      9  C   UNL     1      -2.926   9.631  16.333  0.00  0.00    +0.000 C 
ATOM     10  C   UNL     1      -1.640   9.950  17.073  0.00  0.00    +0.000 C 
ATOM     11  C   UNL     1      -1.720  10.792  18.346  0.00  0.00    +0.000 C 
ATOM     12  N   UNL     1      -4.339  13.914  21.098  0.00  0.00    +0.000 N 
ATOM     13  C   UNL     1      -3.497  14.311  22.122  0.00  0.00    +0.000 A 
ATOM     14  O   UNL     1      -2.339  13.946  22.294  0.00  0.00    +0.000 OA
ATOM     15  C   UNL     1      -4.095  15.280  23.099  0.00  0.00    +0.000 A 
ATOM     16  C   UNL     1      -3.350  15.724  24.203  0.00  0.00    +0.000 A 
ATOM     17  C   UNL     1      -3.907  16.627  25.123  0.00  0.00    +0.000 A 
ATOM     18  C   UNL     1      -5.210  17.092  24.950  0.00  0.00    +0.000 A 
ATOM     19  C   UNL     1      -5.953  16.663  23.855  0.00  0.00    +0.000 A 
ATOM     20  C   UNL     1      -5.389  15.770  22.932  0.00  0.00    +0.000 A 
ATOM     21  C   UNL     1      -6.211  15.334  21.801  0.00  0.00    +0.000 A 
ATOM     22  O   UNL     1      -7.330  15.808  21.615  0.00  0.00    +0.000 OA
ATOM     23  N   UNL     1      -5.668  14.363  21.019  0.00  0.00    +0.000 N 
ENDROOT
BRANCH   7  24
ATOM     24  N   UNL     1      -6.471  11.969  17.421  0.00  0.00    +0.000 N 
ATOM     25  H   UNL     1      -6.692  12.674  16.731  0.00  0.00    +0.000 HD
ATOM     26  H   UNL     1      -7.275  11.767  18.009  0.00  0.00    +0.000 HD
ENDBRANCH   7  24
BRANCH   1  27
ATOM     27  C   UNL     1      -7.547  12.886  20.351  0.00  0.00    +0.000 C 
BRANCH  27  29
ATOM     28  C   UNL     1      -7.684  10.414  20.795  0.00  0.00    +0.000 C 
ATOM     29  C   UNL     1      -7.209  11.754  21.330  0.00  0.00    +0.000 C 
ENDBRANCH  27  29
ENDBRANCH   1  27
TORSDOF 3
ENDMDL
MODEL 8
REMARK VINA RESULT:      -6.3      8.080     11.015
REMARK  Name = 
REMARK  4 active torsions:
REMARK  status: ('A' for Active; 'I' for Inactive)
REMARK    1  A    between atoms: C_1  and  C_2
REMARK    2  A    between atoms: C_2  and  C_3
REMARK    3  A    between atoms: C_3  and  C_4
REMARK    4  A    between atoms: C_10  and  N_11
REMARK                            x       y       z     vdW  Elec       q    Type
REMARK                         _______ _______ _______ _____ _____    ______ ____
ROOT
ATOM      1  C   UNL     1       7.660  15.445  21.398  0.00  0.00    +0.000 C 
ATOM      2  C   UNL     1       6.478  15.776  20.543  0.00  0.00    +0.000 A 
ATOM      3  C   UNL     1       6.574  15.090  19.329  0.00  0.00    +0.000 A 
ATOM      4  N   UNL     1       5.623  15.159  18.383  0.00  0.00    +0.000 NA
ATOM      5  C   UNL     1       4.522  15.924  18.671  0.00  0.00    +0.000 A 
ATOM      6  C   UNL     1       4.368  16.637  19.868  0.00  0.00    +0.000 A 
ATOM      7  C   UNL     1       5.413  16.607  20.807  0.00  0.00    +0.000 A 
ATOM      8  C   UNL     1       3.145  17.452  20.170  0.00  0.00    +0.000 C 
ATOM      9  C   UNL     1       1.997  17.446  19.180  0.00  0.00    +0.000 C 
ATOM     10  C   UNL     1       2.244  16.844  17.809  0.00  0.00    +0.000 C 
ATOM     11  C   UNL     1       3.446  15.919  17.623  0.00  0.00    +0.000 C 
ATOM     12  N   UNL     1       7.786  14.363  19.331  0.00  0.00    +0.000 N 
ATOM     13  C   UNL     1       8.295  13.522  18.357  0.00  0.00    +0.000 A 
ATOM     14  O   UNL     1       7.757  13.232  17.293  0.00  0.00    +0.000 OA
ATOM     15  C   UNL     1       9.634  12.922  18.668  0.00  0.00    +0.000 A 
ATOM     16  C   UNL     1      10.233  12.020  17.774  0.00  0.00    +0.000 A 
ATOM     17  C   UNL     1      11.484  11.452  18.064  0.00  0.00    +0.000 A 
ATOM     18  C   UNL     1      12.145  11.776  19.248  0.00  0.00    +0.000 A 
ATOM     19  C   UNL     1      11.562  12.674  20.137  0.00  0.00    +0.000 A 
ATOM     20  C   UNL     1      10.318  13.248  19.838  0.00  0.00    +0.000 A 
ATOM     21  C   UNL     1       9.735  14.177  20.809  0.00  0.00    +0.000 A 
ATOM     22  O   UNL     1      10.360  14.515  21.812  0.00  0.00    +0.000 OA
ATOM     23  N   UNL     1       8.469  14.593  20.537  0.00  0.00    +0.000 N 
ENDROOT
BRANCH   7  24
ATOM     24  N   UNL     1       5.285  17.208  22.070  0.00  0.00    +0.000 N 
ATOM     25  H   UNL     1       6.079  17.104  22.686  0.00  0.00    +0.000 HD
ATOM     26  H   UNL     1       4.416  17.001  22.554  0.00  0.00    +0.000 HD
ENDBRANCH   7  24
BRANCH   1  27
ATOM     27  C   UNL     1       7.311  14.749  22.727  0.00  0.00    +0.000 C 
BRANCH  27  29
ATOM     28  C   UNL     1       7.339  12.247  22.979  0.00  0.00    +0.000 C 
ATOM     29  C   UNL     1       6.508  13.451  22.570  0.00  0.00    +0.000 C 
ENDBRANCH  27  29
ENDBRANCH   1  27
TORSDOF 3
ENDMDL
MODEL 9
REMARK VINA RESULT:      -6.2      3.043      4.548
REMARK  Name = 
REMARK  4 active torsions:
REMARK  status: ('A' for Active; 'I' for Inactive)
REMARK    1  A    between atoms: C_1  and  C_2
REMARK    2  A    between atoms: C_2  and  C_3
REMARK    3  A    between atoms: C_3  and  C_4
REMARK    4  A    between atoms: C_10  and  N_11
REMARK                            x       y       z     vdW  Elec       q    Type
REMARK                         _______ _______ _______ _____ _____    ______ ____
ROOT
ATOM      1  C   UNL     1      -1.061  12.327  21.203  0.00  0.00    +0.000 C 
ATOM      2  C   UNL     1      -1.790  11.864  19.982  0.00  0.00    +0.000 A 
ATOM      3  C   UNL     1      -3.026  12.513  19.902  0.00  0.00    +0.000 A 
ATOM      4  N   UNL     1      -3.875  12.327  18.878  0.00  0.00    +0.000 NA
ATOM      5  C   UNL     1      -3.463  11.478  17.883  0.00  0.00    +0.000 A 
ATOM      6  C   UNL     1      -2.238  10.797  17.906  0.00  0.00    +0.000 A 
ATOM      7  C   UNL     1      -1.404  10.951  19.026  0.00  0.00    +0.000 A 
ATOM      8  C   UNL     1      -1.799   9.888  16.795  0.00  0.00    +0.000 C 
ATOM      9  C   UNL     1      -2.675   9.759  15.565  0.00  0.00    +0.000 C 
ATOM     10  C   UNL     1      -4.079  10.331  15.628  0.00  0.00    +0.000 C 
ATOM     11  C   UNL     1      -4.403  11.351  16.718  0.00  0.00    +0.000 C 
ATOM     12  N   UNL     1      -3.159  13.343  21.039  0.00  0.00    +0.000 N 
ATOM     13  C   UNL     1      -4.199  14.190  21.376  0.00  0.00    +0.000 A 
ATOM     14  O   UNL     1      -5.214  14.394  20.718  0.00  0.00    +0.000 OA
ATOM     15  C   UNL     1      -4.033  14.917  22.678  0.00  0.00    +0.000 A 
ATOM     16  C   UNL     1      -5.005  15.836  23.107  0.00  0.00    +0.000 A 
ATOM     17  C   UNL     1      -4.850  16.522  24.323  0.00  0.00    +0.000 A 
ATOM     18  C   UNL     1      -3.727  16.299  25.117  0.00  0.00    +0.000 A 
ATOM     19  C   UNL     1      -2.762  15.386  24.703  0.00  0.00    +0.000 A 
ATOM     20  C   UNL     1      -2.926  14.694  23.494  0.00  0.00    +0.000 A 
ATOM     21  C   UNL     1      -1.879  13.752  23.091  0.00  0.00    +0.000 A 
ATOM     22  O   UNL     1      -0.931  13.506  23.833  0.00  0.00    +0.000 OA
ATOM     23  N   UNL     1      -2.017  13.216  21.848  0.00  0.00    +0.000 N 
ENDROOT
BRANCH   7  24
ATOM     24  N   UNL     1      -0.119  10.387  19.071  0.00  0.00    +0.000 N 
ATOM     25  H   UNL     1       0.118   9.909  19.929  0.00  0.00    +0.000 HD
ATOM     26  H   UNL     1       0.630  11.008  18.778  0.00  0.00    +0.000 HD
ENDBRANCH   7  24
BRANCH   1  27
ATOM     27  C   UNL     1       0.276  13.036  20.917  0.00  0.00    +0.000 C 
BRANCH  27  29
ATOM     28  C   UNL     1       1.102  13.885  18.698  0.00  0.00    +0.000 C 
ATOM     29  C   UNL     1       0.185  14.162  19.878  0.00  0.00    +0.000 C 
ENDBRANCH  27  29
ENDBRANCH   1  27
TORSDOF 3
ENDMDL
