MODEL 1
REMARK VINA RESULT:      -7.6      0.000      0.000
REMARK  Name = 
REMARK  4 active torsions:
REMARK  status: ('A' for Active; 'I' for Inactive)
REMARK    1  A    between atoms: C_1  and  C_2
REMARK    2  A    between atoms: C_2  and  O_4
REMARK    3  A    between atoms: O_4  and  C_5
REMARK    4  A    between atoms: C_11  and  C_12
REMARK                            x       y       z     vdW  Elec       q    Type
REMARK                         _______ _______ _______ _____ _____    ______ ____
ROOT
ATOM      1  C   UNL     1       7.059   4.547  17.160  0.00  0.00    +0.000 A 
ATOM      2  C   UNL     1       7.388   4.752  15.810  0.00  0.00    +0.000 A 
ATOM      3  C   UNL     1       6.423   4.639  14.809  0.00  0.00    +0.000 A 
ATOM      4  C   UNL     1       5.093   4.336  15.115  0.00  0.00    +0.000 A 
ATOM      5  C   UNL     1       4.779   4.180  16.465  0.00  0.00    +0.000 A 
ATOM      6  N   UNL     1       3.607   3.864  17.102  0.00  0.00    +0.000 N 
ATOM      7  C   UNL     1       3.836   3.872  18.452  0.00  0.00    +0.000 A 
ATOM      8  N   UNL     1       5.099   4.141  18.724  0.00  0.00    +0.000 NA
ATOM      9  C   UNL     1       5.712   4.305  17.496  0.00  0.00    +0.000 A 
ATOM     10  H   UNL     1       2.719   3.650  16.677  0.00  0.00    +0.000 HD
ENDROOT
BRANCH   7  11
ATOM     11  C   UNL     1       2.767   3.572  19.443  0.00  0.00    +0.000 A 
ATOM     12  C   UNL     1       3.001   2.886  20.616  0.00  0.00    +0.000 A 
ATOM     13  S   UNL     1       1.530   2.685  21.471  0.00  0.00    +0.000 S 
ATOM     14  C   UNL     1       0.710   3.522  20.216  0.00  0.00    +0.000 A 
ATOM     15  N   UNL     1       1.454   3.961  19.223  0.00  0.00    +0.000 NA
ENDBRANCH   7  11
BRANCH   1  16
ATOM     16  O   UNL     1       8.041   4.617  18.176  0.00  0.00    +0.000 OA
BRANCH  16  18
ATOM     17  C   UNL     1       8.019   6.960  18.506  0.00  0.00    +0.000 C 
ATOM     18  C   UNL     1       7.928   5.611  19.146  0.00  0.00    +0.000 C 
ATOM     19  O   UNL     1       7.767   5.453  20.354  0.00  0.00    +0.000 OA
ENDBRANCH  16  18
ENDBRANCH   1  16
TORSDOF 3
ENDMDL
MODEL 2
REMARK VINA RESULT:      -7.1      1.353      1.445
REMARK  Name = 
REMARK  4 active torsions:
REMARK  status: ('A' for Active; 'I' for Inactive)
REMARK    1  A    between atoms: C_1  and  C_2
REMARK    2  A    between atoms: C_2  and  O_4
REMARK    3  A    between atoms: O_4  and  C_5
REMARK    4  A    between atoms: C_11  and  C_12
REMARK                            x       y       z     vdW  Elec       q    Type
REMARK                         _______ _______ _______ _____ _____    ______ ____
ROOT
ATOM      1  C   UNL     1       6.348   6.063  16.444  0.00  0.00    +0.000 A 
ATOM      2  C   UNL     1       6.965   5.628  15.260  0.00  0.00    +0.000 A 
ATOM      3  C   UNL     1       6.731   4.349  14.755  0.00  0.00    +0.000 A 
ATOM      4  C   UNL     1       5.861   3.464  15.398  0.00  0.00    +0.000 A 
ATOM      5  C   UNL     1       5.225   3.932  16.547  0.00  0.00    +0.000 A 
ATOM      6  N   UNL     1       4.349   3.336  17.417  0.00  0.00    +0.000 N 
ATOM      7  C   UNL     1       3.997   4.254  18.370  0.00  0.00    +0.000 A 
ATOM      8  N   UNL     1       4.622   5.401  18.186  0.00  0.00    +0.000 NA
ATOM      9  C   UNL     1       5.418   5.211  17.072  0.00  0.00    +0.000 A 
ATOM     10  H   UNL     1       4.013   2.386  17.391  0.00  0.00    +0.000 HD
ENDROOT
BRANCH   7  11
ATOM     11  C   UNL     1       3.051   3.934  19.474  0.00  0.00    +0.000 A 
ATOM     12  C   UNL     1       3.221   2.860  20.321  0.00  0.00    +0.000 A 
ATOM     13  S   UNL     1       1.912   2.781  21.424  0.00  0.00    +0.000 S 
ATOM     14  C   UNL     1       1.232   4.174  20.685  0.00  0.00    +0.000 A 
ATOM     15  N   UNL     1       1.921   4.707  19.697  0.00  0.00    +0.000 NA
ENDBRANCH   7  11
BRANCH   1  16
ATOM     16  O   UNL     1       6.614   7.343  16.985  0.00  0.00    +0.000 OA
BRANCH  16  18
ATOM     17  C   UNL     1       8.161   8.883  17.900  0.00  0.00    +0.000 C 
ATOM     18  C   UNL     1       7.653   7.476  17.905  0.00  0.00    +0.000 C 
ATOM     19  O   UNL     1       8.110   6.602  18.639  0.00  0.00    +0.000 OA
ENDBRANCH  16  18
ENDBRANCH   1  16
TORSDOF 3
ENDMDL
MODEL 3
REMARK VINA RESULT:      -6.8      1.979      3.350
REMARK  Name = 
REMARK  4 active torsions:
REMARK  status: ('A' for Active; 'I' for Inactive)
REMARK    1  A    between atoms: C_1  and  C_2
REMARK    2  A    between atoms: C_2  and  O_4
REMARK    3  A    between atoms: O_4  and  C_5
REMARK    4  A    between atoms: C_11  and  C_12
REMARK                            x       y       z     vdW  Elec       q    Type
REMARK                         _______ _______ _______ _____ _____    ______ ____
ROOT
ATOM      1  C   UNL     1       6.425   5.933  16.736  0.00  0.00    +0.000 A 
ATOM      2  C   UNL     1       7.635   6.482  17.191  0.00  0.00    +0.000 A 
ATOM      3  C   UNL     1       7.971   6.457  18.545  0.00  0.00    +0.000 A 
ATOM      4  C   UNL     1       7.127   5.870  19.491  0.00  0.00    +0.000 A 
ATOM      5  C   UNL     1       5.951   5.293  19.012  0.00  0.00    +0.000 A 
ATOM      6  N   UNL     1       4.912   4.668  19.650  0.00  0.00    +0.000 N 
ATOM      7  C   UNL     1       4.015   4.250  18.703  0.00  0.00    +0.000 A 
ATOM      8  N   UNL     1       4.399   4.599  17.491  0.00  0.00    +0.000 NA
ATOM      9  C   UNL     1       5.590   5.279  17.665  0.00  0.00    +0.000 A 
ATOM     10  H   UNL     1       4.796   4.533  20.643  0.00  0.00    +0.000 HD
ENDROOT
BRANCH   7  11
ATOM     11  C   UNL     1       2.763   3.527  19.056  0.00  0.00    +0.000 A 
ATOM     12  C   UNL     1       2.038   2.791  18.144  0.00  0.00    +0.000 A 
ATOM     13  S   UNL     1       0.638   2.153  18.898  0.00  0.00    +0.000 S 
ATOM     14  C   UNL     1       1.110   2.906  20.367  0.00  0.00    +0.000 A 
ATOM     15  N   UNL     1       2.244   3.575  20.342  0.00  0.00    +0.000 NA
ENDBRANCH   7  11
BRANCH   1  16
ATOM     16  O   UNL     1       6.057   5.992  15.372  0.00  0.00    +0.000 OA
BRANCH  16  18
ATOM     17  C   UNL     1       5.958   3.977  14.135  0.00  0.00    +0.000 C 
ATOM     18  C   UNL     1       6.752   5.203  14.457  0.00  0.00    +0.000 C 
ATOM     19  O   UNL     1       7.849   5.441  13.956  0.00  0.00    +0.000 OA
ENDBRANCH  16  18
ENDBRANCH   1  16
TORSDOF 3
ENDMDL
MODEL 4
REMARK VINA RESULT:      -6.7      3.615      4.866
REMARK  Name = 
REMARK  4 active torsions:
REMARK  status: ('A' for Active; 'I' for Inactive)
REMARK    1  A    between atoms: C_1  and  C_2
REMARK    2  A    between atoms: C_2  and  O_4
REMARK    3  A    between atoms: O_4  and  C_5
REMARK    4  A    between atoms: C_11  and  C_12
REMARK                            x       y       z     vdW  Elec       q    Type
REMARK                         _______ _______ _______ _____ _____    ______ ____
ROOT
ATOM      1  C   UNL     1       4.275   4.293  19.164  0.00  0.00    +0.000 A 
ATOM      2  C   UNL     1       4.209   2.952  19.575  0.00  0.00    +0.000 A 
ATOM      3  C   UNL     1       3.275   2.535  20.524  0.00  0.00    +0.000 A 
ATOM      4  C   UNL     1       2.361   3.432  21.084  0.00  0.00    +0.000 A 
ATOM      5  C   UNL     1       2.414   4.749  20.629  0.00  0.00    +0.000 A 
ATOM      6  N   UNL     1       1.699   5.867  20.973  0.00  0.00    +0.000 N 
ATOM      7  C   UNL     1       2.127   6.909  20.194  0.00  0.00    +0.000 A 
ATOM      8  N   UNL     1       3.104   6.536  19.389  0.00  0.00    +0.000 NA
ATOM      9  C   UNL     1       3.320   5.200  19.668  0.00  0.00    +0.000 A 
ATOM     10  H   UNL     1       0.982   5.941  21.679  0.00  0.00    +0.000 HD
ENDROOT
BRANCH   7  11
ATOM     11  C   UNL     1       1.553   8.277  20.307  0.00  0.00    +0.000 A 
ATOM     12  C   UNL     1       1.133   8.818  21.504  0.00  0.00    +0.000 A 
ATOM     13  S   UNL     1       0.484  10.381  21.234  0.00  0.00    +0.000 S 
ATOM     14  C   UNL     1       0.814  10.207  19.558  0.00  0.00    +0.000 A 
ATOM     15  N   UNL     1       1.394   9.084  19.190  0.00  0.00    +0.000 NA
ENDBRANCH   7  11
BRANCH   1  16
ATOM     16  O   UNL     1       5.247   4.732  18.235  0.00  0.00    +0.000 OA
BRANCH  16  18
ATOM     17  C   UNL     1       7.524   4.644  17.597  0.00  0.00    +0.000 C 
ATOM     18  C   UNL     1       6.547   4.957  18.685  0.00  0.00    +0.000 C 
ATOM     19  O   UNL     1       6.888   5.361  19.795  0.00  0.00    +0.000 OA
ENDBRANCH  16  18
ENDBRANCH   1  16
TORSDOF 3
ENDMDL
MODEL 5
REMARK VINA RESULT:      -6.6      3.743      5.050
REMARK  Name = 
REMARK  4 active torsions:
REMARK  status: ('A' for Active; 'I' for Inactive)
REMARK    1  A    between atoms: C_1  and  C_2
REMARK    2  A    between atoms: C_2  and  O_4
REMARK    3  A    between atoms: O_4  and  C_5
REMARK    4  A    between atoms: C_11  and  C_12
REMARK                            x       y       z     vdW  Elec       q    Type
REMARK                         _______ _______ _______ _____ _____    ______ ____
ROOT
ATOM      1  C   UNL     1       4.127   4.139  19.235  0.00  0.00    +0.000 A 
ATOM      2  C   UNL     1       4.007   2.880  19.845  0.00  0.00    +0.000 A 
ATOM      3  C   UNL     1       3.071   2.657  20.856  0.00  0.00    +0.000 A 
ATOM      4  C   UNL     1       2.209   3.672  21.282  0.00  0.00    +0.000 A 
ATOM      5  C   UNL     1       2.315   4.901  20.632  0.00  0.00    +0.000 A 
ATOM      6  N   UNL     1       1.658   6.091  20.809  0.00  0.00    +0.000 N 
ATOM      7  C   UNL     1       2.121   6.981  19.877  0.00  0.00    +0.000 A 
ATOM      8  N   UNL     1       3.065   6.444  19.128  0.00  0.00    +0.000 NA
ATOM      9  C   UNL     1       3.224   5.156  19.604  0.00  0.00    +0.000 A 
ATOM     10  H   UNL     1       0.958   6.305  21.503  0.00  0.00    +0.000 HD
ENDROOT
BRANCH   7  11
ATOM     11  C   UNL     1       1.612   8.376  19.787  0.00  0.00    +0.000 A 
ATOM     12  C   UNL     1       1.681   9.128  18.634  0.00  0.00    +0.000 A 
ATOM     13  S   UNL     1       1.050  10.694  18.926  0.00  0.00    +0.000 S 
ATOM     14  C   UNL     1       0.740  10.243  20.553  0.00  0.00    +0.000 A 
ATOM     15  N   UNL     1       1.048   9.007  20.886  0.00  0.00    +0.000 NA
ENDBRANCH   7  11
BRANCH   1  16
ATOM     16  O   UNL     1       5.102   4.385  18.240  0.00  0.00    +0.000 OA
BRANCH  16  18
ATOM     17  C   UNL     1       7.333   4.627  17.488  0.00  0.00    +0.000 C 
ATOM     18  C   UNL     1       6.386   4.753  18.639  0.00  0.00    +0.000 C 
ATOM     19  O   UNL     1       6.734   5.137  19.753  0.00  0.00    +0.000 OA
ENDBRANCH  16  18
ENDBRANCH   1  16
TORSDOF 3
ENDMDL
MODEL 6
REMARK VINA RESULT:      -6.6      1.691      1.909
REMARK  Name = 
REMARK  4 active torsions:
REMARK  status: ('A' for Active; 'I' for Inactive)
REMARK    1  A    between atoms: C_1  and  C_2
REMARK    2  A    between atoms: C_2  and  O_4
REMARK    3  A    between atoms: O_4  and  C_5
REMARK    4  A    between atoms: C_11  and  C_12
REMARK                            x       y       z     vdW  Elec       q    Type
REMARK                         _______ _______ _______ _____ _____    ______ ____
ROOT
ATOM      1  C   UNL     1       6.178   6.056  16.464  0.00  0.00    +0.000 A 
ATOM      2  C   UNL     1       6.808   5.738  15.250  0.00  0.00    +0.000 A 
ATOM      3  C   UNL     1       6.688   4.466  14.688  0.00  0.00    +0.000 A 
ATOM      4  C   UNL     1       5.922   3.472  15.303  0.00  0.00    +0.000 A 
ATOM      5  C   UNL     1       5.269   3.822  16.485  0.00  0.00    +0.000 A 
ATOM      6  N   UNL     1       4.475   3.104  17.340  0.00  0.00    +0.000 N 
ATOM      7  C   UNL     1       4.057   3.938  18.342  0.00  0.00    +0.000 A 
ATOM      8  N   UNL     1       4.563   5.148  18.202  0.00  0.00    +0.000 NA
ATOM      9  C   UNL     1       5.349   5.088  17.066  0.00  0.00    +0.000 A 
ATOM     10  H   UNL     1       4.232   2.127  17.274  0.00  0.00    +0.000 HD
ENDROOT
BRANCH   7  11
ATOM     11  C   UNL     1       3.171   3.477  19.445  0.00  0.00    +0.000 A 
ATOM     12  C   UNL     1       1.831   3.795  19.516  0.00  0.00    +0.000 A 
ATOM     13  S   UNL     1       1.155   3.136  20.945  0.00  0.00    +0.000 S 
ATOM     14  C   UNL     1       2.692   2.486  21.349  0.00  0.00    +0.000 A 
ATOM     15  N   UNL     1       3.663   2.702  20.486  0.00  0.00    +0.000 NA
ENDBRANCH   7  11
BRANCH   1  16
ATOM     16  O   UNL     1       6.330   7.329  17.061  0.00  0.00    +0.000 OA
BRANCH  16  18
ATOM     17  C   UNL     1       7.913   6.485  18.605  0.00  0.00    +0.000 C 
ATOM     18  C   UNL     1       7.526   7.623  17.713  0.00  0.00    +0.000 C 
ATOM     19  O   UNL     1       8.202   8.642  17.598  0.00  0.00    +0.000 OA
ENDBRANCH  16  18
ENDBRANCH   1  16
TORSDOF 3
ENDMDL
MODEL 7
REMARK VINA RESULT:      -6.6      3.738      4.023
REMARK  Name = 
REMARK  4 active torsions:
REMARK  status: ('A' for Active; 'I' for Inactive)
REMARK    1  A    between atoms: C_1  and  C_2
REMARK    2  A    between atoms: C_2  and  O_4
REMARK    3  A    between atoms: O_4  and  C_5
REMARK    4  A    between atoms: C_11  and  C_12
REMARK                            x       y       z     vdW  Elec       q    Type
REMARK                         _______ _______ _______ _____ _____    ______ ____
ROOT
ATOM      1  C   UNL     1       5.618   5.822  16.841  0.00  0.00    +0.000 A 
ATOM      2  C   UNL     1       5.755   4.464  16.510  0.00  0.00    +0.000 A 
ATOM      3  C   UNL     1       4.729   3.555  16.767  0.00  0.00    +0.000 A 
ATOM      4  C   UNL     1       3.524   3.965  17.343  0.00  0.00    +0.000 A 
ATOM      5  C   UNL     1       3.392   5.325  17.623  0.00  0.00    +0.000 A 
ATOM      6  N   UNL     1       2.379   6.049  18.196  0.00  0.00    +0.000 N 
ATOM      7  C   UNL     1       2.745   7.368  18.207  0.00  0.00    +0.000 A 
ATOM      8  N   UNL     1       3.952   7.535  17.703  0.00  0.00    +0.000 NA
ATOM      9  C   UNL     1       4.387   6.268  17.363  0.00  0.00    +0.000 A 
ATOM     10  H   UNL     1       1.508   5.697  18.564  0.00  0.00    +0.000 HD
ENDROOT
BRANCH   7  11
ATOM     11  C   UNL     1       1.866   8.434  18.761  0.00  0.00    +0.000 A 
ATOM     12  C   UNL     1       1.386   9.480  18.003  0.00  0.00    +0.000 A 
ATOM     13  S   UNL     1       0.459  10.531  18.989  0.00  0.00    +0.000 S 
ATOM     14  C   UNL     1       0.774   9.512  20.335  0.00  0.00    +0.000 A 
ATOM     15  N   UNL     1       1.496   8.436  20.097  0.00  0.00    +0.000 NA
ENDBRANCH   7  11
BRANCH   1  16
ATOM     16  O   UNL     1       6.670   6.743  16.623  0.00  0.00    +0.000 OA
BRANCH  16  18
ATOM     17  C   UNL     1       7.855   8.521  17.640  0.00  0.00    +0.000 C 
ATOM     18  C   UNL     1       7.505   7.067  17.691  0.00  0.00    +0.000 C 
ATOM     19  O   UNL     1       7.912   6.312  18.571  0.00  0.00    +0.000 OA
ENDBRANCH  16  18
ENDBRANCH   1  16
TORSDOF 3
ENDMDL
MODEL 8
REMARK VINA RESULT:      -6.5      3.769      4.588
REMARK  Name = 
REMARK  4 active torsions:
REMARK  status: ('A' for Active; 'I' for Inactive)
REMARK    1  A    between atoms: C_1  and  C_2
REMARK    2  A    between atoms: C_2  and  O_4
REMARK    3  A    between atoms: O_4  and  C_5
REMARK    4  A    between atoms: C_11  and  C_12
REMARK                            x       y       z     vdW  Elec       q    Type
REMARK                         _______ _______ _______ _____ _____    ______ ____
ROOT
ATOM      1  C   UNL     1       3.713   3.978  18.040  0.00  0.00    +0.000 A 
ATOM      2  C   UNL     1       4.673   3.712  17.051  0.00  0.00    +0.000 A 
ATOM      3  C   UNL     1       5.215   4.741  16.279  0.00  0.00    +0.000 A 
ATOM      4  C   UNL     1       4.837   6.072  16.477  0.00  0.00    +0.000 A 
ATOM      5  C   UNL     1       3.916   6.318  17.495  0.00  0.00    +0.000 A 
ATOM      6  N   UNL     1       3.324   7.474  17.934  0.00  0.00    +0.000 N 
ATOM      7  C   UNL     1       2.515   7.167  18.995  0.00  0.00    +0.000 A 
ATOM      8  N   UNL     1       2.523   5.872  19.246  0.00  0.00    +0.000 NA
ATOM      9  C   UNL     1       3.367   5.320  18.300  0.00  0.00    +0.000 A 
ATOM     10  H   UNL     1       3.438   8.402  17.556  0.00  0.00    +0.000 HD
ENDROOT
BRANCH   7  11
ATOM     11  C   UNL     1       1.720   8.198  19.716  0.00  0.00    +0.000 A 
ATOM     12  C   UNL     1       1.348   8.071  21.037  0.00  0.00    +0.000 A 
ATOM     13  S   UNL     1       0.402   9.422  21.504  0.00  0.00    +0.000 S 
ATOM     14  C   UNL     1       0.565  10.058  19.917  0.00  0.00    +0.000 A 
ATOM     15  N   UNL     1       1.292   9.352  19.076  0.00  0.00    +0.000 NA
ENDBRANCH   7  11
BRANCH   1  16
ATOM     16  O   UNL     1       3.127   2.937  18.797  0.00  0.00    +0.000 OA
BRANCH  16  18
ATOM     17  C   UNL     1       2.695   2.754  21.116  0.00  0.00    +0.000 C 
ATOM     18  C   UNL     1       3.701   2.595  20.020  0.00  0.00    +0.000 C 
ATOM     19  O   UNL     1       4.850   2.208  20.218  0.00  0.00    +0.000 OA
ENDBRANCH  16  18
ENDBRANCH   1  16
TORSDOF 3
ENDMDL
MODEL 9
REMARK VINA RESULT:      -6.5      3.424      5.897
REMARK  Name = 
REMARK  4 active torsions:
REMARK  status: ('A' for Active; 'I' for Inactive)
REMARK    1  A    between atoms: C_1  and  C_2
REMARK    2  A    between atoms: C_2  and  O_4
REMARK    3  A    between atoms: O_4  and  C_5
REMARK    4  A    between atoms: C_11  and  C_12
REMARK                            x       y       z     vdW  Elec       q    Type
REMARK                         _______ _______ _______ _____ _____    ______ ____
ROOT
ATOM      1  C   UNL     1       2.057   4.984  19.993  0.00  0.00    +0.000 A 
ATOM      2  C   UNL     1       0.976   4.192  20.412  0.00  0.00    +0.000 A 
ATOM      3  C   UNL     1       0.625   3.031  19.723  0.00  0.00    +0.000 A 
ATOM      4  C   UNL     1       1.347   2.606  18.604  0.00  0.00    +0.000 A 
ATOM      5  C   UNL     1       2.444   3.383  18.232  0.00  0.00    +0.000 A 
ATOM      6  N   UNL     1       3.335   3.273  17.197  0.00  0.00    +0.000 N 
ATOM      7  C   UNL     1       4.250   4.286  17.307  0.00  0.00    +0.000 A 
ATOM      8  N   UNL     1       3.981   5.066  18.336  0.00  0.00    +0.000 NA
ATOM      9  C   UNL     1       2.838   4.539  18.908  0.00  0.00    +0.000 A 
ATOM     10  H   UNL     1       3.337   2.583  16.462  0.00  0.00    +0.000 HD
ENDROOT
BRANCH   7  11
ATOM     11  C   UNL     1       5.367   4.459  16.339  0.00  0.00    +0.000 A 
ATOM     12  C   UNL     1       5.199   4.368  14.974  0.00  0.00    +0.000 A 
ATOM     13  S   UNL     1       6.711   4.569  14.191  0.00  0.00    +0.000 S 
ATOM     14  C   UNL     1       7.457   4.758  15.726  0.00  0.00    +0.000 A 
ATOM     15  N   UNL     1       6.661   4.709  16.773  0.00  0.00    +0.000 NA
ENDBRANCH   7  11
BRANCH   1  16
ATOM     16  O   UNL     1       2.393   6.185  20.661  0.00  0.00    +0.000 OA
BRANCH  16  18
ATOM     17  C   UNL     1       1.098   8.099  21.172  0.00  0.00    +0.000 C 
ATOM     18  C   UNL     1       1.923   7.391  20.144  0.00  0.00    +0.000 C 
ATOM     19  O   UNL     1       2.135   7.849  19.024  0.00  0.00    +0.000 OA
ENDBRANCH  16  18
ENDBRANCH   1  16
TORSDOF 3
ENDMDL
