MODEL 1
REMARK VINA RESULT:      -8.6      0.000      0.000
REMARK  Name = 
REMARK  5 active torsions:
REMARK  status: ('A' for Active; 'I' for Inactive)
REMARK    1  A    between atoms: C_1  and  N_2
REMARK    2  A    between atoms: C_6  and  C_7
REMARK    3  A    between atoms: N_9  and  C_10
REMARK    4  A    between atoms: C_10  and  C_11
REMARK    5  A    between atoms: C_19  and  C_20
REMARK                            x       y       z     vdW  Elec       q    Type
REMARK                         _______ _______ _______ _____ _____    ______ ____
ROOT
ATOM      1  C   UNL     1       1.442   2.462  21.980  0.00  0.00    +0.000 C 
ATOM      2  N   UNL     1       1.512   3.478  20.959  0.00  0.00    +0.000 N 
ATOM      3  C   UNL     1       2.668   3.716  20.241  0.00  0.00    +0.000 A 
ATOM      4  N   UNL     1       3.614   2.828  20.077  0.00  0.00    +0.000 NA
ATOM      5  C   UNL     1       4.715   3.189  19.314  0.00  0.00    +0.000 A 
ATOM      6  C   UNL     1       4.898   4.382  18.709  0.00  0.00    +0.000 A 
ATOM      7  C   UNL     1       3.889   5.354  18.880  0.00  0.00    +0.000 A 
ATOM      8  N   UNL     1       3.717   6.591  18.467  0.00  0.00    +0.000 NA
ATOM      9  C   UNL     1       2.543   6.972  19.083  0.00  0.00    +0.000 A 
ATOM     10  N   UNL     1       1.958   6.017  19.830  0.00  0.00    +0.000 NA
ATOM     11  N   UNL     1       2.824   4.989  19.654  0.00  0.00    +0.000 N 
ATOM     12  H   UNL     1       0.931   4.301  21.115  0.00  0.00    +0.000 HD
ENDROOT
BRANCH   9  13
ATOM     13  C   UNL     1       1.999   8.352  18.928  0.00  0.00    +0.000 A 
ATOM     14  C   UNL     1       2.267   9.233  17.897  0.00  0.00    +0.000 A 
ATOM     15  C   UNL     1       1.533  10.415  18.167  0.00  0.00    +0.000 A 
ATOM     16  C   UNL     1       0.868  10.189  19.347  0.00  0.00    +0.000 A 
ATOM     17  O   UNL     1       1.129   8.940  19.808  0.00  0.00    +0.000 OA
ENDBRANCH   9  13
BRANCH   6  18
ATOM     18  C   UNL     1       6.141   4.620  17.914  0.00  0.00    +0.000 C 
ATOM     19  O   UNL     1       7.257   4.419  18.387  0.00  0.00    +0.000 OA
ATOM     20  N   UNL     1       5.939   5.077  16.634  0.00  0.00    +0.000 N 
ATOM     21  H   UNL     1       4.990   5.250  16.309  0.00  0.00    +0.000 HD
BRANCH  20  22
ATOM     22  C   UNL     1       7.019   5.373  15.724  0.00  0.00    +0.000 C 
BRANCH  22  23
ATOM     23  C   UNL     1       6.758   4.780  14.365  0.00  0.00    +0.000 A 
ATOM     24  C   UNL     1       5.684   3.899  14.174  0.00  0.00    +0.000 A 
ATOM     25  C   UNL     1       5.448   3.328  12.923  0.00  0.00    +0.000 A 
ATOM     26  C   UNL     1       6.288   3.625  11.851  0.00  0.00    +0.000 A 
ATOM     27  C   UNL     1       7.362   4.493  12.029  0.00  0.00    +0.000 A 
ATOM     28  C   UNL     1       7.600   5.066  13.280  0.00  0.00    +0.000 A 
ENDBRANCH  22  23
ENDBRANCH  20  22
ENDBRANCH   6  18
TORSDOF 4
ENDMDL
MODEL 2
REMARK VINA RESULT:      -8.4      0.559      1.205
REMARK  Name = 
REMARK  5 active torsions:
REMARK  status: ('A' for Active; 'I' for Inactive)
REMARK    1  A    between atoms: C_1  and  N_2
REMARK    2  A    between atoms: C_6  and  C_7
REMARK    3  A    between atoms: N_9  and  C_10
REMARK    4  A    between atoms: C_10  and  C_11
REMARK    5  A    between atoms: C_19  and  C_20
REMARK                            x       y       z     vdW  Elec       q    Type
REMARK                         _______ _______ _______ _____ _____    ______ ____
ROOT
ATOM      1  C   UNL     1       1.416   2.554  21.909  0.00  0.00    +0.000 C 
ATOM      2  N   UNL     1       1.506   3.549  20.869  0.00  0.00    +0.000 N 
ATOM      3  C   UNL     1       2.673   3.766  20.163  0.00  0.00    +0.000 A 
ATOM      4  N   UNL     1       3.616   2.870  20.029  0.00  0.00    +0.000 NA
ATOM      5  C   UNL     1       4.730   3.210  19.275  0.00  0.00    +0.000 A 
ATOM      6  C   UNL     1       4.927   4.389  18.648  0.00  0.00    +0.000 A 
ATOM      7  C   UNL     1       3.921   5.370  18.787  0.00  0.00    +0.000 A 
ATOM      8  N   UNL     1       3.763   6.600  18.348  0.00  0.00    +0.000 NA
ATOM      9  C   UNL     1       2.583   6.999  18.940  0.00  0.00    +0.000 A 
ATOM     10  N   UNL     1       1.982   6.063  19.698  0.00  0.00    +0.000 NA
ATOM     11  N   UNL     1       2.844   5.027  19.553  0.00  0.00    +0.000 N 
ATOM     12  H   UNL     1       0.928   4.378  21.002  0.00  0.00    +0.000 HD
ENDROOT
BRANCH   9  13
ATOM     13  C   UNL     1       2.049   8.380  18.750  0.00  0.00    +0.000 A 
ATOM     14  C   UNL     1       1.203   9.061  19.605  0.00  0.00    +0.000 A 
ATOM     15  C   UNL     1       0.965  10.330  19.021  0.00  0.00    +0.000 A 
ATOM     16  C   UNL     1       1.673  10.346  17.844  0.00  0.00    +0.000 A 
ATOM     17  O   UNL     1       2.344   9.179  17.677  0.00  0.00    +0.000 OA
ENDBRANCH   9  13
BRANCH   6  18
ATOM     18  C   UNL     1       6.182   4.606  17.866  0.00  0.00    +0.000 C 
ATOM     19  O   UNL     1       7.286   4.339  18.333  0.00  0.00    +0.000 OA
ATOM     20  N   UNL     1       6.004   5.119  16.604  0.00  0.00    +0.000 N 
ATOM     21  H   UNL     1       5.064   5.345  16.284  0.00  0.00    +0.000 HD
BRANCH  20  22
ATOM     22  C   UNL     1       7.099   5.404  15.708  0.00  0.00    +0.000 C 
BRANCH  22  23
ATOM     23  C   UNL     1       6.866   4.784  14.357  0.00  0.00    +0.000 A 
ATOM     24  C   UNL     1       7.709   5.098  13.280  0.00  0.00    +0.000 A 
ATOM     25  C   UNL     1       7.485   4.545  12.019  0.00  0.00    +0.000 A 
ATOM     26  C   UNL     1       6.413   3.678  11.817  0.00  0.00    +0.000 A 
ATOM     27  C   UNL     1       5.564   3.364  12.876  0.00  0.00    +0.000 A 
ATOM     28  C   UNL     1       5.785   3.916  14.139  0.00  0.00    +0.000 A 
ENDBRANCH  22  23
ENDBRANCH  20  22
ENDBRANCH   6  18
TORSDOF 4
ENDMDL
MODEL 3
REMARK VINA RESULT:      -8.3      2.040      7.835
REMARK  Name = 
REMARK  5 active torsions:
REMARK  status: ('A' for Active; 'I' for Inactive)
REMARK    1  A    between atoms: C_1  and  N_2
REMARK    2  A    between atoms: C_6  and  C_7
REMARK    3  A    between atoms: N_9  and  C_10
REMARK    4  A    between atoms: C_10  and  C_11
REMARK    5  A    between atoms: C_19  and  C_20
REMARK                            x       y       z     vdW  Elec       q    Type
REMARK                         _______ _______ _______ _____ _____    ______ ____
ROOT
ATOM      1  C   UNL     1       4.268   1.824  20.564  0.00  0.00    +0.000 C 
ATOM      2  N   UNL     1       4.858   2.756  19.636  0.00  0.00    +0.000 N 
ATOM      3  C   UNL     1       4.262   3.965  19.334  0.00  0.00    +0.000 A 
ATOM      4  N   UNL     1       3.415   4.572  20.124  0.00  0.00    +0.000 NA
ATOM      5  C   UNL     1       2.905   5.794  19.710  0.00  0.00    +0.000 A 
ATOM      6  C   UNL     1       3.216   6.428  18.559  0.00  0.00    +0.000 A 
ATOM      7  C   UNL     1       4.124   5.784  17.692  0.00  0.00    +0.000 A 
ATOM      8  N   UNL     1       4.646   6.074  16.519  0.00  0.00    +0.000 NA
ATOM      9  C   UNL     1       5.392   4.953  16.219  0.00  0.00    +0.000 A 
ATOM     10  N   UNL     1       5.388   3.997  17.166  0.00  0.00    +0.000 NA
ATOM     11  N   UNL     1       4.596   4.571  18.104  0.00  0.00    +0.000 N 
ATOM     12  H   UNL     1       5.388   2.340  18.870  0.00  0.00    +0.000 HD
ENDROOT
BRANCH   9  13
ATOM     13  C   UNL     1       6.123   4.834  14.923  0.00  0.00    +0.000 A 
ATOM     14  C   UNL     1       5.775   4.034  13.851  0.00  0.00    +0.000 A 
ATOM     15  C   UNL     1       6.753   4.246  12.848  0.00  0.00    +0.000 A 
ATOM     16  C   UNL     1       7.641   5.155  13.367  0.00  0.00    +0.000 A 
ATOM     17  O   UNL     1       7.263   5.529  14.615  0.00  0.00    +0.000 OA
ENDBRANCH   9  13
BRANCH   6  18
ATOM     18  C   UNL     1       2.584   7.748  18.254  0.00  0.00    +0.000 C 
ATOM     19  O   UNL     1       2.717   8.288  17.158  0.00  0.00    +0.000 OA
ATOM     20  N   UNL     1       1.856   8.301  19.279  0.00  0.00    +0.000 N 
ATOM     21  H   UNL     1       1.806   7.817  20.174  0.00  0.00    +0.000 HD
BRANCH  20  22
ATOM     22  C   UNL     1       1.185   9.574  19.172  0.00  0.00    +0.000 C 
BRANCH  22  23
ATOM     23  C   UNL     1       0.497   9.931  20.462  0.00  0.00    +0.000 A 
ATOM     24  C   UNL     1       0.669   9.128  21.600  0.00  0.00    +0.000 A 
ATOM     25  C   UNL     1       0.016   9.440  22.793  0.00  0.00    +0.000 A 
ATOM     26  C   UNL     1      -0.820  10.553  22.861  0.00  0.00    +0.000 A 
ATOM     27  C   UNL     1      -1.005  11.354  21.737  0.00  0.00    +0.000 A 
ATOM     28  C   UNL     1      -0.353  11.044  20.541  0.00  0.00    +0.000 A 
ENDBRANCH  22  23
ENDBRANCH  20  22
ENDBRANCH   6  18
TORSDOF 4
ENDMDL
MODEL 4
REMARK VINA RESULT:      -8.0      2.254      7.545
REMARK  Name = 
REMARK  5 active torsions:
REMARK  status: ('A' for Active; 'I' for Inactive)
REMARK    1  A    between atoms: C_1  and  N_2
REMARK    2  A    between atoms: C_6  and  C_7
REMARK    3  A    between atoms: N_9  and  C_10
REMARK    4  A    between atoms: C_10  and  C_11
REMARK    5  A    between atoms: C_19  and  C_20
REMARK                            x       y       z     vdW  Elec       q    Type
REMARK                         _______ _______ _______ _____ _____    ______ ____
ROOT
ATOM      1  C   UNL     1       2.333   2.840  21.341  0.00  0.00    +0.000 C 
ATOM      2  N   UNL     1       3.202   3.582  20.462  0.00  0.00    +0.000 N 
ATOM      3  C   UNL     1       2.865   4.835  19.987  0.00  0.00    +0.000 A 
ATOM      4  N   UNL     1       2.022   5.634  20.586  0.00  0.00    +0.000 NA
ATOM      5  C   UNL     1       1.789   6.877  20.015  0.00  0.00    +0.000 A 
ATOM      6  C   UNL     1       2.369   7.348  18.890  0.00  0.00    +0.000 A 
ATOM      7  C   UNL     1       3.278   6.496  18.227  0.00  0.00    +0.000 A 
ATOM      8  N   UNL     1       4.011   6.594  17.139  0.00  0.00    +0.000 NA
ATOM      9  C   UNL     1       4.599   5.350  17.039  0.00  0.00    +0.000 A 
ATOM     10  N   UNL     1       4.294   4.496  18.034  0.00  0.00    +0.000 NA
ATOM     11  N   UNL     1       3.476   5.268  18.791  0.00  0.00    +0.000 N 
ATOM     12  H   UNL     1       3.764   3.022  19.822  0.00  0.00    +0.000 HD
ENDROOT
BRANCH   9  13
ATOM     13  C   UNL     1       5.486   5.002  15.891  0.00  0.00    +0.000 A 
ATOM     14  C   UNL     1       5.309   3.962  14.998  0.00  0.00    +0.000 A 
ATOM     15  C   UNL     1       6.390   4.019  14.084  0.00  0.00    +0.000 A 
ATOM     16  C   UNL     1       7.164   5.083  14.475  0.00  0.00    +0.000 A 
ATOM     17  O   UNL     1       6.620   5.695  15.557  0.00  0.00    +0.000 OA
ENDBRANCH   9  13
BRANCH   6  18
ATOM     18  C   UNL     1       2.017   8.715  18.399  0.00  0.00    +0.000 C 
ATOM     19  O   UNL     1       2.510   9.178  17.373  0.00  0.00    +0.000 OA
ATOM     20  N   UNL     1       1.115   9.402  19.174  0.00  0.00    +0.000 N 
ATOM     21  H   UNL     1       0.763   8.975  20.028  0.00  0.00    +0.000 HD
BRANCH  20  22
ATOM     22  C   UNL     1       0.666  10.738  18.863  0.00  0.00    +0.000 C 
BRANCH  22  23
ATOM     23  C   UNL     1      -0.797  10.746  18.509  0.00  0.00    +0.000 A 
ATOM     24  C   UNL     1      -1.291   9.875  17.527  0.00  0.00    +0.000 A 
ATOM     25  C   UNL     1      -2.642   9.893  17.177  0.00  0.00    +0.000 A 
ATOM     26  C   UNL     1      -3.512  10.786  17.800  0.00  0.00    +0.000 A 
ATOM     27  C   UNL     1      -3.033  11.661  18.772  0.00  0.00    +0.000 A 
ATOM     28  C   UNL     1      -1.682  11.645  19.123  0.00  0.00    +0.000 A 
ENDBRANCH  22  23
ENDBRANCH  20  22
ENDBRANCH   6  18
TORSDOF 4
ENDMDL
MODEL 5
REMARK VINA RESULT:      -7.9      2.331      7.558
REMARK  Name = 
REMARK  5 active torsions:
REMARK  status: ('A' for Active; 'I' for Inactive)
REMARK    1  A    between atoms: C_1  and  N_2
REMARK    2  A    between atoms: C_6  and  C_7
REMARK    3  A    between atoms: N_9  and  C_10
REMARK    4  A    between atoms: C_10  and  C_11
REMARK    5  A    between atoms: C_19  and  C_20
REMARK                            x       y       z     vdW  Elec       q    Type
REMARK                         _______ _______ _______ _____ _____    ______ ____
ROOT
ATOM      1  C   UNL     1       2.122   3.011  21.608  0.00  0.00    +0.000 C 
ATOM      2  N   UNL     1       3.013   3.723  20.727  0.00  0.00    +0.000 N 
ATOM      3  C   UNL     1       2.691   4.960  20.204  0.00  0.00    +0.000 A 
ATOM      4  N   UNL     1       1.834   5.779  20.756  0.00  0.00    +0.000 NA
ATOM      5  C   UNL     1       1.617   7.003  20.140  0.00  0.00    +0.000 A 
ATOM      6  C   UNL     1       2.226   7.437  19.015  0.00  0.00    +0.000 A 
ATOM      7  C   UNL     1       3.150   6.564  18.403  0.00  0.00    +0.000 A 
ATOM      8  N   UNL     1       3.909   6.625  17.330  0.00  0.00    +0.000 NA
ATOM      9  C   UNL     1       4.497   5.379  17.285  0.00  0.00    +0.000 A 
ATOM     10  N   UNL     1       4.167   4.557  18.299  0.00  0.00    +0.000 NA
ATOM     11  N   UNL     1       3.332   5.354  19.010  0.00  0.00    +0.000 N 
ATOM     12  H   UNL     1       3.591   3.142  20.120  0.00  0.00    +0.000 HD
ENDROOT
BRANCH   9  13
ATOM     13  C   UNL     1       5.412   4.993  16.171  0.00  0.00    +0.000 A 
ATOM     14  C   UNL     1       6.712   5.422  15.985  0.00  0.00    +0.000 A 
ATOM     15  C   UNL     1       7.185   4.798  14.804  0.00  0.00    +0.000 A 
ATOM     16  C   UNL     1       6.146   4.032  14.336  0.00  0.00    +0.000 A 
ATOM     17  O   UNL     1       5.074   4.129  15.162  0.00  0.00    +0.000 OA
ENDBRANCH   9  13
BRANCH   6  18
ATOM     18  C   UNL     1       1.889   8.788  18.472  0.00  0.00    +0.000 C 
ATOM     19  O   UNL     1       2.405   9.215  17.442  0.00  0.00    +0.000 OA
ATOM     20  N   UNL     1       0.971   9.502  19.204  0.00  0.00    +0.000 N 
ATOM     21  H   UNL     1       0.600   9.104  20.064  0.00  0.00    +0.000 HD
BRANCH  20  22
ATOM     22  C   UNL     1       0.533  10.828  18.839  0.00  0.00    +0.000 C 
BRANCH  22  23
ATOM     23  C   UNL     1      -0.915  10.823  18.429  0.00  0.00    +0.000 A 
ATOM     24  C   UNL     1      -1.824  11.702  19.037  0.00  0.00    +0.000 A 
ATOM     25  C   UNL     1      -3.173  11.687  18.678  0.00  0.00    +0.000 A 
ATOM     26  C   UNL     1      -3.629  10.790  17.713  0.00  0.00    +0.000 A 
ATOM     27  C   UNL     1      -2.738   9.908  17.108  0.00  0.00    +0.000 A 
ATOM     28  C   UNL     1      -1.388   9.920  17.465  0.00  0.00    +0.000 A 
ENDBRANCH  22  23
ENDBRANCH  20  22
ENDBRANCH   6  18
TORSDOF 4
ENDMDL
MODEL 6
REMARK VINA RESULT:      -7.8      3.396      6.927
REMARK  Name = 
REMARK  5 active torsions:
REMARK  status: ('A' for Active; 'I' for Inactive)
REMARK    1  A    between atoms: C_1  and  N_2
REMARK    2  A    between atoms: C_6  and  C_7
REMARK    3  A    between atoms: N_9  and  C_10
REMARK    4  A    between atoms: C_10  and  C_11
REMARK    5  A    between atoms: C_19  and  C_20
REMARK                            x       y       z     vdW  Elec       q    Type
REMARK                         _______ _______ _______ _____ _____    ______ ____
ROOT
ATOM      1  C   UNL     1       7.404   4.953  12.722  0.00  0.00    +0.000 C 
ATOM      2  N   UNL     1       7.814   5.419  14.023  0.00  0.00    +0.000 N 
ATOM      3  C   UNL     1       7.129   5.075  15.172  0.00  0.00    +0.000 A 
ATOM      4  N   UNL     1       6.379   4.009  15.278  0.00  0.00    +0.000 NA
ATOM      5  C   UNL     1       5.763   3.768  16.497  0.00  0.00    +0.000 A 
ATOM      6  C   UNL     1       5.877   4.535  17.602  0.00  0.00    +0.000 A 
ATOM      7  C   UNL     1       6.677   5.693  17.505  0.00  0.00    +0.000 A 
ATOM      8  N   UNL     1       7.012   6.658  18.335  0.00  0.00    +0.000 NA
ATOM      9  C   UNL     1       7.755   7.511  17.546  0.00  0.00    +0.000 A 
ATOM     10  N   UNL     1       7.928   7.104  16.275  0.00  0.00    +0.000 NA
ATOM     11  N   UNL     1       7.256   5.927  16.290  0.00  0.00    +0.000 N 
ATOM     12  H   UNL     1       8.245   6.342  14.046  0.00  0.00    +0.000 HD
ENDROOT
BRANCH   9  13
ATOM     13  C   UNL     1       8.296   8.793  18.086  0.00  0.00    +0.000 A 
ATOM     14  C   UNL     1       8.144  10.050  17.534  0.00  0.00    +0.000 A 
ATOM     15  C   UNL     1       8.821  10.957  18.387  0.00  0.00    +0.000 A 
ATOM     16  C   UNL     1       9.351  10.201  19.403  0.00  0.00    +0.000 A 
ATOM     17  O   UNL     1       9.027   8.893  19.241  0.00  0.00    +0.000 OA
ENDBRANCH   9  13
BRANCH   6  18
ATOM     18  C   UNL     1       5.151   4.141  18.848  0.00  0.00    +0.000 C 
ATOM     19  O   UNL     1       4.584   4.971  19.554  0.00  0.00    +0.000 OA
ATOM     20  N   UNL     1       5.171   2.798  19.137  0.00  0.00    +0.000 N 
ATOM     21  H   UNL     1       5.682   2.163  18.527  0.00  0.00    +0.000 HD
BRANCH  20  22
ATOM     22  C   UNL     1       4.534   2.234  20.304  0.00  0.00    +0.000 C 
BRANCH  22  23
ATOM     23  C   UNL     1       3.042   2.423  20.248  0.00  0.00    +0.000 A 
ATOM     24  C   UNL     1       2.339   2.147  19.066  0.00  0.00    +0.000 A 
ATOM     25  C   UNL     1       0.959   2.342  19.000  0.00  0.00    +0.000 A 
ATOM     26  C   UNL     1       0.267   2.821  20.112  0.00  0.00    +0.000 A 
ATOM     27  C   UNL     1       0.955   3.105  21.289  0.00  0.00    +0.000 A 
ATOM     28  C   UNL     1       2.336   2.912  21.358  0.00  0.00    +0.000 A 
ENDBRANCH  22  23
ENDBRANCH  20  22
ENDBRANCH   6  18
TORSDOF 4
ENDMDL
MODEL 7
REMARK VINA RESULT:      -7.7      4.432      7.238
REMARK  Name = 
REMARK  5 active torsions:
REMARK  status: ('A' for Active; 'I' for Inactive)
REMARK    1  A    between atoms: C_1  and  N_2
REMARK    2  A    between atoms: C_6  and  C_7
REMARK    3  A    between atoms: N_9  and  C_10
REMARK    4  A    between atoms: C_10  and  C_11
REMARK    5  A    between atoms: C_19  and  C_20
REMARK                            x       y       z     vdW  Elec       q    Type
REMARK                         _______ _______ _______ _____ _____    ______ ____
ROOT
ATOM      1  C   UNL     1      -1.147  13.024  23.035  0.00  0.00    +0.000 C 
ATOM      2  N   UNL     1      -1.551  12.147  21.964  0.00  0.00    +0.000 N 
ATOM      3  C   UNL     1      -0.680  11.240  21.393  0.00  0.00    +0.000 A 
ATOM      4  N   UNL     1       0.378  10.771  22.000  0.00  0.00    +0.000 NA
ATOM      5  C   UNL     1       1.159   9.847  21.320  0.00  0.00    +0.000 A 
ATOM      6  C   UNL     1       0.917   9.372  20.080  0.00  0.00    +0.000 A 
ATOM      7  C   UNL     1      -0.219   9.872  19.407  0.00  0.00    +0.000 A 
ATOM      8  N   UNL     1      -0.760   9.664  18.226  0.00  0.00    +0.000 NA
ATOM      9  C   UNL     1      -1.813  10.554  18.198  0.00  0.00    +0.000 A 
ATOM     10  N   UNL     1      -1.974  11.280  19.320  0.00  0.00    +0.000 NA
ATOM     11  N   UNL     1      -0.961  10.799  20.082  0.00  0.00    +0.000 N 
ATOM     12  H   UNL     1      -2.252  12.524  21.326  0.00  0.00    +0.000 HD
ENDROOT
BRANCH   9  13
ATOM     13  C   UNL     1      -2.680  10.691  16.991  0.00  0.00    +0.000 A 
ATOM     14  C   UNL     1      -2.514  10.048  15.779  0.00  0.00    +0.000 A 
ATOM     15  C   UNL     1      -3.568  10.482  14.937  0.00  0.00    +0.000 A 
ATOM     16  C   UNL     1      -4.310  11.366  15.681  0.00  0.00    +0.000 A 
ATOM     17  O   UNL     1      -3.792  11.490  16.929  0.00  0.00    +0.000 OA
ENDBRANCH   9  13
BRANCH   6  18
ATOM     18  C   UNL     1       1.852   8.372  19.480  0.00  0.00    +0.000 C 
ATOM     19  O   UNL     1       2.304   8.512  18.346  0.00  0.00    +0.000 OA
ATOM     20  N   UNL     1       2.159   7.301  20.284  0.00  0.00    +0.000 N 
ATOM     21  H   UNL     1       1.729   7.229  21.205  0.00  0.00    +0.000 HD
BRANCH  20  22
ATOM     22  C   UNL     1       3.035   6.231  19.871  0.00  0.00    +0.000 C 
BRANCH  22  23
ATOM     23  C   UNL     1       2.259   4.967  19.619  0.00  0.00    +0.000 A 
ATOM     24  C   UNL     1       1.807   4.188  20.695  0.00  0.00    +0.000 A 
ATOM     25  C   UNL     1       1.106   3.003  20.468  0.00  0.00    +0.000 A 
ATOM     26  C   UNL     1       0.856   2.579  19.164  0.00  0.00    +0.000 A 
ATOM     27  C   UNL     1       1.305   3.338  18.087  0.00  0.00    +0.000 A 
ATOM     28  C   UNL     1       2.007   4.525  18.311  0.00  0.00    +0.000 A 
ENDBRANCH  22  23
ENDBRANCH  20  22
ENDBRANCH   6  18
TORSDOF 4
ENDMDL
MODEL 8
REMARK VINA RESULT:      -7.6      2.837      7.164
REMARK  Name = 
REMARK  5 active torsions:
REMARK  status: ('A' for Active; 'I' for Inactive)
REMARK    1  A    between atoms: C_1  and  N_2
REMARK    2  A    between atoms: C_6  and  C_7
REMARK    3  A    between atoms: N_9  and  C_10
REMARK    4  A    between atoms: C_10  and  C_11
REMARK    5  A    between atoms: C_19  and  C_20
REMARK                            x       y       z     vdW  Elec       q    Type
REMARK                         _______ _______ _______ _____ _____    ______ ____
ROOT
ATOM      1  C   UNL     1       7.199   4.287  13.018  0.00  0.00    +0.000 C 
ATOM      2  N   UNL     1       7.477   4.853  14.315  0.00  0.00    +0.000 N 
ATOM      3  C   UNL     1       6.542   4.847  15.331  0.00  0.00    +0.000 A 
ATOM      4  N   UNL     1       5.552   3.996  15.401  0.00  0.00    +0.000 NA
ATOM      5  C   UNL     1       4.694   4.086  16.487  0.00  0.00    +0.000 A 
ATOM      6  C   UNL     1       4.796   4.974  17.499  0.00  0.00    +0.000 A 
ATOM      7  C   UNL     1       5.855   5.904  17.438  0.00  0.00    +0.000 A 
ATOM      8  N   UNL     1       6.263   6.893  18.204  0.00  0.00    +0.000 NA
ATOM      9  C   UNL     1       7.314   7.434  17.493  0.00  0.00    +0.000 A 
ATOM     10  N   UNL     1       7.601   6.805  16.338  0.00  0.00    +0.000 NA
ATOM     11  N   UNL     1       6.674   5.816  16.348  0.00  0.00    +0.000 N 
ATOM     12  H   UNL     1       8.107   5.654  14.321  0.00  0.00    +0.000 HD
ENDROOT
BRANCH   9  13
ATOM     13  C   UNL     1       8.044   8.638  17.985  0.00  0.00    +0.000 A 
ATOM     14  C   UNL     1       7.988   9.912  17.451  0.00  0.00    +0.000 A 
ATOM     15  C   UNL     1       8.839  10.725  18.241  0.00  0.00    +0.000 A 
ATOM     16  C   UNL     1       9.368   9.900  19.204  0.00  0.00    +0.000 A 
ATOM     17  O   UNL     1       8.883   8.641  19.069  0.00  0.00    +0.000 OA
ENDBRANCH   9  13
BRANCH   6  18
ATOM     18  C   UNL     1       3.793   4.944  18.607  0.00  0.00    +0.000 C 
ATOM     19  O   UNL     1       3.433   3.888  19.122  0.00  0.00    +0.000 OA
ATOM     20  N   UNL     1       3.314   6.171  18.997  0.00  0.00    +0.000 N 
ATOM     21  H   UNL     1       3.631   7.008  18.512  0.00  0.00    +0.000 HD
BRANCH  20  22
ATOM     22  C   UNL     1       2.333   6.337  20.043  0.00  0.00    +0.000 C 
BRANCH  22  23
ATOM     23  C   UNL     1       1.742   7.721  20.012  0.00  0.00    +0.000 A 
ATOM     24  C   UNL     1       1.093   8.238  21.143  0.00  0.00    +0.000 A 
ATOM     25  C   UNL     1       0.523   9.511  21.115  0.00  0.00    +0.000 A 
ATOM     26  C   UNL     1       0.589  10.280  19.954  0.00  0.00    +0.000 A 
ATOM     27  C   UNL     1       1.224   9.776  18.821  0.00  0.00    +0.000 A 
ATOM     28  C   UNL     1       1.795   8.501  18.847  0.00  0.00    +0.000 A 
ENDBRANCH  22  23
ENDBRANCH  20  22
ENDBRANCH   6  18
TORSDOF 4
ENDMDL
MODEL 9
REMARK VINA RESULT:      -7.5      4.019      6.569
REMARK  Name = 
REMARK  5 active torsions:
REMARK  status: ('A' for Active; 'I' for Inactive)
REMARK    1  A    between atoms: C_1  and  N_2
REMARK    2  A    between atoms: C_6  and  C_7
REMARK    3  A    between atoms: N_9  and  C_10
REMARK    4  A    between atoms: C_10  and  C_11
REMARK    5  A    between atoms: C_19  and  C_20
REMARK                            x       y       z     vdW  Elec       q    Type
REMARK                         _______ _______ _______ _____ _____    ______ ____
ROOT
ATOM      1  C   UNL     1       5.977   3.637  12.942  0.00  0.00    +0.000 C 
ATOM      2  N   UNL     1       5.292   4.183  14.087  0.00  0.00    +0.000 N 
ATOM      3  C   UNL     1       5.968   4.826  15.106  0.00  0.00    +0.000 A 
ATOM      4  N   UNL     1       7.140   5.386  14.957  0.00  0.00    +0.000 NA
ATOM      5  C   UNL     1       7.700   6.019  16.057  0.00  0.00    +0.000 A 
ATOM      6  C   UNL     1       7.134   6.123  17.279  0.00  0.00    +0.000 A 
ATOM      7  C   UNL     1       5.871   5.519  17.459  0.00  0.00    +0.000 A 
ATOM      8  N   UNL     1       5.037   5.404  18.470  0.00  0.00    +0.000 NA
ATOM      9  C   UNL     1       4.029   4.612  17.961  0.00  0.00    +0.000 A 
ATOM     10  N   UNL     1       4.179   4.259  16.671  0.00  0.00    +0.000 NA
ATOM     11  N   UNL     1       5.347   4.879  16.372  0.00  0.00    +0.000 N 
ATOM     12  H   UNL     1       4.456   3.680  14.382  0.00  0.00    +0.000 HD
ENDROOT
BRANCH   9  13
ATOM     13  C   UNL     1       2.880   4.180  18.810  0.00  0.00    +0.000 A 
ATOM     14  C   UNL     1       1.727   3.552  18.379  0.00  0.00    +0.000 A 
ATOM     15  C   UNL     1       0.926   3.333  19.527  0.00  0.00    +0.000 A 
ATOM     16  C   UNL     1       1.632   3.846  20.587  0.00  0.00    +0.000 A 
ATOM     17  O   UNL     1       2.821   4.346  20.169  0.00  0.00    +0.000 OA
ENDBRANCH   9  13
BRANCH   6  18
ATOM     18  C   UNL     1       7.862   6.842  18.368  0.00  0.00    +0.000 C 
ATOM     19  O   UNL     1       8.146   6.290  19.428  0.00  0.00    +0.000 OA
ATOM     20  N   UNL     1       8.184   8.150  18.093  0.00  0.00    +0.000 N 
ATOM     21  H   UNL     1       7.897   8.559  17.206  0.00  0.00    +0.000 HD
BRANCH  20  22
ATOM     22  C   UNL     1       8.876   9.004  19.028  0.00  0.00    +0.000 C 
BRANCH  22  23
ATOM     23  C   UNL     1       9.047  10.390  18.467  0.00  0.00    +0.000 A 
ATOM     24  C   UNL     1      10.248  11.087  18.662  0.00  0.00    +0.000 A 
ATOM     25  C   UNL     1      10.406  12.382  18.164  0.00  0.00    +0.000 A 
ATOM     26  C   UNL     1       9.363  12.995  17.473  0.00  0.00    +0.000 A 
ATOM     27  C   UNL     1       8.163  12.316  17.279  0.00  0.00    +0.000 A 
ATOM     28  C   UNL     1       8.002  11.021  17.776  0.00  0.00    +0.000 A 
ENDBRANCH  22  23
ENDBRANCH  20  22
ENDBRANCH   6  18
TORSDOF 4
ENDMDL
