MODEL 1
REMARK VINA RESULT:      -8.7      0.000      0.000
REMARK  Name = 
REMARK  8 active torsions:
REMARK  status: ('A' for Active; 'I' for Inactive)
REMARK    1  A    between atoms: C_1  and  C_2
REMARK    2  A    between atoms: C_2  and  C_3
REMARK    3  A    between atoms: C_3  and  C_4
REMARK    4  A    between atoms: C_4  and  C_5
REMARK    5  A    between atoms: N_8  and  C_9
REMARK    6  A    between atoms: C_14  and  C_15
REMARK    7  A    between atoms: C_15  and  S_16
REMARK    8  A    between atoms: S_16  and  C_17
REMARK                            x       y       z     vdW  Elec       q    Type
REMARK                         _______ _______ _______ _____ _____    ______ ____
ROOT
ATOM      1  C   UNL     1       3.634   4.274  18.330  0.00  0.00    +0.000 A 
ATOM      2  C   UNL     1       3.414   3.055  17.640  0.00  0.00    +0.000 A 
ATOM      3  C   UNL     1       2.228   2.336  17.782  0.00  0.00    +0.000 A 
ATOM      4  C   UNL     1       1.219   2.833  18.590  0.00  0.00    +0.000 A 
ATOM      5  C   UNL     1       1.415   4.027  19.286  0.00  0.00    +0.000 A 
ATOM      6  C   UNL     1       2.623   4.758  19.199  0.00  0.00    +0.000 A 
ENDROOT
BRANCH   1  10
ATOM      7  C   UNL     1       6.585   5.811  17.369  0.00  0.00    +0.000 C 
ATOM      8  C   UNL     1       5.945   5.246  18.673  0.00  0.00    +0.000 C 
ATOM      9  O   UNL     1       6.335   5.012  19.791  0.00  0.00    +0.000 OA
ATOM     10  N   UNL     1       4.775   5.008  17.998  0.00  0.00    +0.000 N 
ATOM     11  C   UNL     1       5.079   5.898  17.009  0.00  0.00    +0.000 C 
ATOM     12  O   UNL     1       4.416   6.585  16.267  0.00  0.00    +0.000 OA
BRANCH   7  14
ATOM     13  C   UNL     1       8.309   7.207  18.578  0.00  0.00    +0.000 C 
ATOM     14  C   UNL     1       7.271   7.174  17.457  0.00  0.00    +0.000 C 
ENDBRANCH   7  14
BRANCH   7  15
ATOM     15  C   UNL     1       7.355   4.719  16.596  0.00  0.00    +0.000 C 
ATOM     16  C   UNL     1       7.120   4.806  15.097  0.00  0.00    +0.000 C 
ENDBRANCH   7  15
ENDBRANCH   1  10
BRANCH   6  17
ATOM     17  C   UNL     1       2.671   6.059  19.999  0.00  0.00    +0.000 C 
BRANCH  17  18
ATOM     18  S   UNL     1       2.278   7.520  18.997  0.00  0.00    +0.000 S 
BRANCH  18  19
ATOM     19  C   UNL     1       1.361   8.520  20.102  0.00  0.00    +0.000 A 
ATOM     20  N   UNL     1       1.133   8.256  21.377  0.00  0.00    +0.000 NA
ATOM     21  C   UNL     1       0.340   9.304  21.801  0.00  0.00    +0.000 A 
ATOM     22  C   UNL     1      -0.252   9.593  23.041  0.00  0.00    +0.000 A 
ATOM     23  C   UNL     1      -1.067  10.735  23.147  0.00  0.00    +0.000 A 
ATOM     24  C   UNL     1      -1.270  11.583  22.051  0.00  0.00    +0.000 A 
ATOM     25  C   UNL     1      -0.663  11.326  20.815  0.00  0.00    +0.000 A 
ATOM     26  C   UNL     1       0.120  10.176  20.749  0.00  0.00    +0.000 A 
ATOM     27  O   UNL     1       0.785   9.691  19.663  0.00  0.00    +0.000 OA
ENDBRANCH  18  19
ENDBRANCH  17  18
ENDBRANCH   6  17
TORSDOF 6
ENDMDL
MODEL 2
REMARK VINA RESULT:      -8.6      0.642      1.140
REMARK  Name = 
REMARK  8 active torsions:
REMARK  status: ('A' for Active; 'I' for Inactive)
REMARK    1  A    between atoms: C_1  and  C_2
REMARK    2  A    between atoms: C_2  and  C_3
REMARK    3  A    between atoms: C_3  and  C_4
REMARK    4  A    between atoms: C_4  and  C_5
REMARK    5  A    between atoms: N_8  and  C_9
REMARK    6  A    between atoms: C_14  and  C_15
REMARK    7  A    between atoms: C_15  and  S_16
REMARK    8  A    between atoms: S_16  and  C_17
REMARK                            x       y       z     vdW  Elec       q    Type
REMARK                         _______ _______ _______ _____ _____    ______ ____
ROOT
ATOM      1  C   UNL     1       3.499   4.162  18.432  0.00  0.00    +0.000 A 
ATOM      2  C   UNL     1       3.294   2.930  17.764  0.00  0.00    +0.000 A 
ATOM      3  C   UNL     1       2.113   2.203  17.913  0.00  0.00    +0.000 A 
ATOM      4  C   UNL     1       1.096   2.706  18.707  0.00  0.00    +0.000 A 
ATOM      5  C   UNL     1       1.278   3.914  19.382  0.00  0.00    +0.000 A 
ATOM      6  C   UNL     1       2.481   4.653  19.288  0.00  0.00    +0.000 A 
ENDROOT
BRANCH   1  10
ATOM      7  C   UNL     1       6.443   5.706  17.460  0.00  0.00    +0.000 C 
ATOM      8  C   UNL     1       5.798   5.167  18.772  0.00  0.00    +0.000 C 
ATOM      9  O   UNL     1       6.180   4.965  19.898  0.00  0.00    +0.000 OA
ATOM     10  N   UNL     1       4.636   4.900  18.092  0.00  0.00    +0.000 N 
ATOM     11  C   UNL     1       4.940   5.768  17.084  0.00  0.00    +0.000 C 
ATOM     12  O   UNL     1       4.277   6.430  16.320  0.00  0.00    +0.000 OA
BRANCH   7  14
ATOM     13  C   UNL     1       8.265   7.095  18.527  0.00  0.00    +0.000 C 
ATOM     14  C   UNL     1       7.115   7.078  17.520  0.00  0.00    +0.000 C 
ENDBRANCH   7  14
BRANCH   7  15
ATOM     15  C   UNL     1       7.232   4.604  16.721  0.00  0.00    +0.000 C 
ATOM     16  C   UNL     1       7.244   4.820  15.217  0.00  0.00    +0.000 C 
ENDBRANCH   7  15
ENDBRANCH   1  10
BRANCH   6  17
ATOM     17  C   UNL     1       2.514   5.969  20.064  0.00  0.00    +0.000 C 
BRANCH  17  18
ATOM     18  S   UNL     1       2.328   7.424  18.996  0.00  0.00    +0.000 S 
BRANCH  18  19
ATOM     19  C   UNL     1       1.316   8.487  19.950  0.00  0.00    +0.000 A 
ATOM     20  N   UNL     1       0.746   9.601  19.525  0.00  0.00    +0.000 NA
ATOM     21  C   UNL     1       0.099  10.094  20.640  0.00  0.00    +0.000 A 
ATOM     22  C   UNL     1      -0.666  11.254  20.846  0.00  0.00    +0.000 A 
ATOM     23  C   UNL     1      -1.158  11.512  22.139  0.00  0.00    +0.000 A 
ATOM     24  C   UNL     1      -0.914  10.628  23.197  0.00  0.00    +0.000 A 
ATOM     25  C   UNL     1      -0.179   9.452  23.002  0.00  0.00    +0.000 A 
ATOM     26  C   UNL     1       0.305   9.244  21.712  0.00  0.00    +0.000 A 
ATOM     27  O   UNL     1       1.068   8.203  21.275  0.00  0.00    +0.000 OA
ENDBRANCH  18  19
ENDBRANCH  17  18
ENDBRANCH   6  17
TORSDOF 6
ENDMDL
MODEL 3
REMARK VINA RESULT:      -8.6      1.086      2.309
REMARK  Name = 
REMARK  8 active torsions:
REMARK  status: ('A' for Active; 'I' for Inactive)
REMARK    1  A    between atoms: C_1  and  C_2
REMARK    2  A    between atoms: C_2  and  C_3
REMARK    3  A    between atoms: C_3  and  C_4
REMARK    4  A    between atoms: C_4  and  C_5
REMARK    5  A    between atoms: N_8  and  C_9
REMARK    6  A    between atoms: C_14  and  C_15
REMARK    7  A    between atoms: C_15  and  S_16
REMARK    8  A    between atoms: S_16  and  C_17
REMARK                            x       y       z     vdW  Elec       q    Type
REMARK                         _______ _______ _______ _____ _____    ______ ____
ROOT
ATOM      1  C   UNL     1       3.203   3.897  18.941  0.00  0.00    +0.000 A 
ATOM      2  C   UNL     1       2.656   2.614  18.690  0.00  0.00    +0.000 A 
ATOM      3  C   UNL     1       1.438   2.216  19.238  0.00  0.00    +0.000 A 
ATOM      4  C   UNL     1       0.720   3.101  20.024  0.00  0.00    +0.000 A 
ATOM      5  C   UNL     1       1.242   4.368  20.294  0.00  0.00    +0.000 A 
ATOM      6  C   UNL     1       2.495   4.786  19.790  0.00  0.00    +0.000 A 
ENDROOT
BRANCH   1  10
ATOM      7  C   UNL     1       5.893   5.133  17.145  0.00  0.00    +0.000 C 
ATOM      8  C   UNL     1       4.601   4.307  16.872  0.00  0.00    +0.000 C 
ATOM      9  O   UNL     1       4.008   3.938  15.887  0.00  0.00    +0.000 OA
ATOM     10  N   UNL     1       4.338   4.269  18.218  0.00  0.00    +0.000 N 
ATOM     11  C   UNL     1       5.635   4.534  18.552  0.00  0.00    +0.000 C 
ATOM     12  O   UNL     1       6.326   4.262  19.506  0.00  0.00    +0.000 OA
BRANCH   7  14
ATOM     13  C   UNL     1       7.155   4.796  14.981  0.00  0.00    +0.000 C 
ATOM     14  C   UNL     1       7.190   4.641  16.501  0.00  0.00    +0.000 C 
ENDBRANCH   7  14
BRANCH   7  15
ATOM     15  C   UNL     1       5.629   6.650  17.048  0.00  0.00    +0.000 C 
ATOM     16  C   UNL     1       6.874   7.468  17.351  0.00  0.00    +0.000 C 
ENDBRANCH   7  15
ENDBRANCH   1  10
BRANCH   6  17
ATOM     17  C   UNL     1       2.915   6.211  20.150  0.00  0.00    +0.000 C 
BRANCH  17  18
ATOM     18  S   UNL     1       2.357   7.440  18.937  0.00  0.00    +0.000 S 
BRANCH  18  19
ATOM     19  C   UNL     1       1.348   8.505  19.891  0.00  0.00    +0.000 A 
ATOM     20  N   UNL     1       0.871   9.674  19.501  0.00  0.00    +0.000 NA
ATOM     21  C   UNL     1       0.182  10.141  20.603  0.00  0.00    +0.000 A 
ATOM     22  C   UNL     1      -0.527  11.331  20.833  0.00  0.00    +0.000 A 
ATOM     23  C   UNL     1      -1.086  11.544  22.107  0.00  0.00    +0.000 A 
ATOM     24  C   UNL     1      -0.962  10.587  23.121  0.00  0.00    +0.000 A 
ATOM     25  C   UNL     1      -0.285   9.382  22.899  0.00  0.00    +0.000 A 
ATOM     26  C   UNL     1       0.269   9.219  21.631  0.00  0.00    +0.000 A 
ATOM     27  O   UNL     1       0.998   8.161  21.178  0.00  0.00    +0.000 OA
ENDBRANCH  18  19
ENDBRANCH  17  18
ENDBRANCH   6  17
TORSDOF 6
ENDMDL
MODEL 4
REMARK VINA RESULT:      -8.6      0.905      2.019
REMARK  Name = 
REMARK  8 active torsions:
REMARK  status: ('A' for Active; 'I' for Inactive)
REMARK    1  A    between atoms: C_1  and  C_2
REMARK    2  A    between atoms: C_2  and  C_3
REMARK    3  A    between atoms: C_3  and  C_4
REMARK    4  A    between atoms: C_4  and  C_5
REMARK    5  A    between atoms: N_8  and  C_9
REMARK    6  A    between atoms: C_14  and  C_15
REMARK    7  A    between atoms: C_15  and  S_16
REMARK    8  A    between atoms: S_16  and  C_17
REMARK                            x       y       z     vdW  Elec       q    Type
REMARK                         _______ _______ _______ _____ _____    ______ ____
ROOT
ATOM      1  C   UNL     1       3.189   3.874  18.814  0.00  0.00    +0.000 A 
ATOM      2  C   UNL     1       2.616   2.609  18.535  0.00  0.00    +0.000 A 
ATOM      3  C   UNL     1       1.397   2.218  19.089  0.00  0.00    +0.000 A 
ATOM      4  C   UNL     1       0.706   3.095  19.908  0.00  0.00    +0.000 A 
ATOM      5  C   UNL     1       1.254   4.344  20.204  0.00  0.00    +0.000 A 
ATOM      6  C   UNL     1       2.509   4.753  19.695  0.00  0.00    +0.000 A 
ENDROOT
BRANCH   1  10
ATOM      7  C   UNL     1       5.871   5.106  17.002  0.00  0.00    +0.000 C 
ATOM      8  C   UNL     1       4.587   4.263  16.740  0.00  0.00    +0.000 C 
ATOM      9  O   UNL     1       4.000   3.870  15.761  0.00  0.00    +0.000 OA
ATOM     10  N   UNL     1       4.322   4.245  18.086  0.00  0.00    +0.000 N 
ATOM     11  C   UNL     1       5.615   4.529  18.418  0.00  0.00    +0.000 C 
ATOM     12  O   UNL     1       6.308   4.281  19.378  0.00  0.00    +0.000 OA
BRANCH   7  14
ATOM     13  C   UNL     1       7.181   4.839  14.857  0.00  0.00    +0.000 C 
ATOM     14  C   UNL     1       7.174   4.616  16.369  0.00  0.00    +0.000 C 
ENDBRANCH   7  14
BRANCH   7  15
ATOM     15  C   UNL     1       5.592   6.619  16.878  0.00  0.00    +0.000 C 
ATOM     16  C   UNL     1       6.791   7.458  17.289  0.00  0.00    +0.000 C 
ENDBRANCH   7  15
ENDBRANCH   1  10
BRANCH   6  17
ATOM     17  C   UNL     1       2.959   6.160  20.088  0.00  0.00    +0.000 C 
BRANCH  17  18
ATOM     18  S   UNL     1       2.283   7.447  19.002  0.00  0.00    +0.000 S 
BRANCH  18  19
ATOM     19  C   UNL     1       1.400   8.474  20.111  0.00  0.00    +0.000 A 
ATOM     20  N   UNL     1       0.969   8.127  21.311  0.00  0.00    +0.000 NA
ATOM     21  C   UNL     1       0.305   9.247  21.767  0.00  0.00    +0.000 A 
ATOM     22  C   UNL     1      -0.391   9.508  22.959  0.00  0.00    +0.000 A 
ATOM     23  C   UNL     1      -1.021  10.757  23.110  0.00  0.00    +0.000 A 
ATOM     24  C   UNL     1      -0.943  11.732  22.108  0.00  0.00    +0.000 A 
ATOM     25  C   UNL     1      -0.229  11.501  20.926  0.00  0.00    +0.000 A 
ATOM     26  C   UNL     1       0.364  10.245  20.810  0.00  0.00    +0.000 A 
ATOM     27  O   UNL     1       1.079   9.765  19.754  0.00  0.00    +0.000 OA
ENDBRANCH  18  19
ENDBRANCH  17  18
ENDBRANCH   6  17
TORSDOF 6
ENDMDL
MODEL 5
REMARK VINA RESULT:      -8.5      1.438      2.462
REMARK  Name = 
REMARK  8 active torsions:
REMARK  status: ('A' for Active; 'I' for Inactive)
REMARK    1  A    between atoms: C_1  and  C_2
REMARK    2  A    between atoms: C_2  and  C_3
REMARK    3  A    between atoms: C_3  and  C_4
REMARK    4  A    between atoms: C_4  and  C_5
REMARK    5  A    between atoms: N_8  and  C_9
REMARK    6  A    between atoms: C_14  and  C_15
REMARK    7  A    between atoms: C_15  and  S_16
REMARK    8  A    between atoms: S_16  and  C_17
REMARK                            x       y       z     vdW  Elec       q    Type
REMARK                         _______ _______ _______ _____ _____    ______ ____
ROOT
ATOM      1  C   UNL     1       3.408   4.375  19.371  0.00  0.00    +0.000 A 
ATOM      2  C   UNL     1       2.992   3.028  19.516  0.00  0.00    +0.000 A 
ATOM      3  C   UNL     1       1.804   2.694  20.167  0.00  0.00    +0.000 A 
ATOM      4  C   UNL     1       0.988   3.699  20.658  0.00  0.00    +0.000 A 
ATOM      5  C   UNL     1       1.380   5.033  20.534  0.00  0.00    +0.000 A 
ATOM      6  C   UNL     1       2.600   5.403  19.920  0.00  0.00    +0.000 A 
ENDROOT
BRANCH   1  10
ATOM      7  C   UNL     1       6.044   5.305  17.326  0.00  0.00    +0.000 C 
ATOM      8  C   UNL     1       4.726   4.482  17.212  0.00  0.00    +0.000 C 
ATOM      9  O   UNL     1       4.087   4.003  16.308  0.00  0.00    +0.000 OA
ATOM     10  N   UNL     1       4.519   4.624  18.561  0.00  0.00    +0.000 N 
ATOM     11  C   UNL     1       5.833   4.899  18.808  0.00  0.00    +0.000 C 
ATOM     12  O   UNL     1       6.558   4.736  19.762  0.00  0.00    +0.000 OA
BRANCH   7  14
ATOM     13  C   UNL     1       7.263   4.780  15.176  0.00  0.00    +0.000 C 
ATOM     14  C   UNL     1       7.304   4.705  16.702  0.00  0.00    +0.000 C 
ENDBRANCH   7  14
BRANCH   7  15
ATOM     15  C   UNL     1       5.804   6.803  17.044  0.00  0.00    +0.000 C 
ATOM     16  C   UNL     1       7.014   7.653  17.394  0.00  0.00    +0.000 C 
ENDBRANCH   7  15
ENDBRANCH   1  10
BRANCH   6  17
ATOM     17  C   UNL     1       2.873   6.904  19.836  0.00  0.00    +0.000 C 
BRANCH  17  18
ATOM     18  S   UNL     1       2.314   7.638  18.273  0.00  0.00    +0.000 S 
BRANCH  18  19
ATOM     19  C   UNL     1       1.235   8.911  18.800  0.00  0.00    +0.000 A 
ATOM     20  N   UNL     1       1.024   9.278  20.052  0.00  0.00    +0.000 NA
ATOM     21  C   UNL     1       0.074  10.275  19.955  0.00  0.00    +0.000 A 
ATOM     22  C   UNL     1      -0.579  11.048  20.929  0.00  0.00    +0.000 A 
ATOM     23  C   UNL     1      -1.560  11.967  20.510  0.00  0.00    +0.000 A 
ATOM     24  C   UNL     1      -1.867  12.128  19.154  0.00  0.00    +0.000 A 
ATOM     25  C   UNL     1      -1.205  11.387  18.168  0.00  0.00    +0.000 A 
ATOM     26  C   UNL     1      -0.255  10.476  18.626  0.00  0.00    +0.000 A 
ATOM     27  O   UNL     1       0.496   9.620  17.879  0.00  0.00    +0.000 OA
ENDBRANCH  18  19
ENDBRANCH  17  18
ENDBRANCH   6  17
TORSDOF 6
ENDMDL
MODEL 6
REMARK VINA RESULT:      -8.4      1.792      2.884
REMARK  Name = 
REMARK  8 active torsions:
REMARK  status: ('A' for Active; 'I' for Inactive)
REMARK    1  A    between atoms: C_1  and  C_2
REMARK    2  A    between atoms: C_2  and  C_3
REMARK    3  A    between atoms: C_3  and  C_4
REMARK    4  A    between atoms: C_4  and  C_5
REMARK    5  A    between atoms: N_8  and  C_9
REMARK    6  A    between atoms: C_14  and  C_15
REMARK    7  A    between atoms: C_15  and  S_16
REMARK    8  A    between atoms: S_16  and  C_17
REMARK                            x       y       z     vdW  Elec       q    Type
REMARK                         _______ _______ _______ _____ _____    ______ ____
ROOT
ATOM      1  C   UNL     1       3.361   4.253  19.403  0.00  0.00    +0.000 A 
ATOM      2  C   UNL     1       3.022   2.888  19.574  0.00  0.00    +0.000 A 
ATOM      3  C   UNL     1       1.842   2.500  20.207  0.00  0.00    +0.000 A 
ATOM      4  C   UNL     1       0.956   3.465  20.655  0.00  0.00    +0.000 A 
ATOM      5  C   UNL     1       1.272   4.816  20.505  0.00  0.00    +0.000 A 
ATOM      6  C   UNL     1       2.481   5.244  19.909  0.00  0.00    +0.000 A 
ENDROOT
BRANCH   1  10
ATOM      7  C   UNL     1       5.990   5.294  17.405  0.00  0.00    +0.000 C 
ATOM      8  C   UNL     1       4.704   4.427  17.265  0.00  0.00    +0.000 C 
ATOM      9  O   UNL     1       4.094   3.934  16.347  0.00  0.00    +0.000 OA
ATOM     10  N   UNL     1       4.473   4.548  18.612  0.00  0.00    +0.000 N 
ATOM     11  C   UNL     1       5.773   4.867  18.880  0.00  0.00    +0.000 C 
ATOM     12  O   UNL     1       6.491   4.721  19.842  0.00  0.00    +0.000 OA
BRANCH   7  14
ATOM     13  C   UNL     1       7.226   4.760  15.266  0.00  0.00    +0.000 C 
ATOM     14  C   UNL     1       7.279   4.744  16.793  0.00  0.00    +0.000 C 
ENDBRANCH   7  14
BRANCH   7  15
ATOM     15  C   UNL     1       5.702   6.786  17.133  0.00  0.00    +0.000 C 
ATOM     16  C   UNL     1       6.936   7.652  17.325  0.00  0.00    +0.000 C 
ENDBRANCH   7  15
ENDBRANCH   1  10
BRANCH   6  17
ATOM     17  C   UNL     1       2.667   6.756  19.792  0.00  0.00    +0.000 C 
BRANCH  17  18
ATOM     18  S   UNL     1       2.204   7.402  18.161  0.00  0.00    +0.000 S 
BRANCH  18  19
ATOM     19  C   UNL     1       1.784   9.067  18.501  0.00  0.00    +0.000 A 
ATOM     20  N   UNL     1       2.188  10.122  17.815  0.00  0.00    +0.000 NA
ATOM     21  C   UNL     1       1.635  11.192  18.489  0.00  0.00    +0.000 A 
ATOM     22  C   UNL     1       1.709  12.578  18.274  0.00  0.00    +0.000 A 
ATOM     23  C   UNL     1       1.065  13.435  19.186  0.00  0.00    +0.000 A 
ATOM     24  C   UNL     1       0.347  12.925  20.274  0.00  0.00    +0.000 A 
ATOM     25  C   UNL     1       0.237  11.546  20.486  0.00  0.00    +0.000 A 
ATOM     26  C   UNL     1       0.904  10.734  19.571  0.00  0.00    +0.000 A 
ATOM     27  O   UNL     1       0.980   9.374  19.575  0.00  0.00    +0.000 OA
ENDBRANCH  18  19
ENDBRANCH  17  18
ENDBRANCH   6  17
TORSDOF 6
ENDMDL
MODEL 7
REMARK VINA RESULT:      -8.3      1.798      2.821
REMARK  Name = 
REMARK  8 active torsions:
REMARK  status: ('A' for Active; 'I' for Inactive)
REMARK    1  A    between atoms: C_1  and  C_2
REMARK    2  A    between atoms: C_2  and  C_3
REMARK    3  A    between atoms: C_3  and  C_4
REMARK    4  A    between atoms: C_4  and  C_5
REMARK    5  A    between atoms: N_8  and  C_9
REMARK    6  A    between atoms: C_14  and  C_15
REMARK    7  A    between atoms: C_15  and  S_16
REMARK    8  A    between atoms: S_16  and  C_17
REMARK                            x       y       z     vdW  Elec       q    Type
REMARK                         _______ _______ _______ _____ _____    ______ ____
ROOT
ATOM      1  C   UNL     1       3.370   4.313  19.396  0.00  0.00    +0.000 A 
ATOM      2  C   UNL     1       2.996   2.958  19.578  0.00  0.00    +0.000 A 
ATOM      3  C   UNL     1       1.815   2.605  20.230  0.00  0.00    +0.000 A 
ATOM      4  C   UNL     1       0.962   3.597  20.685  0.00  0.00    +0.000 A 
ATOM      5  C   UNL     1       1.313   4.938  20.525  0.00  0.00    +0.000 A 
ATOM      6  C   UNL     1       2.525   5.329  19.909  0.00  0.00    +0.000 A 
ENDROOT
BRANCH   1  10
ATOM      7  C   UNL     1       5.996   5.271  17.352  0.00  0.00    +0.000 C 
ATOM      8  C   UNL     1       4.691   4.428  17.240  0.00  0.00    +0.000 C 
ATOM      9  O   UNL     1       4.061   3.934  16.337  0.00  0.00    +0.000 OA
ATOM     10  N   UNL     1       4.479   4.573  18.587  0.00  0.00    +0.000 N 
ATOM     11  C   UNL     1       5.788   4.870  18.835  0.00  0.00    +0.000 C 
ATOM     12  O   UNL     1       6.513   4.724  19.791  0.00  0.00    +0.000 OA
BRANCH   7  14
ATOM     13  C   UNL     1       7.250   4.796  15.210  0.00  0.00    +0.000 C 
ATOM     14  C   UNL     1       7.266   4.686  16.734  0.00  0.00    +0.000 C 
ENDBRANCH   7  14
BRANCH   7  15
ATOM     15  C   UNL     1       5.734   6.764  17.060  0.00  0.00    +0.000 C 
ATOM     16  C   UNL     1       6.953   7.626  17.346  0.00  0.00    +0.000 C 
ENDBRANCH   7  15
ENDBRANCH   1  10
BRANCH   6  17
ATOM     17  C   UNL     1       2.750   6.836  19.782  0.00  0.00    +0.000 C 
BRANCH  17  18
ATOM     18  S   UNL     1       2.171   7.507  18.199  0.00  0.00    +0.000 S 
BRANCH  18  19
ATOM     19  C   UNL     1       1.723   9.149  18.608  0.00  0.00    +0.000 A 
ATOM     20  N   UNL     1       0.802   9.503  19.487  0.00  0.00    +0.000 NA
ATOM     21  C   UNL     1       0.788  10.882  19.423  0.00  0.00    +0.000 A 
ATOM     22  C   UNL     1       0.016  11.846  20.091  0.00  0.00    +0.000 A 
ATOM     23  C   UNL     1       0.203  13.202  19.762  0.00  0.00    +0.000 A 
ATOM     24  C   UNL     1       1.150  13.590  18.806  0.00  0.00    +0.000 A 
ATOM     25  C   UNL     1       1.948  12.645  18.152  0.00  0.00    +0.000 A 
ATOM     26  C   UNL     1       1.719  11.314  18.494  0.00  0.00    +0.000 A 
ATOM     27  O   UNL     1       2.334  10.212  17.982  0.00  0.00    +0.000 OA
ENDBRANCH  18  19
ENDBRANCH  17  18
ENDBRANCH   6  17
TORSDOF 6
ENDMDL
MODEL 8
REMARK VINA RESULT:      -8.2      1.983      4.315
REMARK  Name = 
REMARK  8 active torsions:
REMARK  status: ('A' for Active; 'I' for Inactive)
REMARK    1  A    between atoms: C_1  and  C_2
REMARK    2  A    between atoms: C_2  and  C_3
REMARK    3  A    between atoms: C_3  and  C_4
REMARK    4  A    between atoms: C_4  and  C_5
REMARK    5  A    between atoms: N_8  and  C_9
REMARK    6  A    between atoms: C_14  and  C_15
REMARK    7  A    between atoms: C_15  and  S_16
REMARK    8  A    between atoms: S_16  and  C_17
REMARK                            x       y       z     vdW  Elec       q    Type
REMARK                         _______ _______ _______ _____ _____    ______ ____
ROOT
ATOM      1  C   UNL     1       4.052   4.839  17.246  0.00  0.00    +0.000 A 
ATOM      2  C   UNL     1       4.672   4.037  16.256  0.00  0.00    +0.000 A 
ATOM      3  C   UNL     1       5.481   4.591  15.265  0.00  0.00    +0.000 A 
ATOM      4  C   UNL     1       5.718   5.955  15.259  0.00  0.00    +0.000 A 
ATOM      5  C   UNL     1       5.112   6.767  16.219  0.00  0.00    +0.000 A 
ATOM      6  C   UNL     1       4.250   6.243  17.210  0.00  0.00    +0.000 A 
ENDROOT
BRANCH   1  10
ATOM      7  C   UNL     1       2.449   3.507  20.012  0.00  0.00    +0.000 C 
ATOM      8  C   UNL     1       3.869   3.478  19.372  0.00  0.00    +0.000 C 
ATOM      9  O   UNL     1       4.960   3.091  19.716  0.00  0.00    +0.000 OA
ATOM     10  N   UNL     1       3.400   4.184  18.294  0.00  0.00    +0.000 N 
ATOM     11  C   UNL     1       2.103   3.833  18.536  0.00  0.00    +0.000 C 
ATOM     12  O   UNL     1       1.129   3.690  17.834  0.00  0.00    +0.000 OA
BRANCH   7  14
ATOM     13  C   UNL     1       1.481   2.239  21.972  0.00  0.00    +0.000 C 
ATOM     14  C   UNL     1       1.868   2.177  20.495  0.00  0.00    +0.000 C 
ENDBRANCH   7  14
BRANCH   7  15
ATOM     15  C   UNL     1       2.285   4.701  20.976  0.00  0.00    +0.000 C 
ATOM     16  C   UNL     1       1.019   5.494  20.694  0.00  0.00    +0.000 C 
ENDBRANCH   7  15
ENDBRANCH   1  10
BRANCH   6  17
ATOM     17  C   UNL     1       3.688   7.257  18.206  0.00  0.00    +0.000 C 
BRANCH  17  18
ATOM     18  S   UNL     1       2.477   8.383  17.459  0.00  0.00    +0.000 S 
BRANCH  18  19
ATOM     19  C   UNL     1       1.582   8.972  18.844  0.00  0.00    +0.000 A 
ATOM     20  N   UNL     1       0.715   9.970  18.837  0.00  0.00    +0.000 NA
ATOM     21  C   UNL     1       0.317  10.078  20.154  0.00  0.00    +0.000 A 
ATOM     22  C   UNL     1      -0.569  10.957  20.799  0.00  0.00    +0.000 A 
ATOM     23  C   UNL     1      -0.728  10.847  22.193  0.00  0.00    +0.000 A 
ATOM     24  C   UNL     1      -0.039   9.872  22.925  0.00  0.00    +0.000 A 
ATOM     25  C   UNL     1       0.824   8.968  22.294  0.00  0.00    +0.000 A 
ATOM     26  C   UNL     1       0.967   9.123  20.917  0.00  0.00    +0.000 A 
ATOM     27  O   UNL     1       1.764   8.400  20.083  0.00  0.00    +0.000 OA
ENDBRANCH  18  19
ENDBRANCH  17  18
ENDBRANCH   6  17
TORSDOF 6
ENDMDL
MODEL 9
REMARK VINA RESULT:      -8.1      1.500      2.447
REMARK  Name = 
REMARK  8 active torsions:
REMARK  status: ('A' for Active; 'I' for Inactive)
REMARK    1  A    between atoms: C_1  and  C_2
REMARK    2  A    between atoms: C_2  and  C_3
REMARK    3  A    between atoms: C_3  and  C_4
REMARK    4  A    between atoms: C_4  and  C_5
REMARK    5  A    between atoms: N_8  and  C_9
REMARK    6  A    between atoms: C_14  and  C_15
REMARK    7  A    between atoms: C_15  and  S_16
REMARK    8  A    between atoms: S_16  and  C_17
REMARK                            x       y       z     vdW  Elec       q    Type
REMARK                         _______ _______ _______ _____ _____    ______ ____
ROOT
ATOM      1  C   UNL     1       3.414   4.202  19.645  0.00  0.00    +0.000 A 
ATOM      2  C   UNL     1       3.580   3.156  20.586  0.00  0.00    +0.000 A 
ATOM      3  C   UNL     1       2.528   2.722  21.392  0.00  0.00    +0.000 A 
ATOM      4  C   UNL     1       1.277   3.299  21.255  0.00  0.00    +0.000 A 
ATOM      5  C   UNL     1       1.091   4.337  20.340  0.00  0.00    +0.000 A 
ATOM      6  C   UNL     1       2.147   4.831  19.539  0.00  0.00    +0.000 A 
ENDROOT
BRANCH   1  10
ATOM      7  C   UNL     1       5.886   5.125  17.402  0.00  0.00    +0.000 C 
ATOM      8  C   UNL     1       4.640   4.190  17.431  0.00  0.00    +0.000 C 
ATOM      9  O   UNL     1       4.013   3.567  16.609  0.00  0.00    +0.000 OA
ATOM     10  N   UNL     1       4.470   4.454  18.766  0.00  0.00    +0.000 N 
ATOM     11  C   UNL     1       5.763   4.861  18.925  0.00  0.00    +0.000 C 
ATOM     12  O   UNL     1       6.533   4.859  19.858  0.00  0.00    +0.000 OA
BRANCH   7  14
ATOM     13  C   UNL     1       7.181   4.730  15.268  0.00  0.00    +0.000 C 
ATOM     14  C   UNL     1       7.170   4.567  16.788  0.00  0.00    +0.000 C 
ENDBRANCH   7  14
BRANCH   7  15
ATOM     15  C   UNL     1       5.508   6.560  16.980  0.00  0.00    +0.000 C 
ATOM     16  C   UNL     1       4.963   6.615  15.562  0.00  0.00    +0.000 C 
ENDBRANCH   7  15
ENDBRANCH   1  10
BRANCH   6  17
ATOM     17  C   UNL     1       1.776   5.950  18.567  0.00  0.00    +0.000 C 
BRANCH  17  18
ATOM     18  S   UNL     1       2.711   7.478  18.859  0.00  0.00    +0.000 S 
BRANCH  18  19
ATOM     19  C   UNL     1       1.611   8.432  19.831  0.00  0.00    +0.000 A 
ATOM     20  N   UNL     1       0.981   9.526  19.439  0.00  0.00    +0.000 NA
ATOM     21  C   UNL     1       0.278   9.928  20.557  0.00  0.00    +0.000 A 
ATOM     22  C   UNL     1      -0.563  11.028  20.792  0.00  0.00    +0.000 A 
ATOM     23  C   UNL     1      -1.100  11.198  22.082  0.00  0.00    +0.000 A 
ATOM     24  C   UNL     1      -0.824  10.285  23.107  0.00  0.00    +0.000 A 
ATOM     25  C   UNL     1      -0.011   9.167  22.882  0.00  0.00    +0.000 A 
ATOM     26  C   UNL     1       0.514   9.046  21.597  0.00  0.00    +0.000 A 
ATOM     27  O   UNL     1       1.351   8.076  21.136  0.00  0.00    +0.000 OA
ENDBRANCH  18  19
ENDBRANCH  17  18
ENDBRANCH   6  17
TORSDOF 6
ENDMDL
