MODEL 1
REMARK VINA RESULT:      -7.1      0.000      0.000
REMARK  Name = 
REMARK  11 active torsions:
REMARK  status: ('A' for Active; 'I' for Inactive)
REMARK    1  A    between atoms: C_1  and  C_2
REMARK    2  A    between atoms: C_2  and  C_3
REMARK    3  A    between atoms: C_2  and  C_4
REMARK    4  A    between atoms: C_2  and  N_5
REMARK    5  A    between atoms: N_5  and  C_6
REMARK    6  A    between atoms: C_6  and  C_7
REMARK    7  A    between atoms: C_7  and  O_8
REMARK    8  A    between atoms: C_7  and  C_9
REMARK    9  A    between atoms: C_9  and  O_10
REMARK   10  A    between atoms: O_10  and  C_11
REMARK   11  A    between atoms: C_17  and  C_18
REMARK                            x       y       z     vdW  Elec       q    Type
REMARK                         _______ _______ _______ _____ _____    ______ ____
ROOT
ATOM      1  C   UNL     1       4.209   4.823  19.034  0.00  0.00    +0.000 A 
ATOM      2  C   UNL     1       4.472   3.445  18.984  0.00  0.00    +0.000 A 
ATOM      3  C   UNL     1       3.428   2.523  18.905  0.00  0.00    +0.000 A 
ATOM      4  C   UNL     1       2.111   2.970  18.885  0.00  0.00    +0.000 A 
ATOM      5 CL   UNL     1       0.830   1.824  18.817  0.00  0.00    +0.000 Cl
ATOM      6  C   UNL     1       1.830   4.333  18.917  0.00  0.00    +0.000 A 
ATOM      7  C   UNL     1       2.875   5.271  18.972  0.00  0.00    +0.000 A 
ENDROOT
BRANCH   7   8
ATOM      8  C   UNL     1       2.507   6.727  18.995  0.00  0.00    +0.000 C 
ATOM      9  N   UNL     1       1.959   7.211  20.075  0.00  0.00    +0.000 NA
ATOM     10  N   UNL     1       1.647   8.533  20.102  0.00  0.00    +0.000 N 
ATOM     11  C   UNL     1       1.653   9.402  19.045  0.00  0.00    +0.000 C 
ATOM     12  O   UNL     1       1.360  10.589  19.187  0.00  0.00    +0.000 OA
ATOM     13  C   UNL     1       1.922   8.802  17.698  0.00  0.00    +0.000 C 
ATOM     14  C   UNL     1       2.812   7.586  17.787  0.00  0.00    +0.000 C 
ATOM     15  H   UNL     1       1.373   8.912  21.002  0.00  0.00    +0.000 HD
ENDBRANCH   7   8
BRANCH   1  16
ATOM     16  O   UNL     1       5.183   5.772  19.185  0.00  0.00    +0.000 OA
BRANCH  16  17
ATOM     17  C   UNL     1       6.491   5.331  19.523  0.00  0.00    +0.000 C 
BRANCH  17  18
ATOM     18  C   UNL     1       7.504   5.792  18.461  0.00  0.00    +0.000 C 
BRANCH  18  19
ATOM     19  O   UNL     1       7.098   7.038  17.873  0.00  0.00    +0.000 OA
ATOM     20  H   UNL     1       6.840   7.643  18.586  0.00  0.00    +0.000 HD
ENDBRANCH  18  19
BRANCH  18  21
ATOM     21  C   UNL     1       7.557   4.693  17.383  0.00  0.00    +0.000 C 
BRANCH  21  22
ATOM     22  N   UNL     1       7.533   5.220  16.019  0.00  0.00    +0.000 NA
ATOM     23  H   UNL     1       7.614   6.238  16.052  0.00  0.00    +0.000 HD
BRANCH  22  25
ATOM     24  C   UNL     1       5.748   3.489  15.719  0.00  0.00    +0.000 C 
ATOM     25  C   UNL     1       6.368   4.805  15.214  0.00  0.00    +0.000 C 
ATOM     26  C   UNL     1       6.746   4.669  13.728  0.00  0.00    +0.000 C 
ATOM     27  C   UNL     1       5.312   5.917  15.343  0.00  0.00    +0.000 C 
ENDBRANCH  22  25
ENDBRANCH  21  22
ENDBRANCH  18  21
ENDBRANCH  17  18
ENDBRANCH  16  17
ENDBRANCH   1  16
TORSDOF 8
ENDMDL
MODEL 2
REMARK VINA RESULT:      -7.0      0.553      1.029
REMARK  Name = 
REMARK  11 active torsions:
REMARK  status: ('A' for Active; 'I' for Inactive)
REMARK    1  A    between atoms: C_1  and  C_2
REMARK    2  A    between atoms: C_2  and  C_3
REMARK    3  A    between atoms: C_2  and  C_4
REMARK    4  A    between atoms: C_2  and  N_5
REMARK    5  A    between atoms: N_5  and  C_6
REMARK    6  A    between atoms: C_6  and  C_7
REMARK    7  A    between atoms: C_7  and  O_8
REMARK    8  A    between atoms: C_7  and  C_9
REMARK    9  A    between atoms: C_9  and  O_10
REMARK   10  A    between atoms: O_10  and  C_11
REMARK   11  A    between atoms: C_17  and  C_18
REMARK                            x       y       z     vdW  Elec       q    Type
REMARK                         _______ _______ _______ _____ _____    ______ ____
ROOT
ATOM      1  C   UNL     1       4.022   4.811  19.395  0.00  0.00    +0.000 A 
ATOM      2  C   UNL     1       4.279   3.433  19.344  0.00  0.00    +0.000 A 
ATOM      3  C   UNL     1       3.248   2.525  19.100  0.00  0.00    +0.000 A 
ATOM      4  C   UNL     1       1.950   2.986  18.914  0.00  0.00    +0.000 A 
ATOM      5 CL   UNL     1       0.681   1.857  18.643  0.00  0.00    +0.000 Cl
ATOM      6  C   UNL     1       1.677   4.352  18.943  0.00  0.00    +0.000 A 
ATOM      7  C   UNL     1       2.712   5.276  19.164  0.00  0.00    +0.000 A 
ENDROOT
BRANCH   7   8
ATOM      8  C   UNL     1       2.356   6.735  19.175  0.00  0.00    +0.000 C 
ATOM      9  N   UNL     1       1.833   7.238  20.259  0.00  0.00    +0.000 NA
ATOM     10  N   UNL     1       1.531   8.562  20.275  0.00  0.00    +0.000 N 
ATOM     11  C   UNL     1       1.523   9.417  19.206  0.00  0.00    +0.000 C 
ATOM     12  O   UNL     1       1.242  10.607  19.339  0.00  0.00    +0.000 OA
ATOM     13  C   UNL     1       1.761   8.798  17.862  0.00  0.00    +0.000 C 
ATOM     14  C   UNL     1       2.644   7.576  17.950  0.00  0.00    +0.000 C 
ATOM     15  H   UNL     1       1.278   8.954  21.175  0.00  0.00    +0.000 HD
ENDBRANCH   7   8
BRANCH   1  16
ATOM     16  O   UNL     1       4.974   5.746  19.701  0.00  0.00    +0.000 OA
BRANCH  16  17
ATOM     17  C   UNL     1       5.887   6.122  18.679  0.00  0.00    +0.000 C 
BRANCH  17  18
ATOM     18  C   UNL     1       7.238   5.413  18.878  0.00  0.00    +0.000 C 
BRANCH  18  19
ATOM     19  O   UNL     1       8.284   6.366  19.126  0.00  0.00    +0.000 OA
ATOM     20  H   UNL     1       8.102   6.809  19.970  0.00  0.00    +0.000 HD
ENDBRANCH  18  19
BRANCH  18  21
ATOM     21  C   UNL     1       7.532   4.632  17.584  0.00  0.00    +0.000 C 
BRANCH  21  22
ATOM     22  N   UNL     1       7.442   5.455  16.379  0.00  0.00    +0.000 NA
ATOM     23  H   UNL     1       7.291   6.429  16.649  0.00  0.00    +0.000 HD
BRANCH  22  25
ATOM     24  C   UNL     1       7.033   4.772  14.004  0.00  0.00    +0.000 C 
ATOM     25  C   UNL     1       6.430   5.012  15.400  0.00  0.00    +0.000 C 
ATOM     26  C   UNL     1       5.275   6.026  15.304  0.00  0.00    +0.000 C 
ATOM     27  C   UNL     1       5.859   3.678  15.914  0.00  0.00    +0.000 C 
ENDBRANCH  22  25
ENDBRANCH  21  22
ENDBRANCH  18  21
ENDBRANCH  17  18
ENDBRANCH  16  17
ENDBRANCH   1  16
TORSDOF 8
ENDMDL
MODEL 3
REMARK VINA RESULT:      -7.0      0.962      1.337
REMARK  Name = 
REMARK  11 active torsions:
REMARK  status: ('A' for Active; 'I' for Inactive)
REMARK    1  A    between atoms: C_1  and  C_2
REMARK    2  A    between atoms: C_2  and  C_3
REMARK    3  A    between atoms: C_2  and  C_4
REMARK    4  A    between atoms: C_2  and  N_5
REMARK    5  A    between atoms: N_5  and  C_6
REMARK    6  A    between atoms: C_6  and  C_7
REMARK    7  A    between atoms: C_7  and  O_8
REMARK    8  A    between atoms: C_7  and  C_9
REMARK    9  A    between atoms: C_9  and  O_10
REMARK   10  A    between atoms: O_10  and  C_11
REMARK   11  A    between atoms: C_17  and  C_18
REMARK                            x       y       z     vdW  Elec       q    Type
REMARK                         _______ _______ _______ _____ _____    ______ ____
ROOT
ATOM      1  C   UNL     1       4.278   4.703  19.361  0.00  0.00    +0.000 A 
ATOM      2  C   UNL     1       4.544   3.374  19.722  0.00  0.00    +0.000 A 
ATOM      3  C   UNL     1       3.608   2.631  20.443  0.00  0.00    +0.000 A 
ATOM      4  C   UNL     1       2.403   3.214  20.817  0.00  0.00    +0.000 A 
ATOM      5 CL   UNL     1       1.268   2.300  21.730  0.00  0.00    +0.000 Cl
ATOM      6  C   UNL     1       2.113   4.527  20.454  0.00  0.00    +0.000 A 
ATOM      7  C   UNL     1       3.038   5.276  19.707  0.00  0.00    +0.000 A 
ENDROOT
BRANCH   7   8
ATOM      8  C   UNL     1       2.664   6.683  19.339  0.00  0.00    +0.000 C 
ATOM      9  N   UNL     1       1.970   7.384  20.192  0.00  0.00    +0.000 NA
ATOM     10  N   UNL     1       1.651   8.663  19.867  0.00  0.00    +0.000 N 
ATOM     11  C   UNL     1       1.799   9.263  18.645  0.00  0.00    +0.000 C 
ATOM     12  O   UNL     1       1.484  10.439  18.465  0.00  0.00    +0.000 OA
ATOM     13  C   UNL     1       2.254   8.378  17.525  0.00  0.00    +0.000 C 
ATOM     14  C   UNL     1       3.129   7.249  18.014  0.00  0.00    +0.000 C 
ATOM     15  H   UNL     1       1.254   9.230  20.608  0.00  0.00    +0.000 HD
ENDBRANCH   7   8
BRANCH   1  16
ATOM     16  O   UNL     1       5.182   5.506  18.720  0.00  0.00    +0.000 OA
BRANCH  16  17
ATOM     17  C   UNL     1       6.433   5.735  19.355  0.00  0.00    +0.000 C 
BRANCH  17  18
ATOM     18  C   UNL     1       7.563   5.787  18.312  0.00  0.00    +0.000 C 
BRANCH  18  19
ATOM     19  O   UNL     1       7.476   6.985  17.523  0.00  0.00    +0.000 OA
ATOM     20  H   UNL     1       8.367   7.210  17.210  0.00  0.00    +0.000 HD
ENDBRANCH  18  19
BRANCH  18  21
ATOM     21  C   UNL     1       7.401   4.549  17.411  0.00  0.00    +0.000 C 
BRANCH  21  22
ATOM     22  N   UNL     1       7.407   4.868  15.984  0.00  0.00    +0.000 NA
ATOM     23  H   UNL     1       7.751   5.822  15.855  0.00  0.00    +0.000 HD
BRANCH  22  25
ATOM     24  C   UNL     1       5.288   5.969  15.229  0.00  0.00    +0.000 C 
ATOM     25  C   UNL     1       6.114   4.672  15.300  0.00  0.00    +0.000 C 
ATOM     26  C   UNL     1       5.292   3.564  15.984  0.00  0.00    +0.000 C 
ATOM     27  C   UNL     1       6.429   4.221  13.862  0.00  0.00    +0.000 C 
ENDBRANCH  22  25
ENDBRANCH  21  22
ENDBRANCH  18  21
ENDBRANCH  17  18
ENDBRANCH  16  17
ENDBRANCH   1  16
TORSDOF 8
ENDMDL
MODEL 4
REMARK VINA RESULT:      -6.9      2.977      4.143
REMARK  Name = 
REMARK  11 active torsions:
REMARK  status: ('A' for Active; 'I' for Inactive)
REMARK    1  A    between atoms: C_1  and  C_2
REMARK    2  A    between atoms: C_2  and  C_3
REMARK    3  A    between atoms: C_2  and  C_4
REMARK    4  A    between atoms: C_2  and  N_5
REMARK    5  A    between atoms: N_5  and  C_6
REMARK    6  A    between atoms: C_6  and  C_7
REMARK    7  A    between atoms: C_7  and  O_8
REMARK    8  A    between atoms: C_7  and  C_9
REMARK    9  A    between atoms: C_9  and  O_10
REMARK   10  A    between atoms: O_10  and  C_11
REMARK   11  A    between atoms: C_17  and  C_18
REMARK                            x       y       z     vdW  Elec       q    Type
REMARK                         _______ _______ _______ _____ _____    ______ ____
ROOT
ATOM      1  C   UNL     1       3.800   4.061  17.107  0.00  0.00    +0.000 A 
ATOM      2  C   UNL     1       2.648   3.261  17.145  0.00  0.00    +0.000 A 
ATOM      3  C   UNL     1       1.833   3.240  18.278  0.00  0.00    +0.000 A 
ATOM      4  C   UNL     1       2.167   4.011  19.385  0.00  0.00    +0.000 A 
ATOM      5 CL   UNL     1       1.173   3.956  20.787  0.00  0.00    +0.000 Cl
ATOM      6  C   UNL     1       3.298   4.825  19.361  0.00  0.00    +0.000 A 
ATOM      7  C   UNL     1       4.111   4.872  18.216  0.00  0.00    +0.000 A 
ENDROOT
BRANCH   7   8
ATOM      8  C   UNL     1       5.311   5.775  18.248  0.00  0.00    +0.000 C 
ATOM      9  N   UNL     1       5.359   6.773  17.411  0.00  0.00    +0.000 NA
ATOM     10  N   UNL     1       6.435   7.602  17.456  0.00  0.00    +0.000 N 
ATOM     11  C   UNL     1       7.596   7.405  18.152  0.00  0.00    +0.000 C 
ATOM     12  O   UNL     1       8.507   8.233  18.130  0.00  0.00    +0.000 OA
ATOM     13  C   UNL     1       7.737   6.083  18.844  0.00  0.00    +0.000 C 
ATOM     14  C   UNL     1       6.401   5.520  19.267  0.00  0.00    +0.000 C 
ATOM     15  H   UNL     1       6.370   8.453  16.908  0.00  0.00    +0.000 HD
ENDBRANCH   7   8
BRANCH   1  16
ATOM     16  O   UNL     1       4.678   4.070  16.057  0.00  0.00    +0.000 OA
BRANCH  16  17
ATOM     17  C   UNL     1       6.020   3.679  16.313  0.00  0.00    +0.000 C 
BRANCH  17  18
ATOM     18  C   UNL     1       6.949   4.185  15.195  0.00  0.00    +0.000 C 
BRANCH  18  19
ATOM     19  O   UNL     1       7.455   5.494  15.503  0.00  0.00    +0.000 OA
ATOM     20  H   UNL     1       8.217   5.396  16.096  0.00  0.00    +0.000 HD
ENDBRANCH  18  19
BRANCH  18  21
ATOM     21  C   UNL     1       6.113   4.235  13.903  0.00  0.00    +0.000 C 
BRANCH  21  22
ATOM     22  N   UNL     1       5.867   2.916  13.322  0.00  0.00    +0.000 NA
ATOM     23  H   UNL     1       6.561   2.257  13.682  0.00  0.00    +0.000 HD
BRANCH  22  25
ATOM     24  C   UNL     1       6.893   3.790  11.211  0.00  0.00    +0.000 C 
ATOM     25  C   UNL     1       5.821   2.887  11.847  0.00  0.00    +0.000 C 
ATOM     26  C   UNL     1       4.426   3.288  11.332  0.00  0.00    +0.000 C 
ATOM     27  C   UNL     1       6.094   1.434  11.416  0.00  0.00    +0.000 C 
ENDBRANCH  22  25
ENDBRANCH  21  22
ENDBRANCH  18  21
ENDBRANCH  17  18
ENDBRANCH  16  17
ENDBRANCH   1  16
TORSDOF 8
ENDMDL
MODEL 5
REMARK VINA RESULT:      -6.9      2.958      4.033
REMARK  Name = 
REMARK  11 active torsions:
REMARK  status: ('A' for Active; 'I' for Inactive)
REMARK    1  A    between atoms: C_1  and  C_2
REMARK    2  A    between atoms: C_2  and  C_3
REMARK    3  A    between atoms: C_2  and  C_4
REMARK    4  A    between atoms: C_2  and  N_5
REMARK    5  A    between atoms: N_5  and  C_6
REMARK    6  A    between atoms: C_6  and  C_7
REMARK    7  A    between atoms: C_7  and  O_8
REMARK    8  A    between atoms: C_7  and  C_9
REMARK    9  A    between atoms: C_9  and  O_10
REMARK   10  A    between atoms: O_10  and  C_11
REMARK   11  A    between atoms: C_17  and  C_18
REMARK                            x       y       z     vdW  Elec       q    Type
REMARK                         _______ _______ _______ _____ _____    ______ ____
ROOT
ATOM      1  C   UNL     1       3.714   4.026  17.268  0.00  0.00    +0.000 A 
ATOM      2  C   UNL     1       2.650   3.126  17.433  0.00  0.00    +0.000 A 
ATOM      3  C   UNL     1       2.100   2.899  18.696  0.00  0.00    +0.000 A 
ATOM      4  C   UNL     1       2.615   3.562  19.804  0.00  0.00    +0.000 A 
ATOM      5 CL   UNL     1       1.949   3.253  21.360  0.00  0.00    +0.000 Cl
ATOM      6  C   UNL     1       3.660   4.471  19.658  0.00  0.00    +0.000 A 
ATOM      7  C   UNL     1       4.205   4.725  18.388  0.00  0.00    +0.000 A 
ENDROOT
BRANCH   7   8
ATOM      8  C   UNL     1       5.324   5.723  18.295  0.00  0.00    +0.000 C 
ATOM      9  N   UNL     1       5.141   6.796  17.577  0.00  0.00    +0.000 NA
ATOM     10  N   UNL     1       6.146   7.707  17.512  0.00  0.00    +0.000 N 
ATOM     11  C   UNL     1       7.431   7.548  17.954  0.00  0.00    +0.000 C 
ATOM     12  O   UNL     1       8.262   8.450  17.853  0.00  0.00    +0.000 OA
ATOM     13  C   UNL     1       7.793   6.183  18.458  0.00  0.00    +0.000 C 
ATOM     14  C   UNL     1       6.606   5.469  19.059  0.00  0.00    +0.000 C 
ATOM     15  H   UNL     1       5.918   8.597  17.082  0.00  0.00    +0.000 HD
ENDBRANCH   7   8
BRANCH   1  16
ATOM     16  O   UNL     1       4.344   4.238  16.072  0.00  0.00    +0.000 OA
BRANCH  16  17
ATOM     17  C   UNL     1       5.632   3.663  15.890  0.00  0.00    +0.000 C 
BRANCH  17  18
ATOM     18  C   UNL     1       6.574   4.665  15.201  0.00  0.00    +0.000 C 
BRANCH  18  19
ATOM     19  O   UNL     1       5.932   5.939  15.031  0.00  0.00    +0.000 OA
ATOM     20  H   UNL     1       5.382   6.111  15.812  0.00  0.00    +0.000 HD
ENDBRANCH  18  19
BRANCH  18  21
ATOM     21  C   UNL     1       6.937   4.071  13.827  0.00  0.00    +0.000 C 
BRANCH  21  22
ATOM     22  N   UNL     1       6.025   3.013  13.396  0.00  0.00    +0.000 NA
ATOM     23  H   UNL     1       6.344   2.120  13.778  0.00  0.00    +0.000 HD
BRANCH  22  25
ATOM     24  C   UNL     1       4.406   3.353  11.516  0.00  0.00    +0.000 C 
ATOM     25  C   UNL     1       5.823   2.925  11.936  0.00  0.00    +0.000 C 
ATOM     26  C   UNL     1       6.114   1.502  11.425  0.00  0.00    +0.000 C 
ATOM     27  C   UNL     1       6.832   3.887  11.283  0.00  0.00    +0.000 C 
ENDBRANCH  22  25
ENDBRANCH  21  22
ENDBRANCH  18  21
ENDBRANCH  17  18
ENDBRANCH  16  17
ENDBRANCH   1  16
TORSDOF 8
ENDMDL
MODEL 6
REMARK VINA RESULT:      -6.9      3.012      5.773
REMARK  Name = 
REMARK  11 active torsions:
REMARK  status: ('A' for Active; 'I' for Inactive)
REMARK    1  A    between atoms: C_1  and  C_2
REMARK    2  A    between atoms: C_2  and  C_3
REMARK    3  A    between atoms: C_2  and  C_4
REMARK    4  A    between atoms: C_2  and  N_5
REMARK    5  A    between atoms: N_5  and  C_6
REMARK    6  A    between atoms: C_6  and  C_7
REMARK    7  A    between atoms: C_7  and  O_8
REMARK    8  A    between atoms: C_7  and  C_9
REMARK    9  A    between atoms: C_9  and  O_10
REMARK   10  A    between atoms: O_10  and  C_11
REMARK   11  A    between atoms: C_17  and  C_18
REMARK                            x       y       z     vdW  Elec       q    Type
REMARK                         _______ _______ _______ _____ _____    ______ ____
ROOT
ATOM      1  C   UNL     1       4.212   5.860  19.094  0.00  0.00    +0.000 A 
ATOM      2  C   UNL     1       3.208   6.290  19.975  0.00  0.00    +0.000 A 
ATOM      3  C   UNL     1       2.308   7.286  19.595  0.00  0.00    +0.000 A 
ATOM      4  C   UNL     1       2.410   7.867  18.336  0.00  0.00    +0.000 A 
ATOM      5 CL   UNL     1       1.314   9.115  17.889  0.00  0.00    +0.000 Cl
ATOM      6  C   UNL     1       3.389   7.442  17.442  0.00  0.00    +0.000 A 
ATOM      7  C   UNL     1       4.285   6.422  17.805  0.00  0.00    +0.000 A 
ENDROOT
BRANCH   7   8
ATOM      8  C   UNL     1       5.313   6.002  16.793  0.00  0.00    +0.000 C 
ATOM      9  N   UNL     1       6.492   6.557  16.840  0.00  0.00    +0.000 NA
ATOM     10  N   UNL     1       7.427   6.160  15.938  0.00  0.00    +0.000 N 
ATOM     11  C   UNL     1       7.225   5.375  14.834  0.00  0.00    +0.000 C 
ATOM     12  O   UNL     1       8.153   5.067  14.087  0.00  0.00    +0.000 OA
ATOM     13  C   UNL     1       5.802   5.014  14.532  0.00  0.00    +0.000 C 
ATOM     14  C   UNL     1       4.960   4.933  15.782  0.00  0.00    +0.000 C 
ATOM     15  H   UNL     1       8.373   6.487  16.097  0.00  0.00    +0.000 HD
ENDBRANCH   7   8
BRANCH   1  16
ATOM     16  O   UNL     1       5.169   4.941  19.432  0.00  0.00    +0.000 OA
BRANCH  16  17
ATOM     17  C   UNL     1       4.939   3.584  19.076  0.00  0.00    +0.000 C 
BRANCH  17  18
ATOM     18  C   UNL     1       4.703   2.731  20.335  0.00  0.00    +0.000 C 
BRANCH  18  19
ATOM     19  O   UNL     1       5.305   1.434  20.195  0.00  0.00    +0.000 OA
ATOM     20  H   UNL     1       5.702   1.188  21.046  0.00  0.00    +0.000 HD
ENDBRANCH  18  19
BRANCH  18  21
ATOM     21  C   UNL     1       3.179   2.589  20.504  0.00  0.00    +0.000 C 
BRANCH  21  22
ATOM     22  N   UNL     1       2.487   2.261  19.259  0.00  0.00    +0.000 NA
ATOM     23  H   UNL     1       3.146   2.333  18.480  0.00  0.00    +0.000 HD
BRANCH  22  25
ATOM     24  C   UNL     1       1.434   4.004  17.801  0.00  0.00    +0.000 C 
ATOM     25  C   UNL     1       1.268   3.051  18.999  0.00  0.00    +0.000 C 
ATOM     26  C   UNL     1       0.853   3.849  20.249  0.00  0.00    +0.000 C 
ATOM     27  C   UNL     1       0.145   2.052  18.669  0.00  0.00    +0.000 C 
ENDBRANCH  22  25
ENDBRANCH  21  22
ENDBRANCH  18  21
ENDBRANCH  17  18
ENDBRANCH  16  17
ENDBRANCH   1  16
TORSDOF 8
ENDMDL
MODEL 7
REMARK VINA RESULT:      -6.6      3.379      6.081
REMARK  Name = 
REMARK  11 active torsions:
REMARK  status: ('A' for Active; 'I' for Inactive)
REMARK    1  A    between atoms: C_1  and  C_2
REMARK    2  A    between atoms: C_2  and  C_3
REMARK    3  A    between atoms: C_2  and  C_4
REMARK    4  A    between atoms: C_2  and  N_5
REMARK    5  A    between atoms: N_5  and  C_6
REMARK    6  A    between atoms: C_6  and  C_7
REMARK    7  A    between atoms: C_7  and  O_8
REMARK    8  A    between atoms: C_7  and  C_9
REMARK    9  A    between atoms: C_9  and  O_10
REMARK   10  A    between atoms: O_10  and  C_11
REMARK   11  A    between atoms: C_17  and  C_18
REMARK                            x       y       z     vdW  Elec       q    Type
REMARK                         _______ _______ _______ _____ _____    ______ ____
ROOT
ATOM      1  C   UNL     1       6.165   5.098  18.201  0.00  0.00    +0.000 A 
ATOM      2  C   UNL     1       5.501   5.143  19.436  0.00  0.00    +0.000 A 
ATOM      3  C   UNL     1       4.129   4.902  19.516  0.00  0.00    +0.000 A 
ATOM      4  C   UNL     1       3.407   4.624  18.361  0.00  0.00    +0.000 A 
ATOM      5 CL   UNL     1       1.711   4.357  18.465  0.00  0.00    +0.000 Cl
ATOM      6  C   UNL     1       4.051   4.557  17.127  0.00  0.00    +0.000 A 
ATOM      7  C   UNL     1       5.436   4.774  17.039  0.00  0.00    +0.000 A 
ENDROOT
BRANCH   7   8
ATOM      8  C   UNL     1       6.074   4.681  15.682  0.00  0.00    +0.000 C 
ATOM      9  N   UNL     1       6.953   5.583  15.346  0.00  0.00    +0.000 NA
ATOM     10  N   UNL     1       7.544   5.484  14.127  0.00  0.00    +0.000 N 
ATOM     11  C   UNL     1       7.183   4.651  13.102  0.00  0.00    +0.000 C 
ATOM     12  O   UNL     1       7.799   4.638  12.038  0.00  0.00    +0.000 OA
ATOM     13  C   UNL     1       5.934   3.849  13.311  0.00  0.00    +0.000 C 
ATOM     14  C   UNL     1       5.702   3.532  14.769  0.00  0.00    +0.000 C 
ATOM     15  H   UNL     1       8.332   6.100  13.958  0.00  0.00    +0.000 HD
ENDBRANCH   7   8
BRANCH   1  16
ATOM     16  O   UNL     1       7.492   5.395  18.046  0.00  0.00    +0.000 OA
BRANCH  16  17
ATOM     17  C   UNL     1       8.018   6.483  18.795  0.00  0.00    +0.000 C 
BRANCH  17  18
ATOM     18  C   UNL     1       7.775   7.810  18.057  0.00  0.00    +0.000 C 
BRANCH  18  19
ATOM     19  O   UNL     1       8.045   7.673  16.653  0.00  0.00    +0.000 OA
ATOM     20  H   UNL     1       8.687   8.354  16.397  0.00  0.00    +0.000 HD
ENDBRANCH  18  19
BRANCH  18  21
ATOM     21  C   UNL     1       8.725   8.851  18.677  0.00  0.00    +0.000 C 
BRANCH  21  22
ATOM     22  N   UNL     1       8.822  10.084  17.897  0.00  0.00    +0.000 NA
ATOM     23  H   UNL     1       9.289   9.883  17.010  0.00  0.00    +0.000 HD
BRANCH  22  25
ATOM     24  C   UNL     1       9.491  11.018  20.122  0.00  0.00    +0.000 C 
ATOM     25  C   UNL     1       9.469  11.211  18.595  0.00  0.00    +0.000 C 
ATOM     26  C   UNL     1       8.781  12.543  18.246  0.00  0.00    +0.000 C 
ATOM     27  C   UNL     1      10.924  11.275  18.096  0.00  0.00    +0.000 C 
ENDBRANCH  22  25
ENDBRANCH  21  22
ENDBRANCH  18  21
ENDBRANCH  17  18
ENDBRANCH  16  17
ENDBRANCH   1  16
TORSDOF 8
ENDMDL
MODEL 8
REMARK VINA RESULT:      -6.6      2.929      6.773
REMARK  Name = 
REMARK  11 active torsions:
REMARK  status: ('A' for Active; 'I' for Inactive)
REMARK    1  A    between atoms: C_1  and  C_2
REMARK    2  A    between atoms: C_2  and  C_3
REMARK    3  A    between atoms: C_2  and  C_4
REMARK    4  A    between atoms: C_2  and  N_5
REMARK    5  A    between atoms: N_5  and  C_6
REMARK    6  A    between atoms: C_6  and  C_7
REMARK    7  A    between atoms: C_7  and  O_8
REMARK    8  A    between atoms: C_7  and  C_9
REMARK    9  A    between atoms: C_9  and  O_10
REMARK   10  A    between atoms: O_10  and  C_11
REMARK   11  A    between atoms: C_17  and  C_18
REMARK                            x       y       z     vdW  Elec       q    Type
REMARK                         _______ _______ _______ _____ _____    ______ ____
ROOT
ATOM      1  C   UNL     1       3.987   6.366  17.347  0.00  0.00    +0.000 A 
ATOM      2  C   UNL     1       4.754   6.884  16.292  0.00  0.00    +0.000 A 
ATOM      3  C   UNL     1       5.435   6.031  15.422  0.00  0.00    +0.000 A 
ATOM      4  C   UNL     1       5.364   4.655  15.606  0.00  0.00    +0.000 A 
ATOM      5 CL   UNL     1       6.232   3.613  14.547  0.00  0.00    +0.000 Cl
ATOM      6  C   UNL     1       4.595   4.121  16.638  0.00  0.00    +0.000 A 
ATOM      7  C   UNL     1       3.885   4.970  17.504  0.00  0.00    +0.000 A 
ENDROOT
BRANCH   7   8
ATOM      8  C   UNL     1       3.067   4.333  18.591  0.00  0.00    +0.000 C 
ATOM      9  N   UNL     1       3.651   4.052  19.723  0.00  0.00    +0.000 NA
ATOM     10  N   UNL     1       2.904   3.496  20.712  0.00  0.00    +0.000 N 
ATOM     11  C   UNL     1       1.633   3.000  20.604  0.00  0.00    +0.000 C 
ATOM     12  O   UNL     1       1.045   2.526  21.575  0.00  0.00    +0.000 OA
ATOM     13  C   UNL     1       1.053   2.964  19.223  0.00  0.00    +0.000 C 
ATOM     14  C   UNL     1       1.596   4.071  18.351  0.00  0.00    +0.000 C 
ATOM     15  H   UNL     1       3.341   3.438  21.626  0.00  0.00    +0.000 HD
ENDBRANCH   7   8
BRANCH   1  16
ATOM     16  O   UNL     1       3.356   7.149  18.276  0.00  0.00    +0.000 OA
BRANCH  16  17
ATOM     17  C   UNL     1       2.180   7.838  17.872  0.00  0.00    +0.000 C 
BRANCH  17  18
ATOM     18  C   UNL     1       1.861   8.976  18.856  0.00  0.00    +0.000 C 
BRANCH  18  19
ATOM     19  O   UNL     1       1.471   8.452  20.136  0.00  0.00    +0.000 OA
ATOM     20  H   UNL     1       1.018   7.605  19.995  0.00  0.00    +0.000 HD
ENDBRANCH  18  19
BRANCH  18  21
ATOM     21  C   UNL     1       0.704   9.789  18.245  0.00  0.00    +0.000 C 
BRANCH  21  22
ATOM     22  N   UNL     1       0.960  11.228  18.217  0.00  0.00    +0.000 NA
ATOM     23  H   UNL     1       1.954  11.395  18.386  0.00  0.00    +0.000 HD
BRANCH  22  25
ATOM     24  C   UNL     1      -0.342  13.348  18.502  0.00  0.00    +0.000 C 
ATOM     25  C   UNL     1       0.123  12.025  19.135  0.00  0.00    +0.000 C 
ATOM     26  C   UNL     1       0.868  12.308  20.453  0.00  0.00    +0.000 C 
ATOM     27  C   UNL     1      -1.123  11.179  19.458  0.00  0.00    +0.000 C 
ENDBRANCH  22  25
ENDBRANCH  21  22
ENDBRANCH  18  21
ENDBRANCH  17  18
ENDBRANCH  16  17
ENDBRANCH   1  16
TORSDOF 8
ENDMDL
MODEL 9
REMARK VINA RESULT:      -6.5      2.506      6.734
REMARK  Name = 
REMARK  11 active torsions:
REMARK  status: ('A' for Active; 'I' for Inactive)
REMARK    1  A    between atoms: C_1  and  C_2
REMARK    2  A    between atoms: C_2  and  C_3
REMARK    3  A    between atoms: C_2  and  C_4
REMARK    4  A    between atoms: C_2  and  N_5
REMARK    5  A    between atoms: N_5  and  C_6
REMARK    6  A    between atoms: C_6  and  C_7
REMARK    7  A    between atoms: C_7  and  O_8
REMARK    8  A    between atoms: C_7  and  C_9
REMARK    9  A    between atoms: C_9  and  O_10
REMARK   10  A    between atoms: O_10  and  C_11
REMARK   11  A    between atoms: C_17  and  C_18
REMARK                            x       y       z     vdW  Elec       q    Type
REMARK                         _______ _______ _______ _____ _____    ______ ____
ROOT
ATOM      1  C   UNL     1       2.715   6.191  19.217  0.00  0.00    +0.000 A 
ATOM      2  C   UNL     1       1.745   6.052  20.221  0.00  0.00    +0.000 A 
ATOM      3  C   UNL     1       1.674   4.885  20.984  0.00  0.00    +0.000 A 
ATOM      4  C   UNL     1       2.565   3.846  20.745  0.00  0.00    +0.000 A 
ATOM      5 CL   UNL     1       2.451   2.402  21.671  0.00  0.00    +0.000 Cl
ATOM      6  C   UNL     1       3.546   3.972  19.764  0.00  0.00    +0.000 A 
ATOM      7  C   UNL     1       3.642   5.152  19.006  0.00  0.00    +0.000 A 
ENDROOT
BRANCH   7   8
ATOM      8  C   UNL     1       4.727   5.230  17.970  0.00  0.00    +0.000 C 
ATOM      9  N   UNL     1       5.854   5.800  18.293  0.00  0.00    +0.000 NA
ATOM     10  N   UNL     1       6.841   5.850  17.361  0.00  0.00    +0.000 N 
ATOM     11  C   UNL     1       6.733   5.548  16.031  0.00  0.00    +0.000 C 
ATOM     12  O   UNL     1       7.702   5.619  15.275  0.00  0.00    +0.000 OA
ATOM     13  C   UNL     1       5.354   5.240  15.533  0.00  0.00    +0.000 C 
ATOM     14  C   UNL     1       4.490   4.620  16.605  0.00  0.00    +0.000 C 
ATOM     15  H   UNL     1       7.753   6.151  17.688  0.00  0.00    +0.000 HD
ENDBRANCH   7   8
BRANCH   1  16
ATOM     16  O   UNL     1       2.791   7.277  18.387  0.00  0.00    +0.000 OA
BRANCH  16  17
ATOM     17  C   UNL     1       2.280   8.514  18.865  0.00  0.00    +0.000 C 
BRANCH  17  18
ATOM     18  C   UNL     1       1.490   9.232  17.758  0.00  0.00    +0.000 C 
BRANCH  18  19
ATOM     19  O   UNL     1       2.144  10.452  17.372  0.00  0.00    +0.000 OA
ATOM     20  H   UNL     1       2.097  11.073  18.117  0.00  0.00    +0.000 HD
ENDBRANCH  18  19
BRANCH  18  21
ATOM     21  C   UNL     1       0.093   9.541  18.329  0.00  0.00    +0.000 C 
BRANCH  21  22
ATOM     22  N   UNL     1      -0.558  10.679  17.681  0.00  0.00    +0.000 NA
ATOM     23  H   UNL     1       0.097  11.110  17.025  0.00  0.00    +0.000 HD
BRANCH  22  25
ATOM     24  C   UNL     1      -2.658  11.741  18.535  0.00  0.00    +0.000 C 
ATOM     25  C   UNL     1      -1.122  11.680  18.606  0.00  0.00    +0.000 C 
ATOM     26  C   UNL     1      -0.530  13.076  18.334  0.00  0.00    +0.000 C 
ATOM     27  C   UNL     1      -0.720  11.255  20.030  0.00  0.00    +0.000 C 
ENDBRANCH  22  25
ENDBRANCH  21  22
ENDBRANCH  18  21
ENDBRANCH  17  18
ENDBRANCH  16  17
ENDBRANCH   1  16
TORSDOF 8
ENDMDL
