MODEL 1
REMARK VINA RESULT:      -6.4      0.000      0.000
REMARK  Name = 
REMARK  10 active torsions:
REMARK  status: ('A' for Active; 'I' for Inactive)
REMARK    1  A    between atoms: C_1  and  C_2
REMARK    2  A    between atoms: C_2  and  C_3
REMARK    3  A    between atoms: C_2  and  O_4
REMARK    4  A    between atoms: O_4  and  C_5
REMARK    5  A    between atoms: C_11  and  C_12
REMARK    6  A    between atoms: C_12  and  C_13
REMARK    7  A    between atoms: C_12  and  C_14
REMARK    8  A    between atoms: C_15  and  C_16
REMARK    9  A    between atoms: C_16  and  O_18
REMARK   10  A    between atoms: C_19  and  C_20
REMARK                            x       y       z     vdW  Elec       q    Type
REMARK                         _______ _______ _______ _____ _____    ______ ____
ROOT
ATOM      1  C   UNL     1      -4.763  11.233  18.125  0.00  0.00    +0.000 A 
ATOM      2  C   UNL     1      -4.073  10.934  16.960  0.00  0.00    +0.000 A 
ATOM      3  C   UNL     1      -2.727  11.250  16.866  0.00  0.00    +0.000 A 
ATOM      4  C   UNL     1      -2.065  11.845  17.943  0.00  0.00    +0.000 A 
ATOM      5  C   UNL     1      -2.714  12.187  19.140  0.00  0.00    +0.000 A 
ATOM      6  C   UNL     1      -4.087  11.863  19.196  0.00  0.00    +0.000 A 
ATOM      7  C   UNL     1      -1.917  12.876  20.239  0.00  0.00    +0.000 C 
ATOM      8  C   UNL     1      -0.565  12.900  20.056  0.00  0.00    +0.000 C 
ATOM      9  C   UNL     1       0.065  12.097  18.911  0.00  0.00    +0.000 C 
ATOM     10  O   UNL     1      -0.735  12.033  17.728  0.00  0.00    +0.000 OA
ENDROOT
BRANCH   9  11
ATOM     11  C   UNL     1       0.500  10.691  19.356  0.00  0.00    +0.000 A 
ATOM     12  C   UNL     1       0.172  10.178  20.640  0.00  0.00    +0.000 A 
ATOM     13  C   UNL     1       0.603   8.919  21.063  0.00  0.00    +0.000 A 
ATOM     14  C   UNL     1       1.372   8.188  20.191  0.00  0.00    +0.000 A 
ATOM     15  C   UNL     1       1.698   8.662  18.942  0.00  0.00    +0.000 A 
ATOM     16  C   UNL     1       1.277   9.901  18.491  0.00  0.00    +0.000 A 
ATOM     17  O   UNL     1       2.471   7.788  18.248  0.00  0.00    +0.000 OA
ATOM     18  C   UNL     1       2.650   6.745  19.230  0.00  0.00    +0.000 C 
ATOM     19  O   UNL     1       1.902   6.963  20.437  0.00  0.00    +0.000 OA
ENDBRANCH   9  11
BRANCH   7  20
ATOM     20  C   UNL     1      -2.726  13.488  21.387  0.00  0.00    +0.000 C 
ATOM     21  C   UNL     1      -2.547  12.728  22.715  0.00  0.00    +0.000 C 
ATOM     22  C   UNL     1      -2.611  15.010  21.504  0.00  0.00    +0.000 C 
ENDBRANCH   7  20
BRANCH   8  23
ATOM     23  C   UNL     1       0.551  13.615  20.768  0.00  0.00    +0.000 C 
ATOM     24  O   UNL     1       0.780  13.441  21.957  0.00  0.00    +0.000 OA
BRANCH  23  25
ATOM     25  O   UNL     1       1.280  14.511  20.089  0.00  0.00    +0.000 OA
ATOM     26  H   UNL     1       1.472  15.334  20.545  0.00  0.00    +0.000 HD
ENDBRANCH  23  25
ENDBRANCH   8  23
BRANCH   1  27
ATOM     27  O   UNL     1      -6.102  11.016  18.311  0.00  0.00    +0.000 OA
BRANCH  27  29
ATOM     28  C   UNL     1      -7.641  11.561  20.038  0.00  0.00    +0.000 C 
ATOM     29  C   UNL     1      -6.547  10.584  19.610  0.00  0.00    +0.000 C 
ATOM     30  C   UNL     1      -7.138   9.175  19.559  0.00  0.00    +0.000 C 
ENDBRANCH  27  29
ENDBRANCH   1  27
TORSDOF 6
ENDMDL
MODEL 2
REMARK VINA RESULT:      -6.4      8.228     11.904
REMARK  Name = 
REMARK  10 active torsions:
REMARK  status: ('A' for Active; 'I' for Inactive)
REMARK    1  A    between atoms: C_1  and  C_2
REMARK    2  A    between atoms: C_2  and  C_3
REMARK    3  A    between atoms: C_2  and  O_4
REMARK    4  A    between atoms: O_4  and  C_5
REMARK    5  A    between atoms: C_11  and  C_12
REMARK    6  A    between atoms: C_12  and  C_13
REMARK    7  A    between atoms: C_12  and  C_14
REMARK    8  A    between atoms: C_15  and  C_16
REMARK    9  A    between atoms: C_16  and  O_18
REMARK   10  A    between atoms: C_19  and  C_20
REMARK                            x       y       z     vdW  Elec       q    Type
REMARK                         _______ _______ _______ _____ _____    ______ ____
ROOT
ATOM      1  C   UNL     1       8.348  13.198  23.961  0.00  0.00    +0.000 A 
ATOM      2  C   UNL     1       8.040  14.540  24.134  0.00  0.00    +0.000 A 
ATOM      3  C   UNL     1       8.322  15.438  23.117  0.00  0.00    +0.000 A 
ATOM      4  C   UNL     1       8.892  14.994  21.921  0.00  0.00    +0.000 A 
ATOM      5  C   UNL     1       9.241  13.654  21.696  0.00  0.00    +0.000 A 
ATOM      6  C   UNL     1       8.952  12.769  22.757  0.00  0.00    +0.000 A 
ATOM      7  C   UNL     1       9.902  13.276  20.377  0.00  0.00    +0.000 C 
ATOM      8  C   UNL     1       9.892  14.246  19.418  0.00  0.00    +0.000 C 
ATOM      9  C   UNL     1       9.082  15.530  19.637  0.00  0.00    +0.000 C 
ATOM     10  O   UNL     1       9.047  15.979  20.995  0.00  0.00    +0.000 OA
ENDROOT
BRANCH   9  11
ATOM     11  C   UNL     1       7.662  15.430  19.056  0.00  0.00    +0.000 A 
ATOM     12  C   UNL     1       7.262  14.334  18.245  0.00  0.00    +0.000 A 
ATOM     13  C   UNL     1       5.987  14.261  17.680  0.00  0.00    +0.000 A 
ATOM     14  C   UNL     1       5.126  15.302  17.929  0.00  0.00    +0.000 A 
ATOM     15  C   UNL     1       5.489  16.370  18.715  0.00  0.00    +0.000 A 
ATOM     16  C   UNL     1       6.742  16.464  19.296  0.00  0.00    +0.000 A 
ATOM     17  O   UNL     1       4.495  17.289  18.823  0.00  0.00    +0.000 OA
ATOM     18  C   UNL     1       3.494  16.708  17.960  0.00  0.00    +0.000 C 
ATOM     19  O   UNL     1       3.863  15.418  17.445  0.00  0.00    +0.000 OA
ENDBRANCH   9  11
BRANCH   7  20
ATOM     20  C   UNL     1      10.525  11.879  20.302  0.00  0.00    +0.000 C 
ATOM     21  C   UNL     1       9.678  10.891  19.478  0.00  0.00    +0.000 C 
ATOM     22  C   UNL     1      12.020  11.868  19.970  0.00  0.00    +0.000 C 
ENDBRANCH   7  20
BRANCH   8  23
ATOM     23  C   UNL     1      10.573  14.370  18.082  0.00  0.00    +0.000 C 
ATOM     24  O   UNL     1      11.372  15.264  17.840  0.00  0.00    +0.000 OA
BRANCH  23  25
ATOM     25  O   UNL     1      10.250  13.506  17.110  0.00  0.00    +0.000 OA
ATOM     26  H   UNL     1       9.321  13.467  16.869  0.00  0.00    +0.000 HD
ENDBRANCH  23  25
ENDBRANCH   8  23
BRANCH   1  27
ATOM     27  O   UNL     1       8.163  12.232  24.914  0.00  0.00    +0.000 OA
BRANCH  27  29
ATOM     28  C   UNL     1       6.012  11.221  24.968  0.00  0.00    +0.000 C 
ATOM     29  C   UNL     1       6.928  12.236  25.654  0.00  0.00    +0.000 C 
ATOM     30  C   UNL     1       7.143  11.802  27.104  0.00  0.00    +0.000 C 
ENDBRANCH  27  29
ENDBRANCH   1  27
TORSDOF 6
ENDMDL
MODEL 3
REMARK VINA RESULT:      -6.3      4.440      9.061
REMARK  Name = 
REMARK  10 active torsions:
REMARK  status: ('A' for Active; 'I' for Inactive)
REMARK    1  A    between atoms: C_1  and  C_2
REMARK    2  A    between atoms: C_2  and  C_3
REMARK    3  A    between atoms: C_2  and  O_4
REMARK    4  A    between atoms: O_4  and  C_5
REMARK    5  A    between atoms: C_11  and  C_12
REMARK    6  A    between atoms: C_12  and  C_13
REMARK    7  A    between atoms: C_12  and  C_14
REMARK    8  A    between atoms: C_15  and  C_16
REMARK    9  A    between atoms: C_16  and  O_18
REMARK   10  A    between atoms: C_19  and  C_20
REMARK                            x       y       z     vdW  Elec       q    Type
REMARK                         _______ _______ _______ _____ _____    ______ ____
ROOT
ATOM      1  C   UNL     1       1.692   8.281  17.782  0.00  0.00    +0.000 A 
ATOM      2  C   UNL     1       2.921   8.925  17.779  0.00  0.00    +0.000 A 
ATOM      3  C   UNL     1       4.069   8.199  18.054  0.00  0.00    +0.000 A 
ATOM      4  C   UNL     1       3.993   6.828  18.311  0.00  0.00    +0.000 A 
ATOM      5  C   UNL     1       2.778   6.126  18.344  0.00  0.00    +0.000 A 
ATOM      6  C   UNL     1       1.627   6.899  18.073  0.00  0.00    +0.000 A 
ATOM      7  C   UNL     1       2.793   4.642  18.681  0.00  0.00    +0.000 C 
ATOM      8  C   UNL     1       4.026   4.057  18.698  0.00  0.00    +0.000 C 
ATOM      9  C   UNL     1       5.249   4.841  18.208  0.00  0.00    +0.000 C 
ATOM     10  O   UNL     1       5.206   6.241  18.496  0.00  0.00    +0.000 OA
ENDROOT
BRANCH   9  11
ATOM     11  C   UNL     1       5.539   4.596  16.717  0.00  0.00    +0.000 A 
ATOM     12  C   UNL     1       4.782   3.669  15.951  0.00  0.00    +0.000 A 
ATOM     13  C   UNL     1       5.071   3.413  14.609  0.00  0.00    +0.000 A 
ATOM     14  C   UNL     1       6.130   4.087  14.050  0.00  0.00    +0.000 A 
ATOM     15  C   UNL     1       6.873   4.992  14.771  0.00  0.00    +0.000 A 
ATOM     16  C   UNL     1       6.604   5.274  16.099  0.00  0.00    +0.000 A 
ATOM     17  O   UNL     1       7.875   5.536  14.033  0.00  0.00    +0.000 OA
ATOM     18  C   UNL     1       7.717   4.817  12.791  0.00  0.00    +0.000 C 
ATOM     19  O   UNL     1       6.573   3.948  12.775  0.00  0.00    +0.000 OA
ENDBRANCH   9  11
BRANCH   7  20
ATOM     20  C   UNL     1       1.438   3.999  18.994  0.00  0.00    +0.000 C 
ATOM     21  C   UNL     1       1.201   2.694  18.209  0.00  0.00    +0.000 C 
ATOM     22  C   UNL     1       1.105   3.914  20.486  0.00  0.00    +0.000 C 
ENDBRANCH   7  20
BRANCH   8  23
ATOM     23  C   UNL     1       4.511   2.707  19.150  0.00  0.00    +0.000 C 
ATOM     24  O   UNL     1       5.186   2.564  20.160  0.00  0.00    +0.000 OA
BRANCH  23  25
ATOM     25  O   UNL     1       4.242   1.637  18.390  0.00  0.00    +0.000 OA
ATOM     26  H   UNL     1       3.408   1.654  17.915  0.00  0.00    +0.000 HD
ENDBRANCH  23  25
ENDBRANCH   8  23
BRANCH   1  27
ATOM     27  O   UNL     1       0.490   8.905  17.576  0.00  0.00    +0.000 OA
BRANCH  27  29
ATOM     28  C   UNL     1      -1.245  10.470  18.011  0.00  0.00    +0.000 C 
ATOM     29  C   UNL     1       0.187  10.071  18.365  0.00  0.00    +0.000 C 
ATOM     30  C   UNL     1       0.257   9.767  19.862  0.00  0.00    +0.000 C 
ENDBRANCH  27  29
ENDBRANCH   1  27
TORSDOF 6
ENDMDL
MODEL 4
REMARK VINA RESULT:      -6.3      2.374      6.805
REMARK  Name = 
REMARK  10 active torsions:
REMARK  status: ('A' for Active; 'I' for Inactive)
REMARK    1  A    between atoms: C_1  and  C_2
REMARK    2  A    between atoms: C_2  and  C_3
REMARK    3  A    between atoms: C_2  and  O_4
REMARK    4  A    between atoms: O_4  and  C_5
REMARK    5  A    between atoms: C_11  and  C_12
REMARK    6  A    between atoms: C_12  and  C_13
REMARK    7  A    between atoms: C_12  and  C_14
REMARK    8  A    between atoms: C_15  and  C_16
REMARK    9  A    between atoms: C_16  and  O_18
REMARK   10  A    between atoms: C_19  and  C_20
REMARK                            x       y       z     vdW  Elec       q    Type
REMARK                         _______ _______ _______ _____ _____    ______ ____
ROOT
ATOM      1  C   UNL     1       0.863   9.053  20.707  0.00  0.00    +0.000 A 
ATOM      2  C   UNL     1       0.155   8.529  21.779  0.00  0.00    +0.000 A 
ATOM      3  C   UNL     1      -0.440   9.391  22.687  0.00  0.00    +0.000 A 
ATOM      4  C   UNL     1      -0.347  10.774  22.513  0.00  0.00    +0.000 A 
ATOM      5  C   UNL     1       0.369  11.361  21.459  0.00  0.00    +0.000 A 
ATOM      6  C   UNL     1       0.974  10.454  20.561  0.00  0.00    +0.000 A 
ATOM      7  C   UNL     1       0.454  12.879  21.381  0.00  0.00    +0.000 C 
ATOM      8  C   UNL     1      -0.377  13.556  22.225  0.00  0.00    +0.000 C 
ATOM      9  C   UNL     1      -1.440  12.794  23.025  0.00  0.00    +0.000 C 
ATOM     10  O   UNL     1      -1.037  11.487  23.443  0.00  0.00    +0.000 OA
ENDROOT
BRANCH   9  11
ATOM     11  C   UNL     1      -2.793  12.743  22.297  0.00  0.00    +0.000 A 
ATOM     12  C   UNL     1      -2.889  12.898  20.887  0.00  0.00    +0.000 A 
ATOM     13  C   UNL     1      -4.120  12.896  20.228  0.00  0.00    +0.000 A 
ATOM     14  C   UNL     1      -5.249  12.748  20.997  0.00  0.00    +0.000 A 
ATOM     15  C   UNL     1      -5.180  12.592  22.361  0.00  0.00    +0.000 A 
ATOM     16  C   UNL     1      -3.974  12.579  23.041  0.00  0.00    +0.000 A 
ATOM     17  O   UNL     1      -6.409  12.472  22.926  0.00  0.00    +0.000 OA
ATOM     18  C   UNL     1      -7.256  12.641  21.769  0.00  0.00    +0.000 C 
ATOM     19  O   UNL     1      -6.526  12.749  20.537  0.00  0.00    +0.000 OA
ENDBRANCH   9  11
BRANCH   7  20
ATOM     20  C   UNL     1       1.479  13.457  20.401  0.00  0.00    +0.000 C 
ATOM     21  C   UNL     1       0.823  14.163  19.198  0.00  0.00    +0.000 C 
ATOM     22  C   UNL     1       2.614  14.245  21.059  0.00  0.00    +0.000 C 
ENDBRANCH   7  20
BRANCH   8  23
ATOM     23  C   UNL     1      -0.487  15.008  22.607  0.00  0.00    +0.000 C 
ATOM     24  O   UNL     1      -0.189  15.411  23.723  0.00  0.00    +0.000 OA
BRANCH  23  25
ATOM     25  O   UNL     1      -0.979  15.875  21.711  0.00  0.00    +0.000 OA
ATOM     26  H   UNL     1      -1.673  15.542  21.137  0.00  0.00    +0.000 HD
ENDBRANCH  23  25
ENDBRANCH   8  23
BRANCH   1  27
ATOM     27  O   UNL     1       1.534   8.300  19.781  0.00  0.00    +0.000 OA
BRANCH  27  29
ATOM     28  C   UNL     1       2.894   7.966  17.860  0.00  0.00    +0.000 C 
ATOM     29  C   UNL     1       1.938   8.936  18.554  0.00  0.00    +0.000 C 
ATOM     30  C   UNL     1       0.743   9.191  17.635  0.00  0.00    +0.000 C 
ENDBRANCH  27  29
ENDBRANCH   1  27
TORSDOF 6
ENDMDL
MODEL 5
REMARK VINA RESULT:      -6.2      2.678      6.943
REMARK  Name = 
REMARK  10 active torsions:
REMARK  status: ('A' for Active; 'I' for Inactive)
REMARK    1  A    between atoms: C_1  and  C_2
REMARK    2  A    between atoms: C_2  and  C_3
REMARK    3  A    between atoms: C_2  and  O_4
REMARK    4  A    between atoms: O_4  and  C_5
REMARK    5  A    between atoms: C_11  and  C_12
REMARK    6  A    between atoms: C_12  and  C_13
REMARK    7  A    between atoms: C_12  and  C_14
REMARK    8  A    between atoms: C_15  and  C_16
REMARK    9  A    between atoms: C_16  and  O_18
REMARK   10  A    between atoms: C_19  and  C_20
REMARK                            x       y       z     vdW  Elec       q    Type
REMARK                         _______ _______ _______ _____ _____    ______ ____
ROOT
ATOM      1  C   UNL     1       0.416   9.197  20.335  0.00  0.00    +0.000 A 
ATOM      2  C   UNL     1       0.015   8.681  21.559  0.00  0.00    +0.000 A 
ATOM      3  C   UNL     1      -0.338   9.550  22.579  0.00  0.00    +0.000 A 
ATOM      4  C   UNL     1      -0.311  10.932  22.371  0.00  0.00    +0.000 A 
ATOM      5  C   UNL     1       0.101  11.511  21.161  0.00  0.00    +0.000 A 
ATOM      6  C   UNL     1       0.466  10.597  20.148  0.00  0.00    +0.000 A 
ATOM      7  C   UNL     1       0.141  13.028  21.047  0.00  0.00    +0.000 C 
ATOM      8  C   UNL     1      -0.453  13.709  22.069  0.00  0.00    +0.000 C 
ATOM      9  C   UNL     1      -1.264  12.947  23.125  0.00  0.00    +0.000 C 
ATOM     10  O   UNL     1      -0.748  11.651  23.440  0.00  0.00    +0.000 OA
ENDROOT
BRANCH   9  11
ATOM     11  C   UNL     1      -2.758  12.872  22.770  0.00  0.00    +0.000 A 
ATOM     12  C   UNL     1      -3.225  13.109  21.449  0.00  0.00    +0.000 A 
ATOM     13  C   UNL     1      -4.585  13.084  21.133  0.00  0.00    +0.000 A 
ATOM     14  C   UNL     1      -5.467  12.830  22.155  0.00  0.00    +0.000 A 
ATOM     15  C   UNL     1      -5.038  12.594  23.439  0.00  0.00    +0.000 A 
ATOM     16  C   UNL     1      -3.696  12.602  23.781  0.00  0.00    +0.000 A 
ATOM     17  O   UNL     1      -6.071  12.376  24.293  0.00  0.00    +0.000 OA
ATOM     18  C   UNL     1      -7.197  12.572  23.411  0.00  0.00    +0.000 C 
ATOM     19  O   UNL     1      -6.820  12.794  22.044  0.00  0.00    +0.000 OA
ENDBRANCH   9  11
BRANCH   7  20
ATOM     20  C   UNL     1       0.871  13.602  19.829  0.00  0.00    +0.000 C 
ATOM     21  C   UNL     1      -0.078  14.307  18.841  0.00  0.00    +0.000 C 
ATOM     22  C   UNL     1       2.142  14.388  20.162  0.00  0.00    +0.000 C 
ENDBRANCH   7  20
BRANCH   8  23
ATOM     23  C   UNL     1      -0.481  15.165  22.449  0.00  0.00    +0.000 C 
ATOM     24  O   UNL     1      -1.091  15.996  21.791  0.00  0.00    +0.000 OA
BRANCH  23  25
ATOM     25  O   UNL     1       0.230  15.569  23.510  0.00  0.00    +0.000 OA
ATOM     26  H   UNL     1       0.129  15.048  24.311  0.00  0.00    +0.000 HD
ENDBRANCH  23  25
ENDBRANCH   8  23
BRANCH   1  27
ATOM     27  O   UNL     1       0.836   8.438  19.275  0.00  0.00    +0.000 OA
BRANCH  27  29
ATOM     28  C   UNL     1       2.310   6.617  19.679  0.00  0.00    +0.000 C 
ATOM     29  C   UNL     1       2.226   8.070  19.212  0.00  0.00    +0.000 C 
ATOM     30  C   UNL     1       2.765   8.160  17.784  0.00  0.00    +0.000 C 
ENDBRANCH  27  29
ENDBRANCH   1  27
TORSDOF 6
ENDMDL
MODEL 6
REMARK VINA RESULT:      -6.1      1.076      1.398
REMARK  Name = 
REMARK  10 active torsions:
REMARK  status: ('A' for Active; 'I' for Inactive)
REMARK    1  A    between atoms: C_1  and  C_2
REMARK    2  A    between atoms: C_2  and  C_3
REMARK    3  A    between atoms: C_2  and  O_4
REMARK    4  A    between atoms: O_4  and  C_5
REMARK    5  A    between atoms: C_11  and  C_12
REMARK    6  A    between atoms: C_12  and  C_13
REMARK    7  A    between atoms: C_12  and  C_14
REMARK    8  A    between atoms: C_15  and  C_16
REMARK    9  A    between atoms: C_16  and  O_18
REMARK   10  A    between atoms: C_19  and  C_20
REMARK                            x       y       z     vdW  Elec       q    Type
REMARK                         _______ _______ _______ _____ _____    ______ ____
ROOT
ATOM      1  C   UNL     1      -4.835  11.316  18.038  0.00  0.00    +0.000 A 
ATOM      2  C   UNL     1      -3.961  11.152  16.973  0.00  0.00    +0.000 A 
ATOM      3  C   UNL     1      -2.630  11.504  17.126  0.00  0.00    +0.000 A 
ATOM      4  C   UNL     1      -2.167  12.001  18.347  0.00  0.00    +0.000 A 
ATOM      5  C   UNL     1      -3.006  12.205  19.453  0.00  0.00    +0.000 A 
ATOM      6  C   UNL     1      -4.359  11.848  19.258  0.00  0.00    +0.000 A 
ATOM      7  C   UNL     1      -2.417  12.796  20.727  0.00  0.00    +0.000 C 
ATOM      8  C   UNL     1      -1.055  12.866  20.764  0.00  0.00    +0.000 C 
ATOM      9  C   UNL     1      -0.224  12.198  19.662  0.00  0.00    +0.000 C 
ATOM     10  O   UNL     1      -0.827  12.237  18.365  0.00  0.00    +0.000 OA
ENDROOT
BRANCH   9  11
ATOM     11  C   UNL     1       0.188  10.763  20.031  0.00  0.00    +0.000 A 
ATOM     12  C   UNL     1      -0.226  10.157  21.248  0.00  0.00    +0.000 A 
ATOM     13  C   UNL     1       0.183   8.871  21.607  0.00  0.00    +0.000 A 
ATOM     14  C   UNL     1       1.015   8.207  20.739  0.00  0.00    +0.000 A 
ATOM     15  C   UNL     1       1.424   8.772  19.554  0.00  0.00    +0.000 A 
ATOM     16  C   UNL     1       1.028  10.040  19.167  0.00  0.00    +0.000 A 
ATOM     17  O   UNL     1       2.250   7.952  18.853  0.00  0.00    +0.000 OA
ATOM     18  C   UNL     1       2.366   6.840  19.766  0.00  0.00    +0.000 C 
ATOM     19  O   UNL     1       1.534   6.967  20.931  0.00  0.00    +0.000 OA
ENDBRANCH   9  11
BRANCH   7  20
ATOM     20  C   UNL     1      -3.417  13.271  21.785  0.00  0.00    +0.000 C 
ATOM     21  C   UNL     1      -3.370  12.426  23.073  0.00  0.00    +0.000 C 
ATOM     22  C   UNL     1      -3.426  14.784  22.016  0.00  0.00    +0.000 C 
ENDBRANCH   7  20
BRANCH   8  23
ATOM     23  C   UNL     1      -0.090  13.529  21.710  0.00  0.00    +0.000 C 
ATOM     24  O   UNL     1       0.782  14.292  21.320  0.00  0.00    +0.000 OA
BRANCH  23  25
ATOM     25  O   UNL     1      -0.156  13.227  23.014  0.00  0.00    +0.000 OA
ATOM     26  H   UNL     1       0.621  12.808  23.392  0.00  0.00    +0.000 HD
ENDBRANCH  23  25
ENDBRANCH   8  23
BRANCH   1  27
ATOM     27  O   UNL     1      -6.178  11.053  17.985  0.00  0.00    +0.000 OA
BRANCH  27  29
ATOM     28  C   UNL     1      -7.474  12.658  19.167  0.00  0.00    +0.000 C 
ATOM     29  C   UNL     1      -7.079  12.157  17.778  0.00  0.00    +0.000 C 
ATOM     30  C   UNL     1      -6.400  13.297  17.019  0.00  0.00    +0.000 C 
ENDBRANCH  27  29
ENDBRANCH   1  27
TORSDOF 6
ENDMDL
MODEL 7
REMARK VINA RESULT:      -6.0      1.088      1.360
REMARK  Name = 
REMARK  10 active torsions:
REMARK  status: ('A' for Active; 'I' for Inactive)
REMARK    1  A    between atoms: C_1  and  C_2
REMARK    2  A    between atoms: C_2  and  C_3
REMARK    3  A    between atoms: C_2  and  O_4
REMARK    4  A    between atoms: O_4  and  C_5
REMARK    5  A    between atoms: C_11  and  C_12
REMARK    6  A    between atoms: C_12  and  C_13
REMARK    7  A    between atoms: C_12  and  C_14
REMARK    8  A    between atoms: C_15  and  C_16
REMARK    9  A    between atoms: C_16  and  O_18
REMARK   10  A    between atoms: C_19  and  C_20
REMARK                            x       y       z     vdW  Elec       q    Type
REMARK                         _______ _______ _______ _____ _____    ______ ____
ROOT
ATOM      1  C   UNL     1      -4.924  11.813  19.392  0.00  0.00    +0.000 A 
ATOM      2  C   UNL     1      -4.555  11.318  18.149  0.00  0.00    +0.000 A 
ATOM      3  C   UNL     1      -3.246  11.468  17.720  0.00  0.00    +0.000 A 
ATOM      4  C   UNL     1      -2.301  12.092  18.539  0.00  0.00    +0.000 A 
ATOM      5  C   UNL     1      -2.619  12.626  19.797  0.00  0.00    +0.000 A 
ATOM      6  C   UNL     1      -3.965  12.468  20.197  0.00  0.00    +0.000 A 
ATOM      7  C   UNL     1      -1.531  13.331  20.595  0.00  0.00    +0.000 C 
ATOM      8  C   UNL     1      -0.263  13.181  20.115  0.00  0.00    +0.000 C 
ATOM      9  C   UNL     1       0.010  12.199  18.969  0.00  0.00    +0.000 C 
ATOM     10  O   UNL     1      -1.048  12.104  18.011  0.00  0.00    +0.000 OA
ENDROOT
BRANCH   9  11
ATOM     11  C   UNL     1       0.413  10.806  19.480  0.00  0.00    +0.000 A 
ATOM     12  C   UNL     1       0.071  10.360  20.785  0.00  0.00    +0.000 A 
ATOM     13  C   UNL     1       0.474   9.113  21.268  0.00  0.00    +0.000 A 
ATOM     14  C   UNL     1       1.228   8.326  20.432  0.00  0.00    +0.000 A 
ATOM     15  C   UNL     1       1.567   8.734  19.164  0.00  0.00    +0.000 A 
ATOM     16  C   UNL     1       1.174   9.960  18.655  0.00  0.00    +0.000 A 
ATOM     17  O   UNL     1       2.322   7.812  18.513  0.00  0.00    +0.000 OA
ATOM     18  C   UNL     1       2.475   6.812  19.543  0.00  0.00    +0.000 C 
ATOM     19  O   UNL     1       1.730   7.102  20.736  0.00  0.00    +0.000 OA
ENDBRANCH   9  11
BRANCH   7  20
ATOM     20  C   UNL     1      -1.992  14.145  21.807  0.00  0.00    +0.000 C 
ATOM     21  C   UNL     1      -1.443  13.598  23.139  0.00  0.00    +0.000 C 
ATOM     22  C   UNL     1      -1.862  15.661  21.640  0.00  0.00    +0.000 C 
ENDBRANCH   7  20
BRANCH   8  23
ATOM     23  C   UNL     1       1.047  13.834  20.464  0.00  0.00    +0.000 C 
ATOM     24  O   UNL     1       1.553  14.695  19.757  0.00  0.00    +0.000 OA
BRANCH  23  25
ATOM     25  O   UNL     1       1.705  13.418  21.555  0.00  0.00    +0.000 OA
ATOM     26  H   UNL     1       2.607  13.120  21.418  0.00  0.00    +0.000 HD
ENDBRANCH  23  25
ENDBRANCH   8  23
BRANCH   1  27
ATOM     27  O   UNL     1      -6.197  11.769  19.896  0.00  0.00    +0.000 OA
BRANCH  27  29
ATOM     28  C   UNL     1      -7.529  13.732  20.055  0.00  0.00    +0.000 C 
ATOM     29  C   UNL     1      -6.595  12.796  20.823  0.00  0.00    +0.000 C 
ATOM     30  C   UNL     1      -7.356  12.210  22.013  0.00  0.00    +0.000 C 
ENDBRANCH  27  29
ENDBRANCH   1  27
TORSDOF 6
ENDMDL
MODEL 8
REMARK VINA RESULT:      -6.0      2.657      6.072
REMARK  Name = 
REMARK  10 active torsions:
REMARK  status: ('A' for Active; 'I' for Inactive)
REMARK    1  A    between atoms: C_1  and  C_2
REMARK    2  A    between atoms: C_2  and  C_3
REMARK    3  A    between atoms: C_2  and  O_4
REMARK    4  A    between atoms: O_4  and  C_5
REMARK    5  A    between atoms: C_11  and  C_12
REMARK    6  A    between atoms: C_12  and  C_13
REMARK    7  A    between atoms: C_12  and  C_14
REMARK    8  A    between atoms: C_15  and  C_16
REMARK    9  A    between atoms: C_16  and  O_18
REMARK   10  A    between atoms: C_19  and  C_20
REMARK                            x       y       z     vdW  Elec       q    Type
REMARK                         _______ _______ _______ _____ _____    ______ ____
ROOT
ATOM      1  C   UNL     1       1.481  16.178  19.427  0.00  0.00    +0.000 A 
ATOM      2  C   UNL     1       2.377  15.280  18.866  0.00  0.00    +0.000 A 
ATOM      3  C   UNL     1       2.339  13.950  19.253  0.00  0.00    +0.000 A 
ATOM      4  C   UNL     1       1.392  13.512  20.183  0.00  0.00    +0.000 A 
ATOM      5  C   UNL     1       0.473  14.376  20.797  0.00  0.00    +0.000 A 
ATOM      6  C   UNL     1       0.549  15.726  20.390  0.00  0.00    +0.000 A 
ATOM      7  C   UNL     1      -0.488  13.813  21.835  0.00  0.00    +0.000 C 
ATOM      8  C   UNL     1      -0.530  12.452  21.917  0.00  0.00    +0.000 C 
ATOM      9  C   UNL     1       0.208  11.600  20.876  0.00  0.00    +0.000 C 
ATOM     10  O   UNL     1       1.433  12.171  20.411  0.00  0.00    +0.000 OA
ENDROOT
BRANCH   9  11
ATOM     11  C   UNL     1      -0.697  11.208  19.696  0.00  0.00    +0.000 A 
ATOM     12  C   UNL     1      -0.267  10.296  18.695  0.00  0.00    +0.000 A 
ATOM     13  C   UNL     1      -1.070   9.972  17.600  0.00  0.00    +0.000 A 
ATOM     14  C   UNL     1      -2.300  10.578  17.516  0.00  0.00    +0.000 A 
ATOM     15  C   UNL     1      -2.739  11.460  18.475  0.00  0.00    +0.000 A 
ATOM     16  C   UNL     1      -1.970  11.793  19.577  0.00  0.00    +0.000 A 
ATOM     17  O   UNL     1      -3.974  11.950  18.194  0.00  0.00    +0.000 OA
ATOM     18  C   UNL     1      -4.227  11.329  16.916  0.00  0.00    +0.000 C 
ATOM     19  O   UNL     1      -3.200  10.408  16.514  0.00  0.00    +0.000 OA
ENDBRANCH   9  11
BRANCH   7  20
ATOM     20  C   UNL     1      -1.256  14.834  22.679  0.00  0.00    +0.000 C 
ATOM     21  C   UNL     1      -2.724  14.991  22.238  0.00  0.00    +0.000 C 
ATOM     22  C   UNL     1      -1.057  14.687  24.190  0.00  0.00    +0.000 C 
ENDBRANCH   7  20
BRANCH   8  23
ATOM     23  C   UNL     1      -1.171  11.505  22.895  0.00  0.00    +0.000 C 
ATOM     24  O   UNL     1      -2.350  11.597  23.211  0.00  0.00    +0.000 OA
BRANCH  23  25
ATOM     25  O   UNL     1      -0.412  10.568  23.479  0.00  0.00    +0.000 OA
ATOM     26  H   UNL     1      -0.343   9.730  23.015  0.00  0.00    +0.000 HD
ENDBRANCH  23  25
ENDBRANCH   8  23
BRANCH   1  27
ATOM     27  O   UNL     1       1.461  17.521  19.161  0.00  0.00    +0.000 OA
BRANCH  27  29
ATOM     28  C   UNL     1       1.280  18.145  16.874  0.00  0.00    +0.000 C 
ATOM     29  C   UNL     1       0.515  18.007  18.191  0.00  0.00    +0.000 C 
ATOM     30  C   UNL     1      -0.636  17.021  17.990  0.00  0.00    +0.000 C 
ENDBRANCH  27  29
ENDBRANCH   1  27
TORSDOF 6
ENDMDL
MODEL 9
REMARK VINA RESULT:      -6.0      2.217      6.497
REMARK  Name = 
REMARK  10 active torsions:
REMARK  status: ('A' for Active; 'I' for Inactive)
REMARK    1  A    between atoms: C_1  and  C_2
REMARK    2  A    between atoms: C_2  and  C_3
REMARK    3  A    between atoms: C_2  and  O_4
REMARK    4  A    between atoms: O_4  and  C_5
REMARK    5  A    between atoms: C_11  and  C_12
REMARK    6  A    between atoms: C_12  and  C_13
REMARK    7  A    between atoms: C_12  and  C_14
REMARK    8  A    between atoms: C_15  and  C_16
REMARK    9  A    between atoms: C_16  and  O_18
REMARK   10  A    between atoms: C_19  and  C_20
REMARK                            x       y       z     vdW  Elec       q    Type
REMARK                         _______ _______ _______ _____ _____    ______ ____
ROOT
ATOM      1  C   UNL     1       0.746   9.338  20.749  0.00  0.00    +0.000 A 
ATOM      2  C   UNL     1       0.033   8.759  21.788  0.00  0.00    +0.000 A 
ATOM      3  C   UNL     1      -0.599   9.572  22.715  0.00  0.00    +0.000 A 
ATOM      4  C   UNL     1      -0.537  10.962  22.593  0.00  0.00    +0.000 A 
ATOM      5  C   UNL     1       0.183  11.605  21.575  0.00  0.00    +0.000 A 
ATOM      6  C   UNL     1       0.826  10.747  20.656  0.00  0.00    +0.000 A 
ATOM      7  C   UNL     1       0.231  13.127  21.553  0.00  0.00    +0.000 C 
ATOM      8  C   UNL     1      -0.631  13.752  22.406  0.00  0.00    +0.000 C 
ATOM      9  C   UNL     1      -1.689  12.935  23.158  0.00  0.00    +0.000 C 
ATOM     10  O   UNL     1      -1.261  11.624  23.536  0.00  0.00    +0.000 OA
ENDROOT
BRANCH   9  11
ATOM     11  C   UNL     1      -3.027  12.879  22.403  0.00  0.00    +0.000 A 
ATOM     12  C   UNL     1      -4.273  12.946  23.083  0.00  0.00    +0.000 A 
ATOM     13  C   UNL     1      -5.490  12.851  22.405  0.00  0.00    +0.000 A 
ATOM     14  C   UNL     1      -5.442  12.679  21.043  0.00  0.00    +0.000 A 
ATOM     15  C   UNL     1      -4.248  12.616  20.363  0.00  0.00    +0.000 A 
ATOM     16  C   UNL     1      -3.028  12.717  21.007  0.00  0.00    +0.000 A 
ATOM     17  O   UNL     1      -4.427  12.434  19.029  0.00  0.00    +0.000 OA
ATOM     18  C   UNL     1      -5.865  12.319  18.962  0.00  0.00    +0.000 C 
ATOM     19  O   UNL     1      -6.515  12.540  20.223  0.00  0.00    +0.000 OA
ENDBRANCH   9  11
BRANCH   7  20
ATOM     20  C   UNL     1       1.259  13.764  20.614  0.00  0.00    +0.000 C 
ATOM     21  C   UNL     1       0.607  14.541  19.454  0.00  0.00    +0.000 C 
ATOM     22  C   UNL     1       2.390  14.512  21.324  0.00  0.00    +0.000 C 
ENDBRANCH   7  20
BRANCH   8  23
ATOM     23  C   UNL     1      -0.784  15.185  22.838  0.00  0.00    +0.000 C 
ATOM     24  O   UNL     1      -1.335  16.020  22.134  0.00  0.00    +0.000 OA
BRANCH  23  25
ATOM     25  O   UNL     1      -0.249  15.569  24.005  0.00  0.00    +0.000 OA
ATOM     26  H   UNL     1      -0.316  16.503  24.215  0.00  0.00    +0.000 HD
ENDBRANCH  23  25
ENDBRANCH   8  23
BRANCH   1  27
ATOM     27  O   UNL     1       1.452   8.637  19.809  0.00  0.00    +0.000 OA
BRANCH  27  29
ATOM     28  C   UNL     1       2.543   8.285  17.726  0.00  0.00    +0.000 C 
ATOM     29  C   UNL     1       1.660   9.247  18.521  0.00  0.00    +0.000 C 
ATOM     30  C   UNL     1       0.340   9.435  17.772  0.00  0.00    +0.000 C 
ENDBRANCH  27  29
ENDBRANCH   1  27
TORSDOF 6
ENDMDL
