MODEL 1
REMARK VINA RESULT:      -7.0      0.000      0.000
REMARK  Name = 
REMARK  6 active torsions:
REMARK  status: ('A' for Active; 'I' for Inactive)
REMARK    1  A    between atoms: C_2  and  C_16
REMARK    2  A    between atoms: N_3  and  C_4
REMARK    3  A    between atoms: C_4  and  C_5
REMARK    4  A    between atoms: C_5  and  C_6
REMARK    5  A    between atoms: C_6  and  N_7
REMARK    6  A    between atoms: C_8  and  C_10
REMARK                            x       y       z     vdW  Elec       q    Type
REMARK                         _______ _______ _______ _____ _____    ______ ____
ROOT
ATOM      1  C   UNL     1       1.121   3.793  20.547  0.00  0.00    +0.000 C 
ENDROOT
BRANCH   1   2
ATOM      2  C   UNL     1       1.657   2.880  19.452  0.00  0.00    +0.000 C 
BRANCH   2   5
ATOM      3  O   UNL     1       2.498   3.200  16.792  0.00  0.00    +0.000 OA
ATOM      4  C   UNL     1       3.301   3.392  17.697  0.00  0.00    +0.000 C 
ATOM      5  N   UNL     1       2.992   3.262  19.036  0.00  0.00    +0.000 N 
ATOM      6  H   UNL     1       3.630   3.629  19.729  0.00  0.00    +0.000 HD
BRANCH   4   7
ATOM      7  C   UNL     1       4.681   3.827  17.388  0.00  0.00    +0.000 A 
ATOM      8  C   UNL     1       5.162   3.952  16.082  0.00  0.00    +0.000 A 
ATOM      9  C   UNL     1       6.478   4.358  15.876  0.00  0.00    +0.000 A 
ATOM     10  C   UNL     1       7.266   4.630  16.984  0.00  0.00    +0.000 A 
ATOM     11  N   UNL     1       6.828   4.534  18.258  0.00  0.00    +0.000 NA
ATOM     12  C   UNL     1       5.538   4.147  18.433  0.00  0.00    +0.000 A 
ENDBRANCH   4   7
ENDBRANCH   2   5
ENDBRANCH   1   2
BRANCH   1  13
ATOM     13  C   UNL     1       2.184   4.796  20.985  0.00  0.00    +0.000 C 
BRANCH  13  14
ATOM     14  N   UNL     1       1.752   6.168  20.790  0.00  0.00    +0.000 N 
ATOM     15  C   UNL     1       2.219   6.924  19.734  0.00  0.00    +0.000 C 
ATOM     16  O   UNL     1       2.989   6.489  18.885  0.00  0.00    +0.000 OA
ATOM     17  H   UNL     1       0.993   6.514  21.361  0.00  0.00    +0.000 HD
BRANCH  15  18
ATOM     18  C   UNL     1       1.728   8.318  19.637  0.00  0.00    +0.000 A 
ATOM     19  C   UNL     1       1.759   9.069  18.459  0.00  0.00    +0.000 A 
ATOM     20  C   UNL     1       1.252  10.368  18.463  0.00  0.00    +0.000 A 
ATOM     21  C   UNL     1       0.732  10.872  19.645  0.00  0.00    +0.000 A 
ATOM     22  N   UNL     1       0.680  10.172  20.798  0.00  0.00    +0.000 NA
ATOM     23  C   UNL     1       1.168   8.906  20.766  0.00  0.00    +0.000 A 
ENDBRANCH  15  18
ENDBRANCH  13  14
ENDBRANCH   1  13
TORSDOF 6
ENDMDL
MODEL 2
REMARK VINA RESULT:      -6.9      4.903      6.733
REMARK  Name = 
REMARK  6 active torsions:
REMARK  status: ('A' for Active; 'I' for Inactive)
REMARK    1  A    between atoms: C_2  and  C_16
REMARK    2  A    between atoms: N_3  and  C_4
REMARK    3  A    between atoms: C_4  and  C_5
REMARK    4  A    between atoms: C_5  and  C_6
REMARK    5  A    between atoms: C_6  and  N_7
REMARK    6  A    between atoms: C_8  and  C_10
REMARK                            x       y       z     vdW  Elec       q    Type
REMARK                         _______ _______ _______ _____ _____    ______ ____
ROOT
ATOM      1  C   UNL     1       7.821   5.973  18.948  0.00  0.00    +0.000 C 
ENDROOT
BRANCH   1   2
ATOM      2  C   UNL     1       7.456   4.792  18.057  0.00  0.00    +0.000 C 
BRANCH   2   5
ATOM      3  O   UNL     1       4.973   5.541  16.981  0.00  0.00    +0.000 OA
ATOM      4  C   UNL     1       5.011   4.659  17.829  0.00  0.00    +0.000 C 
ATOM      5  N   UNL     1       6.177   4.216  18.422  0.00  0.00    +0.000 N 
ATOM      6  H   UNL     1       6.165   3.357  18.954  0.00  0.00    +0.000 HD
BRANCH   4   7
ATOM      7  C   UNL     1       3.769   3.973  18.246  0.00  0.00    +0.000 A 
ATOM      8  C   UNL     1       2.522   4.255  17.683  0.00  0.00    +0.000 A 
ATOM      9  C   UNL     1       1.397   3.571  18.140  0.00  0.00    +0.000 A 
ATOM     10  C   UNL     1       1.561   2.624  19.138  0.00  0.00    +0.000 A 
ATOM     11  N   UNL     1       2.754   2.316  19.693  0.00  0.00    +0.000 NA
ATOM     12  C   UNL     1       3.836   2.989  19.224  0.00  0.00    +0.000 A 
ENDBRANCH   4   7
ENDBRANCH   2   5
ENDBRANCH   1   2
BRANCH   1  13
ATOM     13  C   UNL     1       7.819   7.273  18.150  0.00  0.00    +0.000 C 
BRANCH  13  14
ATOM     14  N   UNL     1       8.690   8.275  18.737  0.00  0.00    +0.000 N 
ATOM     15  C   UNL     1       8.604   9.604  18.373  0.00  0.00    +0.000 C 
ATOM     16  O   UNL     1       7.782  10.027  17.568  0.00  0.00    +0.000 OA
ATOM     17  H   UNL     1       9.263   8.004  19.525  0.00  0.00    +0.000 HD
BRANCH  15  18
ATOM     18  C   UNL     1       9.550  10.540  19.021  0.00  0.00    +0.000 A 
ATOM     19  C   UNL     1      10.637  11.120  18.362  0.00  0.00    +0.000 A 
ATOM     20  C   UNL     1      11.461  12.009  19.052  0.00  0.00    +0.000 A 
ATOM     21  C   UNL     1      11.169  12.287  20.378  0.00  0.00    +0.000 A 
ATOM     22  N   UNL     1      10.122  11.752  21.042  0.00  0.00    +0.000 NA
ATOM     23  C   UNL     1       9.329  10.899  20.346  0.00  0.00    +0.000 A 
ENDBRANCH  15  18
ENDBRANCH  13  14
ENDBRANCH   1  13
TORSDOF 6
ENDMDL
MODEL 3
REMARK VINA RESULT:      -6.8      1.719      2.252
REMARK  Name = 
REMARK  6 active torsions:
REMARK  status: ('A' for Active; 'I' for Inactive)
REMARK    1  A    between atoms: C_2  and  C_16
REMARK    2  A    between atoms: N_3  and  C_4
REMARK    3  A    between atoms: C_4  and  C_5
REMARK    4  A    between atoms: C_5  and  C_6
REMARK    5  A    between atoms: C_6  and  N_7
REMARK    6  A    between atoms: C_8  and  C_10
REMARK                            x       y       z     vdW  Elec       q    Type
REMARK                         _______ _______ _______ _____ _____    ______ ____
ROOT
ATOM      1  C   UNL     1       2.250   1.946  18.887  0.00  0.00    +0.000 C 
ENDROOT
BRANCH   1   2
ATOM      2  C   UNL     1       3.741   2.167  19.104  0.00  0.00    +0.000 C 
BRANCH   2   5
ATOM      3  O   UNL     1       5.216   4.552  18.955  0.00  0.00    +0.000 OA
ATOM      4  C   UNL     1       5.093   3.866  17.949  0.00  0.00    +0.000 C 
ATOM      5  N   UNL     1       4.390   2.678  17.913  0.00  0.00    +0.000 N 
ATOM      6  H   UNL     1       4.497   2.064  17.117  0.00  0.00    +0.000 HD
BRANCH   4   7
ATOM      7  C   UNL     1       5.749   4.271  16.686  0.00  0.00    +0.000 A 
ATOM      8  C   UNL     1       5.372   3.764  15.440  0.00  0.00    +0.000 A 
ATOM      9  C   UNL     1       6.048   4.189  14.298  0.00  0.00    +0.000 A 
ATOM     10  C   UNL     1       7.072   5.112  14.443  0.00  0.00    +0.000 A 
ATOM     11  N   UNL     1       7.451   5.633  15.631  0.00  0.00    +0.000 NA
ATOM     12  C   UNL     1       6.770   5.211  16.727  0.00  0.00    +0.000 A 
ENDBRANCH   4   7
ENDBRANCH   2   5
ENDBRANCH   1   2
BRANCH   1  13
ATOM     13  C   UNL     1       1.430   2.903  19.748  0.00  0.00    +0.000 C 
BRANCH  13  14
ATOM     14  N   UNL     1       1.523   4.274  19.279  0.00  0.00    +0.000 N 
ATOM     15  C   UNL     1       2.021   5.277  20.087  0.00  0.00    +0.000 C 
ATOM     16  O   UNL     1       2.442   5.079  21.221  0.00  0.00    +0.000 OA
ATOM     17  H   UNL     1       1.350   4.455  18.299  0.00  0.00    +0.000 HD
BRANCH  15  18
ATOM     18  C   UNL     1       2.057   6.643  19.516  0.00  0.00    +0.000 A 
ATOM     19  C   UNL     1       2.612   6.946  18.270  0.00  0.00    +0.000 A 
ATOM     20  C   UNL     1       2.578   8.262  17.808  0.00  0.00    +0.000 A 
ATOM     21  C   UNL     1       1.989   9.229  18.608  0.00  0.00    +0.000 A 
ATOM     22  N   UNL     1       1.437   8.969  19.812  0.00  0.00    +0.000 NA
ATOM     23  C   UNL     1       1.472   7.680  20.235  0.00  0.00    +0.000 A 
ENDBRANCH  15  18
ENDBRANCH  13  14
ENDBRANCH   1  13
TORSDOF 6
ENDMDL
MODEL 4
REMARK VINA RESULT:      -6.7      1.797      5.831
REMARK  Name = 
REMARK  6 active torsions:
REMARK  status: ('A' for Active; 'I' for Inactive)
REMARK    1  A    between atoms: C_2  and  C_16
REMARK    2  A    between atoms: N_3  and  C_4
REMARK    3  A    between atoms: C_4  and  C_5
REMARK    4  A    between atoms: C_5  and  C_6
REMARK    5  A    between atoms: C_6  and  N_7
REMARK    6  A    between atoms: C_8  and  C_10
REMARK                            x       y       z     vdW  Elec       q    Type
REMARK                         _______ _______ _______ _____ _____    ______ ____
ROOT
ATOM      1  C   UNL     1       2.232   1.893  19.258  0.00  0.00    +0.000 C 
ENDROOT
BRANCH   1   2
ATOM      2  C   UNL     1       1.319   2.875  19.983  0.00  0.00    +0.000 C 
BRANCH   2   5
ATOM      3  O   UNL     1       2.499   5.075  21.268  0.00  0.00    +0.000 OA
ATOM      4  C   UNL     1       2.021   5.225  20.151  0.00  0.00    +0.000 C 
ATOM      5  N   UNL     1       1.419   4.211  19.433  0.00  0.00    +0.000 N 
ATOM      6  H   UNL     1       1.233   4.346  18.448  0.00  0.00    +0.000 HD
BRANCH   4   7
ATOM      7  C   UNL     1       2.105   6.539  19.476  0.00  0.00    +0.000 A 
ATOM      8  C   UNL     1       2.715   6.714  18.232  0.00  0.00    +0.000 A 
ATOM      9  C   UNL     1       2.760   7.987  17.667  0.00  0.00    +0.000 A 
ATOM     10  C   UNL     1       2.189   9.039  18.366  0.00  0.00    +0.000 A 
ATOM     11  N   UNL     1       1.578   8.901  19.563  0.00  0.00    +0.000 NA
ATOM     12  C   UNL     1       1.537   7.649  20.087  0.00  0.00    +0.000 A 
ENDBRANCH   4   7
ENDBRANCH   2   5
ENDBRANCH   1   2
BRANCH   1  13
ATOM     13  C   UNL     1       3.696   2.276  19.446  0.00  0.00    +0.000 C 
BRANCH  13  14
ATOM     14  N   UNL     1       4.290   2.778  18.220  0.00  0.00    +0.000 N 
ATOM     15  C   UNL     1       5.220   3.798  18.238  0.00  0.00    +0.000 C 
ATOM     16  O   UNL     1       5.627   4.317  19.271  0.00  0.00    +0.000 OA
ATOM     17  H   UNL     1       4.115   2.270  17.363  0.00  0.00    +0.000 HD
BRANCH  15  18
ATOM     18  C   UNL     1       5.750   4.247  16.930  0.00  0.00    +0.000 A 
ATOM     19  C   UNL     1       5.071   4.074  15.721  0.00  0.00    +0.000 A 
ATOM     20  C   UNL     1       5.643   4.552  14.542  0.00  0.00    +0.000 A 
ATOM     21  C   UNL     1       6.873   5.186  14.613  0.00  0.00    +0.000 A 
ATOM     22  N   UNL     1       7.552   5.377  15.764  0.00  0.00    +0.000 NA
ATOM     23  C   UNL     1       6.970   4.914  16.899  0.00  0.00    +0.000 A 
ENDBRANCH  15  18
ENDBRANCH  13  14
ENDBRANCH   1  13
TORSDOF 6
ENDMDL
MODEL 5
REMARK VINA RESULT:      -6.7      1.846      2.269
REMARK  Name = 
REMARK  6 active torsions:
REMARK  status: ('A' for Active; 'I' for Inactive)
REMARK    1  A    between atoms: C_2  and  C_16
REMARK    2  A    between atoms: N_3  and  C_4
REMARK    3  A    between atoms: C_4  and  C_5
REMARK    4  A    between atoms: C_5  and  C_6
REMARK    5  A    between atoms: C_6  and  N_7
REMARK    6  A    between atoms: C_8  and  C_10
REMARK                            x       y       z     vdW  Elec       q    Type
REMARK                         _______ _______ _______ _____ _____    ______ ____
ROOT
ATOM      1  C   UNL     1       2.603   4.332  20.487  0.00  0.00    +0.000 C 
ENDROOT
BRANCH   1   2
ATOM      2  C   UNL     1       3.745   3.419  20.059  0.00  0.00    +0.000 C 
BRANCH   2   5
ATOM      3  O   UNL     1       6.288   4.425  19.420  0.00  0.00    +0.000 OA
ATOM      4  C   UNL     1       5.485   4.221  18.518  0.00  0.00    +0.000 C 
ATOM      5  N   UNL     1       4.211   3.729  18.723  0.00  0.00    +0.000 N 
ATOM      6  H   UNL     1       3.678   3.393  17.932  0.00  0.00    +0.000 HD
BRANCH   4   7
ATOM      7  C   UNL     1       5.870   4.463  17.110  0.00  0.00    +0.000 A 
ATOM      8  C   UNL     1       5.038   4.149  16.033  0.00  0.00    +0.000 A 
ATOM      9  C   UNL     1       5.479   4.400  14.735  0.00  0.00    +0.000 A 
ATOM     10  C   UNL     1       6.734   4.961  14.562  0.00  0.00    +0.000 A 
ATOM     11  N   UNL     1       7.557   5.291  15.582  0.00  0.00    +0.000 NA
ATOM     12  C   UNL     1       7.100   5.047  16.837  0.00  0.00    +0.000 A 
ENDBRANCH   4   7
ENDBRANCH   2   5
ENDBRANCH   1   2
BRANCH   1  13
ATOM     13  C   UNL     1       2.735   5.706  19.839  0.00  0.00    +0.000 C 
BRANCH  13  14
ATOM     14  N   UNL     1       1.987   6.722  20.555  0.00  0.00    +0.000 N 
ATOM     15  C   UNL     1       1.763   7.969  20.008  0.00  0.00    +0.000 C 
ATOM     16  O   UNL     1       2.144   8.289  18.887  0.00  0.00    +0.000 OA
ATOM     17  H   UNL     1       1.508   6.451  21.404  0.00  0.00    +0.000 HD
BRANCH  15  18
ATOM     18  C   UNL     1       1.002   8.937  20.831  0.00  0.00    +0.000 A 
ATOM     19  C   UNL     1       0.016   9.783  20.315  0.00  0.00    +0.000 A 
ATOM     20  C   UNL     1      -0.663  10.646  21.176  0.00  0.00    +0.000 A 
ATOM     21  C   UNL     1      -0.331  10.634  22.522  0.00  0.00    +0.000 A 
ATOM     22  N   UNL     1       0.610   9.825  23.053  0.00  0.00    +0.000 NA
ATOM     23  C   UNL     1       1.247   8.986  22.198  0.00  0.00    +0.000 A 
ENDBRANCH  15  18
ENDBRANCH  13  14
ENDBRANCH   1  13
TORSDOF 6
ENDMDL
MODEL 6
REMARK VINA RESULT:      -6.7      0.695      6.287
REMARK  Name = 
REMARK  6 active torsions:
REMARK  status: ('A' for Active; 'I' for Inactive)
REMARK    1  A    between atoms: C_2  and  C_16
REMARK    2  A    between atoms: N_3  and  C_4
REMARK    3  A    between atoms: C_4  and  C_5
REMARK    4  A    between atoms: C_5  and  C_6
REMARK    5  A    between atoms: C_6  and  N_7
REMARK    6  A    between atoms: C_8  and  C_10
REMARK                            x       y       z     vdW  Elec       q    Type
REMARK                         _______ _______ _______ _____ _____    ______ ____
ROOT
ATOM      1  C   UNL     1       1.180   3.619  20.477  0.00  0.00    +0.000 C 
ENDROOT
BRANCH   1   2
ATOM      2  C   UNL     1       2.181   4.626  21.029  0.00  0.00    +0.000 C 
BRANCH   2   5
ATOM      3  O   UNL     1       3.228   6.360  19.085  0.00  0.00    +0.000 OA
ATOM      4  C   UNL     1       2.335   6.761  19.819  0.00  0.00    +0.000 C 
ATOM      5  N   UNL     1       1.751   5.992  20.807  0.00  0.00    +0.000 N 
ATOM      6  H   UNL     1       0.891   6.307  21.235  0.00  0.00    +0.000 HD
BRANCH   4   7
ATOM      7  C   UNL     1       1.791   8.127  19.653  0.00  0.00    +0.000 A 
ATOM      8  C   UNL     1       1.807   8.805  18.431  0.00  0.00    +0.000 A 
ATOM      9  C   UNL     1       1.283  10.094  18.360  0.00  0.00    +0.000 A 
ATOM     10  C   UNL     1       0.756  10.656  19.512  0.00  0.00    +0.000 A 
ATOM     11  N   UNL     1       0.711  10.022  20.705  0.00  0.00    +0.000 NA
ATOM     12  C   UNL     1       1.218   8.763  20.746  0.00  0.00    +0.000 A 
ENDBRANCH   4   7
ENDBRANCH   2   5
ENDBRANCH   1   2
BRANCH   1  13
ATOM     13  C   UNL     1       1.875   2.608  19.569  0.00  0.00    +0.000 C 
BRANCH  13  14
ATOM     14  N   UNL     1       3.146   3.103  19.074  0.00  0.00    +0.000 N 
ATOM     15  C   UNL     1       3.342   3.366  17.733  0.00  0.00    +0.000 C 
ATOM     16  O   UNL     1       2.464   3.235  16.888  0.00  0.00    +0.000 OA
ATOM     17  H   UNL     1       3.842   3.388  19.751  0.00  0.00    +0.000 HD
BRANCH  15  18
ATOM     18  C   UNL     1       4.682   3.852  17.332  0.00  0.00    +0.000 A 
ATOM     19  C   UNL     1       5.659   4.265  18.243  0.00  0.00    +0.000 A 
ATOM     20  C   UNL     1       6.901   4.685  17.768  0.00  0.00    +0.000 A 
ATOM     21  C   UNL     1       7.124   4.678  16.400  0.00  0.00    +0.000 A 
ATOM     22  N   UNL     1       6.207   4.278  15.495  0.00  0.00    +0.000 NA
ATOM     23  C   UNL     1       5.010   3.863  15.981  0.00  0.00    +0.000 A 
ENDBRANCH  15  18
ENDBRANCH  13  14
ENDBRANCH   1  13
TORSDOF 6
ENDMDL
MODEL 7
REMARK VINA RESULT:      -6.6      1.968      7.590
REMARK  Name = 
REMARK  6 active torsions:
REMARK  status: ('A' for Active; 'I' for Inactive)
REMARK    1  A    between atoms: C_2  and  C_16
REMARK    2  A    between atoms: N_3  and  C_4
REMARK    3  A    between atoms: C_4  and  C_5
REMARK    4  A    between atoms: C_5  and  C_6
REMARK    5  A    between atoms: C_6  and  N_7
REMARK    6  A    between atoms: C_8  and  C_10
REMARK                            x       y       z     vdW  Elec       q    Type
REMARK                         _______ _______ _______ _____ _____    ______ ____
ROOT
ATOM      1  C   UNL     1       1.765   5.423  20.282  0.00  0.00    +0.000 C 
ENDROOT
BRANCH   1   2
ATOM      2  C   UNL     1       2.318   6.822  20.044  0.00  0.00    +0.000 C 
BRANCH   2   5
ATOM      3  O   UNL     1       1.138   9.163  19.037  0.00  0.00    +0.000 OA
ATOM      4  C   UNL     1       1.079   8.938  20.239  0.00  0.00    +0.000 C 
ATOM      5  N   UNL     1       1.625   7.818  20.836  0.00  0.00    +0.000 N 
ATOM      6  H   UNL     1       1.367   7.590  21.787  0.00  0.00    +0.000 HD
BRANCH   4   7
ATOM      7  C   UNL     1       0.359   9.867  21.137  0.00  0.00    +0.000 A 
ATOM      8  C   UNL     1      -0.034  11.149  20.743  0.00  0.00    +0.000 A 
ATOM      9  C   UNL     1      -0.700  11.967  21.653  0.00  0.00    +0.000 A 
ATOM     10  C   UNL     1      -0.954  11.472  22.923  0.00  0.00    +0.000 A 
ATOM     11  N   UNL     1      -0.600  10.234  23.331  0.00  0.00    +0.000 NA
ATOM     12  C   UNL     1       0.038   9.451  22.423  0.00  0.00    +0.000 A 
ENDBRANCH   4   7
ENDBRANCH   2   5
ENDBRANCH   1   2
BRANCH   1  13
ATOM     13  C   UNL     1       2.849   4.370  20.074  0.00  0.00    +0.000 C 
BRANCH  13  14
ATOM     14  N   UNL     1       3.586   4.581  18.842  0.00  0.00    +0.000 N 
ATOM     15  C   UNL     1       4.869   4.100  18.680  0.00  0.00    +0.000 C 
ATOM     16  O   UNL     1       5.453   3.445  19.536  0.00  0.00    +0.000 OA
ATOM     17  H   UNL     1       3.088   4.965  18.049  0.00  0.00    +0.000 HD
BRANCH  15  18
ATOM     18  C   UNL     1       5.537   4.386  17.390  0.00  0.00    +0.000 A 
ATOM     19  C   UNL     1       4.850   4.562  16.186  0.00  0.00    +0.000 A 
ATOM     20  C   UNL     1       5.567   4.851  15.025  0.00  0.00    +0.000 A 
ATOM     21  C   UNL     1       6.946   4.954  15.108  0.00  0.00    +0.000 A 
ATOM     22  N   UNL     1       7.641   4.798  16.256  0.00  0.00    +0.000 NA
ATOM     23  C   UNL     1       6.920   4.529  17.373  0.00  0.00    +0.000 A 
ENDBRANCH  15  18
ENDBRANCH  13  14
ENDBRANCH   1  13
TORSDOF 6
ENDMDL
MODEL 8
REMARK VINA RESULT:      -6.6      0.810      6.152
REMARK  Name = 
REMARK  6 active torsions:
REMARK  status: ('A' for Active; 'I' for Inactive)
REMARK    1  A    between atoms: C_2  and  C_16
REMARK    2  A    between atoms: N_3  and  C_4
REMARK    3  A    between atoms: C_4  and  C_5
REMARK    4  A    between atoms: C_5  and  C_6
REMARK    5  A    between atoms: C_6  and  N_7
REMARK    6  A    between atoms: C_8  and  C_10
REMARK                            x       y       z     vdW  Elec       q    Type
REMARK                         _______ _______ _______ _____ _____    ______ ____
ROOT
ATOM      1  C   UNL     1       1.854   3.492  20.093  0.00  0.00    +0.000 C 
ENDROOT
BRANCH   1   2
ATOM      2  C   UNL     1       2.300   4.548  21.097  0.00  0.00    +0.000 C 
BRANCH   2   5
ATOM      3  O   UNL     1       3.563   6.185  19.197  0.00  0.00    +0.000 OA
ATOM      4  C   UNL     1       2.561   6.598  19.765  0.00  0.00    +0.000 C 
ATOM      5  N   UNL     1       1.864   5.876  20.714  0.00  0.00    +0.000 N 
ATOM      6  H   UNL     1       0.942   6.182  20.990  0.00  0.00    +0.000 HD
BRANCH   4   7
ATOM      7  C   UNL     1       2.003   7.925  19.421  0.00  0.00    +0.000 A 
ATOM      8  C   UNL     1       2.175   8.517  18.167  0.00  0.00    +0.000 A 
ATOM      9  C   UNL     1       1.626   9.775  17.926  0.00  0.00    +0.000 A 
ATOM     10  C   UNL     1       0.919  10.393  18.946  0.00  0.00    +0.000 A 
ATOM     11  N   UNL     1       0.721   9.841  20.163  0.00  0.00    +0.000 NA
ATOM     12  C   UNL     1       1.257   8.611  20.370  0.00  0.00    +0.000 A 
ENDBRANCH   4   7
ENDBRANCH   2   5
ENDBRANCH   1   2
BRANCH   1  13
ATOM     13  C   UNL     1       2.987   2.515  19.796  0.00  0.00    +0.000 C 
BRANCH  13  14
ATOM     14  N   UNL     1       4.039   3.124  19.003  0.00  0.00    +0.000 N 
ATOM     15  C   UNL     1       3.891   3.323  17.645  0.00  0.00    +0.000 C 
ATOM     16  O   UNL     1       2.870   3.035  17.032  0.00  0.00    +0.000 OA
ATOM     17  H   UNL     1       4.827   3.532  19.489  0.00  0.00    +0.000 HD
BRANCH  15  18
ATOM     18  C   UNL     1       5.032   3.937  16.928  0.00  0.00    +0.000 A 
ATOM     19  C   UNL     1       5.032   4.198  15.555  0.00  0.00    +0.000 A 
ATOM     20  C   UNL     1       6.148   4.800  14.974  0.00  0.00    +0.000 A 
ATOM     21  C   UNL     1       7.225   5.120  15.786  0.00  0.00    +0.000 A 
ATOM     22  N   UNL     1       7.255   4.890  17.115  0.00  0.00    +0.000 NA
ATOM     23  C   UNL     1       6.153   4.314  17.659  0.00  0.00    +0.000 A 
ENDBRANCH  15  18
ENDBRANCH  13  14
ENDBRANCH   1  13
TORSDOF 6
ENDMDL
MODEL 9
REMARK VINA RESULT:      -6.6      1.348      6.028
REMARK  Name = 
REMARK  6 active torsions:
REMARK  status: ('A' for Active; 'I' for Inactive)
REMARK    1  A    between atoms: C_2  and  C_16
REMARK    2  A    between atoms: N_3  and  C_4
REMARK    3  A    between atoms: C_4  and  C_5
REMARK    4  A    between atoms: C_5  and  C_6
REMARK    5  A    between atoms: C_6  and  N_7
REMARK    6  A    between atoms: C_8  and  C_10
REMARK                            x       y       z     vdW  Elec       q    Type
REMARK                         _______ _______ _______ _____ _____    ______ ____
ROOT
ATOM      1  C   UNL     1       1.158   3.211  20.030  0.00  0.00    +0.000 C 
ENDROOT
BRANCH   1   2
ATOM      2  C   UNL     1       1.716   4.240  21.004  0.00  0.00    +0.000 C 
BRANCH   2   5
ATOM      3  O   UNL     1       3.503   5.975  19.708  0.00  0.00    +0.000 OA
ATOM      4  C   UNL     1       2.370   6.366  19.956  0.00  0.00    +0.000 C 
ATOM      5  N   UNL     1       1.415   5.595  20.589  0.00  0.00    +0.000 N 
ATOM      6  H   UNL     1       0.450   5.898  20.579  0.00  0.00    +0.000 HD
BRANCH   4   7
ATOM      7  C   UNL     1       1.941   7.719  19.539  0.00  0.00    +0.000 A 
ATOM      8  C   UNL     1       2.146   8.214  18.248  0.00  0.00    +0.000 A 
ATOM      9  C   UNL     1       1.721   9.505  17.938  0.00  0.00    +0.000 A 
ATOM     10  C   UNL     1       1.101  10.251  18.928  0.00  0.00    +0.000 A 
ATOM     11  N   UNL     1       0.875   9.797  20.180  0.00  0.00    +0.000 NA
ATOM     12  C   UNL     1       1.288   8.533  20.455  0.00  0.00    +0.000 A 
ENDBRANCH   4   7
ENDBRANCH   2   5
ENDBRANCH   1   2
BRANCH   1  13
ATOM     13  C   UNL     1       2.272   2.316  19.493  0.00  0.00    +0.000 C 
BRANCH  13  14
ATOM     14  N   UNL     1       3.118   3.011  18.540  0.00  0.00    +0.000 N 
ATOM     15  C   UNL     1       4.461   3.215  18.788  0.00  0.00    +0.000 C 
ATOM     16  O   UNL     1       5.028   2.803  19.794  0.00  0.00    +0.000 OA
ATOM     17  H   UNL     1       2.737   3.217  17.626  0.00  0.00    +0.000 HD
BRANCH  15  18
ATOM     18  C   UNL     1       5.230   3.950  17.758  0.00  0.00    +0.000 A 
ATOM     19  C   UNL     1       6.446   4.589  18.011  0.00  0.00    +0.000 A 
ATOM     20  C   UNL     1       7.107   5.238  16.968  0.00  0.00    +0.000 A 
ATOM     21  C   UNL     1       6.529   5.226  15.709  0.00  0.00    +0.000 A 
ATOM     22  N   UNL     1       5.360   4.612  15.428  0.00  0.00    +0.000 NA
ATOM     23  C   UNL     1       4.742   3.978  16.456  0.00  0.00    +0.000 A 
ENDBRANCH  15  18
ENDBRANCH  13  14
ENDBRANCH   1  13
TORSDOF 6
ENDMDL
