MODEL 1
REMARK VINA RESULT:      -7.3      0.000      0.000
REMARK  Name = 
REMARK  7 active torsions:
REMARK  status: ('A' for Active; 'I' for Inactive)
REMARK    1  A    between atoms: C_1  and  C_2
REMARK    2  A    between atoms: C_2  and  C_3
REMARK    3  A    between atoms: C_3  and  C_4
REMARK    4  A    between atoms: C_4  and  O_5
REMARK    5  A    between atoms: O_5  and  C_6
REMARK    6  A    between atoms: C_9  and  C_10
REMARK    7  A    between atoms: N_12  and  C_13
REMARK                            x       y       z     vdW  Elec       q    Type
REMARK                         _______ _______ _______ _____ _____    ______ ____
ROOT
ATOM      1  C   UNL     1       7.806   7.148  18.345  0.00  0.00    +0.000 A 
ATOM      2  C   UNL     1       7.639   5.954  19.055  0.00  0.00    +0.000 A 
ATOM      3  C   UNL     1       6.615   5.071  18.735  0.00  0.00    +0.000 A 
ATOM      4  C   UNL     1       5.736   5.352  17.695  0.00  0.00    +0.000 A 
ATOM      5  C   UNL     1       5.912   6.521  16.943  0.00  0.00    +0.000 A 
ATOM      6  C   UNL     1       6.949   7.418  17.272  0.00  0.00    +0.000 A 
ENDROOT
BRANCH   4   7
ATOM      7  C   UNL     1       4.612   4.392  17.519  0.00  0.00    +0.000 C 
ATOM      8  O   UNL     1       4.507   3.789  16.455  0.00  0.00    +0.000 OA
ATOM      9  N   UNL     1       3.718   4.249  18.561  0.00  0.00    +0.000 N 
ATOM     10  H   UNL     1       3.891   4.728  19.432  0.00  0.00    +0.000 HD
BRANCH   9  11
ATOM     11  C   UNL     1       2.640   3.261  18.496  0.00  0.00    +0.000 C 
ATOM     12  C   UNL     1       2.909   2.098  19.457  0.00  0.00    +0.000 C 
ATOM     13  C   UNL     1       2.776   2.527  20.917  0.00  0.00    +0.000 C 
ATOM     14  C   UNL     1       1.409   3.145  21.202  0.00  0.00    +0.000 C 
ATOM     15  C   UNL     1       1.080   4.285  20.242  0.00  0.00    +0.000 C 
ATOM     16  C   UNL     1       1.265   3.876  18.781  0.00  0.00    +0.000 C 
ENDBRANCH   9  11
ENDBRANCH   4   7
BRANCH   1  17
ATOM     17  O   UNL     1       8.763   8.086  18.658  0.00  0.00    +0.000 OA
BRANCH  17  18
ATOM     18  C   UNL     1       8.440   9.414  18.219  0.00  0.00    +0.000 C 
BRANCH  18  19
ATOM     19  C   UNL     1       9.284  10.456  18.933  0.00  0.00    +0.000 C 
BRANCH  19  21
ATOM     20  C   UNL     1      11.363  11.637  18.172  0.00  0.00    +0.000 C 
ATOM     21  C   UNL     1       9.880  11.441  17.921  0.00  0.00    +0.000 C 
ENDBRANCH  19  21
ENDBRANCH  18  19
ENDBRANCH  17  18
ENDBRANCH   1  17
TORSDOF 6
ENDMDL
MODEL 2
REMARK VINA RESULT:      -6.9      3.627      5.221
REMARK  Name = 
REMARK  7 active torsions:
REMARK  status: ('A' for Active; 'I' for Inactive)
REMARK    1  A    between atoms: C_1  and  C_2
REMARK    2  A    between atoms: C_2  and  C_3
REMARK    3  A    between atoms: C_3  and  C_4
REMARK    4  A    between atoms: C_4  and  O_5
REMARK    5  A    between atoms: O_5  and  C_6
REMARK    6  A    between atoms: C_9  and  C_10
REMARK    7  A    between atoms: N_12  and  C_13
REMARK                            x       y       z     vdW  Elec       q    Type
REMARK                         _______ _______ _______ _____ _____    ______ ____
ROOT
ATOM      1  C   UNL     1       6.566   5.298  15.410  0.00  0.00    +0.000 A 
ATOM      2  C   UNL     1       5.834   6.469  15.631  0.00  0.00    +0.000 A 
ATOM      3  C   UNL     1       4.724   6.470  16.468  0.00  0.00    +0.000 A 
ATOM      4  C   UNL     1       4.320   5.306  17.110  0.00  0.00    +0.000 A 
ATOM      5  C   UNL     1       5.065   4.131  16.937  0.00  0.00    +0.000 A 
ATOM      6  C   UNL     1       6.188   4.132  16.084  0.00  0.00    +0.000 A 
ENDROOT
BRANCH   4   7
ATOM      7  C   UNL     1       3.054   5.399  17.888  0.00  0.00    +0.000 C 
ATOM      8  O   UNL     1       2.463   6.474  17.932  0.00  0.00    +0.000 OA
ATOM      9  N   UNL     1       2.620   4.270  18.551  0.00  0.00    +0.000 N 
ATOM     10  H   UNL     1       3.119   3.400  18.428  0.00  0.00    +0.000 HD
BRANCH   9  11
ATOM     11  C   UNL     1       1.341   4.260  19.261  0.00  0.00    +0.000 C 
ATOM     12  C   UNL     1       0.751   2.847  19.304  0.00  0.00    +0.000 C 
ATOM     13  C   UNL     1       1.558   1.923  20.215  0.00  0.00    +0.000 C 
ATOM     14  C   UNL     1       1.679   2.489  21.628  0.00  0.00    +0.000 C 
ATOM     15  C   UNL     1       2.226   3.913  21.633  0.00  0.00    +0.000 C 
ATOM     16  C   UNL     1       1.457   4.828  20.681  0.00  0.00    +0.000 C 
ENDBRANCH   9  11
ENDBRANCH   4   7
BRANCH   1  17
ATOM     17  O   UNL     1       7.634   5.227  14.546  0.00  0.00    +0.000 OA
BRANCH  17  18
ATOM     18  C   UNL     1       7.296   4.720  13.245  0.00  0.00    +0.000 C 
BRANCH  18  19
ATOM     19  C   UNL     1       5.998   3.930  13.276  0.00  0.00    +0.000 C 
BRANCH  19  21
ATOM     20  C   UNL     1       4.460   3.101  11.475  0.00  0.00    +0.000 C 
ATOM     21  C   UNL     1       5.875   3.062  12.019  0.00  0.00    +0.000 C 
ENDBRANCH  19  21
ENDBRANCH  18  19
ENDBRANCH  17  18
ENDBRANCH   1  17
TORSDOF 6
ENDMDL
MODEL 3
REMARK VINA RESULT:      -6.8      0.414      1.186
REMARK  Name = 
REMARK  7 active torsions:
REMARK  status: ('A' for Active; 'I' for Inactive)
REMARK    1  A    between atoms: C_1  and  C_2
REMARK    2  A    between atoms: C_2  and  C_3
REMARK    3  A    between atoms: C_3  and  C_4
REMARK    4  A    between atoms: C_4  and  O_5
REMARK    5  A    between atoms: O_5  and  C_6
REMARK    6  A    between atoms: C_9  and  C_10
REMARK    7  A    between atoms: N_12  and  C_13
REMARK                            x       y       z     vdW  Elec       q    Type
REMARK                         _______ _______ _______ _____ _____    ______ ____
ROOT
ATOM      1  C   UNL     1       7.736   7.395  18.065  0.00  0.00    +0.000 A 
ATOM      2  C   UNL     1       6.624   7.525  17.225  0.00  0.00    +0.000 A 
ATOM      3  C   UNL     1       5.653   6.533  17.169  0.00  0.00    +0.000 A 
ATOM      4  C   UNL     1       5.761   5.390  17.952  0.00  0.00    +0.000 A 
ATOM      5  C   UNL     1       6.843   5.260  18.833  0.00  0.00    +0.000 A 
ATOM      6  C   UNL     1       7.830   6.266  18.885  0.00  0.00    +0.000 A 
ENDROOT
BRANCH   4   7
ATOM      7  C   UNL     1       4.724   4.346  17.723  0.00  0.00    +0.000 C 
ATOM      8  O   UNL     1       4.769   3.682  16.692  0.00  0.00    +0.000 OA
ATOM      9  N   UNL     1       3.738   4.197  18.677  0.00  0.00    +0.000 N 
ATOM     10  H   UNL     1       3.789   4.733  19.531  0.00  0.00    +0.000 HD
BRANCH   9  11
ATOM     11  C   UNL     1       2.739   3.134  18.564  0.00  0.00    +0.000 C 
ATOM     12  C   UNL     1       2.990   2.037  19.603  0.00  0.00    +0.000 C 
ATOM     13  C   UNL     1       2.692   2.521  21.022  0.00  0.00    +0.000 C 
ATOM     14  C   UNL     1       1.267   3.054  21.149  0.00  0.00    +0.000 C 
ATOM     15  C   UNL     1       0.957   4.123  20.106  0.00  0.00    +0.000 C 
ATOM     16  C   UNL     1       1.305   3.664  18.690  0.00  0.00    +0.000 C 
ENDBRANCH   9  11
ENDBRANCH   4   7
BRANCH   1  17
ATOM     17  O   UNL     1       8.756   8.317  18.115  0.00  0.00    +0.000 OA
BRANCH  17  18
ATOM     18  C   UNL     1       8.306   9.680  18.134  0.00  0.00    +0.000 C 
BRANCH  18  19
ATOM     19  C   UNL     1       9.266  10.572  18.904  0.00  0.00    +0.000 C 
BRANCH  19  21
ATOM     20  C   UNL     1       9.812  12.715  17.719  0.00  0.00    +0.000 C 
ATOM     21  C   UNL     1      10.228  11.274  17.940  0.00  0.00    +0.000 C 
ENDBRANCH  19  21
ENDBRANCH  18  19
ENDBRANCH  17  18
ENDBRANCH   1  17
TORSDOF 6
ENDMDL
MODEL 4
REMARK VINA RESULT:      -6.8      0.873      1.495
REMARK  Name = 
REMARK  7 active torsions:
REMARK  status: ('A' for Active; 'I' for Inactive)
REMARK    1  A    between atoms: C_1  and  C_2
REMARK    2  A    between atoms: C_2  and  C_3
REMARK    3  A    between atoms: C_3  and  C_4
REMARK    4  A    between atoms: C_4  and  O_5
REMARK    5  A    between atoms: O_5  and  C_6
REMARK    6  A    between atoms: C_9  and  C_10
REMARK    7  A    between atoms: N_12  and  C_13
REMARK                            x       y       z     vdW  Elec       q    Type
REMARK                         _______ _______ _______ _____ _____    ______ ____
ROOT
ATOM      1  C   UNL     1       7.520   7.731  17.742  0.00  0.00    +0.000 A 
ATOM      2  C   UNL     1       6.271   7.615  17.124  0.00  0.00    +0.000 A 
ATOM      3  C   UNL     1       5.499   6.470  17.283  0.00  0.00    +0.000 A 
ATOM      4  C   UNL     1       5.949   5.416  18.068  0.00  0.00    +0.000 A 
ATOM      5  C   UNL     1       7.178   5.529  18.732  0.00  0.00    +0.000 A 
ATOM      6  C   UNL     1       7.962   6.689  18.565  0.00  0.00    +0.000 A 
ENDROOT
BRANCH   4   7
ATOM      7  C   UNL     1       5.093   4.198  18.071  0.00  0.00    +0.000 C 
ATOM      8  O   UNL     1       5.062   3.490  17.068  0.00  0.00    +0.000 OA
ATOM      9  N   UNL     1       4.345   3.939  19.202  0.00  0.00    +0.000 N 
ATOM     10  H   UNL     1       4.458   4.526  20.016  0.00  0.00    +0.000 HD
BRANCH   9  11
ATOM     11  C   UNL     1       3.549   2.716  19.313  0.00  0.00    +0.000 C 
ATOM     12  C   UNL     1       3.249   2.393  20.780  0.00  0.00    +0.000 C 
ATOM     13  C   UNL     1       2.269   3.394  21.392  0.00  0.00    +0.000 C 
ATOM     14  C   UNL     1       0.972   3.476  20.592  0.00  0.00    +0.000 C 
ATOM     15  C   UNL     1       1.224   3.758  19.113  0.00  0.00    +0.000 C 
ATOM     16  C   UNL     1       2.245   2.793  18.510  0.00  0.00    +0.000 C 
ENDBRANCH   9  11
ENDBRANCH   4   7
BRANCH   1  17
ATOM     17  O   UNL     1       8.351   8.813  17.570  0.00  0.00    +0.000 OA
BRANCH  17  18
ATOM     18  C   UNL     1       8.846   9.367  18.800  0.00  0.00    +0.000 C 
BRANCH  18  19
ATOM     19  C   UNL     1       9.393  10.770  18.597  0.00  0.00    +0.000 C 
BRANCH  19  21
ATOM     20  C   UNL     1      11.370  11.709  19.826  0.00  0.00    +0.000 C 
ATOM     21  C   UNL     1       9.903  11.337  19.927  0.00  0.00    +0.000 C 
ENDBRANCH  19  21
ENDBRANCH  18  19
ENDBRANCH  17  18
ENDBRANCH   1  17
TORSDOF 6
ENDMDL
MODEL 5
REMARK VINA RESULT:      -6.8      3.690      5.781
REMARK  Name = 
REMARK  7 active torsions:
REMARK  status: ('A' for Active; 'I' for Inactive)
REMARK    1  A    between atoms: C_1  and  C_2
REMARK    2  A    between atoms: C_2  and  C_3
REMARK    3  A    between atoms: C_3  and  C_4
REMARK    4  A    between atoms: C_4  and  O_5
REMARK    5  A    between atoms: O_5  and  C_6
REMARK    6  A    between atoms: C_9  and  C_10
REMARK    7  A    between atoms: N_12  and  C_13
REMARK                            x       y       z     vdW  Elec       q    Type
REMARK                         _______ _______ _______ _____ _____    ______ ____
ROOT
ATOM      1  C   UNL     1       6.392   4.862  14.735  0.00  0.00    +0.000 A 
ATOM      2  C   UNL     1       5.118   5.198  15.204  0.00  0.00    +0.000 A 
ATOM      3  C   UNL     1       4.824   5.163  16.562  0.00  0.00    +0.000 A 
ATOM      4  C   UNL     1       5.795   4.798  17.487  0.00  0.00    +0.000 A 
ATOM      5  C   UNL     1       7.091   4.500  17.043  0.00  0.00    +0.000 A 
ATOM      6  C   UNL     1       7.385   4.533  15.664  0.00  0.00    +0.000 A 
ENDROOT
BRANCH   4   7
ATOM      7  C   UNL     1       5.336   4.683  18.899  0.00  0.00    +0.000 C 
ATOM      8  O   UNL     1       6.076   5.072  19.798  0.00  0.00    +0.000 OA
ATOM      9  N   UNL     1       4.101   4.113  19.129  0.00  0.00    +0.000 N 
ATOM     10  H   UNL     1       3.514   3.867  18.345  0.00  0.00    +0.000 HD
BRANCH   9  11
ATOM     11  C   UNL     1       3.545   4.047  20.481  0.00  0.00    +0.000 C 
ATOM     12  C   UNL     1       2.422   5.075  20.659  0.00  0.00    +0.000 C 
ATOM     13  C   UNL     1       1.179   4.704  19.852  0.00  0.00    +0.000 C 
ATOM     14  C   UNL     1       0.676   3.305  20.201  0.00  0.00    +0.000 C 
ATOM     15  C   UNL     1       1.772   2.251  20.076  0.00  0.00    +0.000 C 
ATOM     16  C   UNL     1       3.038   2.644  20.837  0.00  0.00    +0.000 C 
ENDBRANCH   9  11
ENDBRANCH   4   7
BRANCH   1  17
ATOM     17  O   UNL     1       6.719   4.822  13.400  0.00  0.00    +0.000 OA
BRANCH  17  18
ATOM     18  C   UNL     1       6.684   3.503  12.832  0.00  0.00    +0.000 C 
BRANCH  18  19
ATOM     19  C   UNL     1       5.862   3.470  11.555  0.00  0.00    +0.000 C 
BRANCH  19  21
ATOM     20  C   UNL     1       3.534   3.365  10.623  0.00  0.00    +0.000 C 
ATOM     21  C   UNL     1       4.373   3.322  11.886  0.00  0.00    +0.000 C 
ENDBRANCH  19  21
ENDBRANCH  18  19
ENDBRANCH  17  18
ENDBRANCH   1  17
TORSDOF 6
ENDMDL
MODEL 6
REMARK VINA RESULT:      -6.8      0.883      1.198
REMARK  Name = 
REMARK  7 active torsions:
REMARK  status: ('A' for Active; 'I' for Inactive)
REMARK    1  A    between atoms: C_1  and  C_2
REMARK    2  A    between atoms: C_2  and  C_3
REMARK    3  A    between atoms: C_3  and  C_4
REMARK    4  A    between atoms: C_4  and  O_5
REMARK    5  A    between atoms: O_5  and  C_6
REMARK    6  A    between atoms: C_9  and  C_10
REMARK    7  A    between atoms: N_12  and  C_13
REMARK                            x       y       z     vdW  Elec       q    Type
REMARK                         _______ _______ _______ _____ _____    ______ ____
ROOT
ATOM      1  C   UNL     1       7.292   6.984  17.293  0.00  0.00    +0.000 A 
ATOM      2  C   UNL     1       7.583   5.971  18.213  0.00  0.00    +0.000 A 
ATOM      3  C   UNL     1       6.720   4.896  18.387  0.00  0.00    +0.000 A 
ATOM      4  C   UNL     1       5.549   4.799  17.645  0.00  0.00    +0.000 A 
ATOM      5  C   UNL     1       5.260   5.780  16.687  0.00  0.00    +0.000 A 
ATOM      6  C   UNL     1       6.135   6.872  16.514  0.00  0.00    +0.000 A 
ENDROOT
BRANCH   4   7
ATOM      7  C   UNL     1       4.648   3.668  17.999  0.00  0.00    +0.000 C 
ATOM      8  O   UNL     1       4.293   2.893  17.115  0.00  0.00    +0.000 OA
ATOM      9  N   UNL     1       4.228   3.565  19.309  0.00  0.00    +0.000 N 
ATOM     10  H   UNL     1       4.601   4.199  20.001  0.00  0.00    +0.000 HD
BRANCH   9  11
ATOM     11  C   UNL     1       3.414   2.432  19.750  0.00  0.00    +0.000 C 
ATOM     12  C   UNL     1       3.022   2.583  21.224  0.00  0.00    +0.000 C 
ATOM     13  C   UNL     1       2.018   3.716  21.430  0.00  0.00    +0.000 C 
ATOM     14  C   UNL     1       0.772   3.531  20.568  0.00  0.00    +0.000 C 
ATOM     15  C   UNL     1       1.116   3.337  19.094  0.00  0.00    +0.000 C 
ATOM     16  C   UNL     1       2.161   2.241  18.886  0.00  0.00    +0.000 C 
ENDBRANCH   9  11
ENDBRANCH   4   7
BRANCH   1  17
ATOM     17  O   UNL     1       8.079   8.099  17.124  0.00  0.00    +0.000 OA
BRANCH  17  18
ATOM     18  C   UNL     1       7.725   9.195  17.981  0.00  0.00    +0.000 C 
BRANCH  18  19
ATOM     19  C   UNL     1       8.952   9.812  18.631  0.00  0.00    +0.000 C 
BRANCH  19  21
ATOM     20  C   UNL     1      10.687  11.541  18.083  0.00  0.00    +0.000 C 
ATOM     21  C   UNL     1       9.206  11.212  18.063  0.00  0.00    +0.000 C 
ENDBRANCH  19  21
ENDBRANCH  18  19
ENDBRANCH  17  18
ENDBRANCH   1  17
TORSDOF 6
ENDMDL
MODEL 7
REMARK VINA RESULT:      -6.7      3.620      5.219
REMARK  Name = 
REMARK  7 active torsions:
REMARK  status: ('A' for Active; 'I' for Inactive)
REMARK    1  A    between atoms: C_1  and  C_2
REMARK    2  A    between atoms: C_2  and  C_3
REMARK    3  A    between atoms: C_3  and  C_4
REMARK    4  A    between atoms: C_4  and  O_5
REMARK    5  A    between atoms: O_5  and  C_6
REMARK    6  A    between atoms: C_9  and  C_10
REMARK    7  A    between atoms: N_12  and  C_13
REMARK                            x       y       z     vdW  Elec       q    Type
REMARK                         _______ _______ _______ _____ _____    ______ ____
ROOT
ATOM      1  C   UNL     1       6.375   5.318  15.655  0.00  0.00    +0.000 A 
ATOM      2  C   UNL     1       5.940   4.315  16.528  0.00  0.00    +0.000 A 
ATOM      3  C   UNL     1       4.902   4.548  17.422  0.00  0.00    +0.000 A 
ATOM      4  C   UNL     1       4.266   5.784  17.464  0.00  0.00    +0.000 A 
ATOM      5  C   UNL     1       4.657   6.788  16.568  0.00  0.00    +0.000 A 
ATOM      6  C   UNL     1       5.713   6.551  15.664  0.00  0.00    +0.000 A 
ENDROOT
BRANCH   4   7
ATOM      7  C   UNL     1       3.250   5.955  18.538  0.00  0.00    +0.000 C 
ATOM      8  O   UNL     1       2.559   6.969  18.546  0.00  0.00    +0.000 OA
ATOM      9  N   UNL     1       3.155   4.967  19.498  0.00  0.00    +0.000 N 
ATOM     10  H   UNL     1       3.710   4.130  19.404  0.00  0.00    +0.000 HD
BRANCH   9  11
ATOM     11  C   UNL     1       2.121   5.023  20.532  0.00  0.00    +0.000 C 
ATOM     12  C   UNL     1       0.786   4.496  19.996  0.00  0.00    +0.000 C 
ATOM     13  C   UNL     1       0.827   2.988  19.754  0.00  0.00    +0.000 C 
ATOM     14  C   UNL     1       1.230   2.225  21.013  0.00  0.00    +0.000 C 
ATOM     15  C   UNL     1       2.537   2.741  21.607  0.00  0.00    +0.000 C 
ATOM     16  C   UNL     1       2.521   4.258  21.800  0.00  0.00    +0.000 C 
ENDBRANCH   9  11
ENDBRANCH   4   7
BRANCH   1  17
ATOM     17  O   UNL     1       7.435   5.161  14.793  0.00  0.00    +0.000 OA
BRANCH  17  18
ATOM     18  C   UNL     1       7.048   4.851  13.446  0.00  0.00    +0.000 C 
BRANCH  18  19
ATOM     19  C   UNL     1       6.090   3.672  13.400  0.00  0.00    +0.000 C 
BRANCH  19  21
ATOM     20  C   UNL     1       4.419   3.229  11.580  0.00  0.00    +0.000 C 
ATOM     21  C   UNL     1       5.889   3.207  11.954  0.00  0.00    +0.000 C 
ENDBRANCH  19  21
ENDBRANCH  18  19
ENDBRANCH  17  18
ENDBRANCH   1  17
TORSDOF 6
ENDMDL
MODEL 8
REMARK VINA RESULT:      -6.7      3.650      5.745
REMARK  Name = 
REMARK  7 active torsions:
REMARK  status: ('A' for Active; 'I' for Inactive)
REMARK    1  A    between atoms: C_1  and  C_2
REMARK    2  A    between atoms: C_2  and  C_3
REMARK    3  A    between atoms: C_3  and  C_4
REMARK    4  A    between atoms: C_4  and  O_5
REMARK    5  A    between atoms: O_5  and  C_6
REMARK    6  A    between atoms: C_9  and  C_10
REMARK    7  A    between atoms: N_12  and  C_13
REMARK                            x       y       z     vdW  Elec       q    Type
REMARK                         _______ _______ _______ _____ _____    ______ ____
ROOT
ATOM      1  C   UNL     1       6.516   4.850  14.531  0.00  0.00    +0.000 A 
ATOM      2  C   UNL     1       5.184   4.647  14.907  0.00  0.00    +0.000 A 
ATOM      3  C   UNL     1       4.840   4.445  16.238  0.00  0.00    +0.000 A 
ATOM      4  C   UNL     1       5.814   4.447  17.229  0.00  0.00    +0.000 A 
ATOM      5  C   UNL     1       7.149   4.693  16.881  0.00  0.00    +0.000 A 
ATOM      6  C   UNL     1       7.496   4.893  15.529  0.00  0.00    +0.000 A 
ENDROOT
BRANCH   4   7
ATOM      7  C   UNL     1       5.344   4.106  18.600  0.00  0.00    +0.000 C 
ATOM      8  O   UNL     1       6.062   4.378  19.559  0.00  0.00    +0.000 OA
ATOM      9  N   UNL     1       4.127   3.467  18.724  0.00  0.00    +0.000 N 
ATOM     10  H   UNL     1       3.557   3.323  17.904  0.00  0.00    +0.000 HD
BRANCH   9  11
ATOM     11  C   UNL     1       3.561   3.180  20.042  0.00  0.00    +0.000 C 
ATOM     12  C   UNL     1       2.932   4.438  20.651  0.00  0.00    +0.000 C 
ATOM     13  C   UNL     1       1.661   4.852  19.909  0.00  0.00    +0.000 C 
ATOM     14  C   UNL     1       0.640   3.719  19.863  0.00  0.00    +0.000 C 
ATOM     15  C   UNL     1       1.233   2.430  19.300  0.00  0.00    +0.000 C 
ATOM     16  C   UNL     1       2.534   2.042  20.002  0.00  0.00    +0.000 C 
ENDBRANCH   9  11
ENDBRANCH   4   7
BRANCH   1  17
ATOM     17  O   UNL     1       6.919   4.994  13.224  0.00  0.00    +0.000 OA
BRANCH  17  18
ATOM     18  C   UNL     1       6.948   3.762  12.486  0.00  0.00    +0.000 C 
BRANCH  18  19
ATOM     19  C   UNL     1       5.547   3.302  12.119  0.00  0.00    +0.000 C 
BRANCH  19  21
ATOM     20  C   UNL     1       7.045   1.531  11.158  0.00  0.00    +0.000 C 
ATOM     21  C   UNL     1       5.607   1.958  11.384  0.00  0.00    +0.000 C 
ENDBRANCH  19  21
ENDBRANCH  18  19
ENDBRANCH  17  18
ENDBRANCH   1  17
TORSDOF 6
ENDMDL
MODEL 9
REMARK VINA RESULT:      -6.6      3.587      5.930
REMARK  Name = 
REMARK  7 active torsions:
REMARK  status: ('A' for Active; 'I' for Inactive)
REMARK    1  A    between atoms: C_1  and  C_2
REMARK    2  A    between atoms: C_2  and  C_3
REMARK    3  A    between atoms: C_3  and  C_4
REMARK    4  A    between atoms: C_4  and  O_5
REMARK    5  A    between atoms: O_5  and  C_6
REMARK    6  A    between atoms: C_9  and  C_10
REMARK    7  A    between atoms: N_12  and  C_13
REMARK                            x       y       z     vdW  Elec       q    Type
REMARK                         _______ _______ _______ _____ _____    ______ ____
ROOT
ATOM      1  C   UNL     1       6.735   4.554  14.546  0.00  0.00    +0.000 A 
ATOM      2  C   UNL     1       7.563   4.878  15.625  0.00  0.00    +0.000 A 
ATOM      3  C   UNL     1       7.103   4.783  16.933  0.00  0.00    +0.000 A 
ATOM      4  C   UNL     1       5.807   4.356  17.198  0.00  0.00    +0.000 A 
ATOM      5  C   UNL     1       4.975   3.984  16.133  0.00  0.00    +0.000 A 
ATOM      6  C   UNL     1       5.443   4.085  14.807  0.00  0.00    +0.000 A 
ENDROOT
BRANCH   4   7
ATOM      7  C   UNL     1       5.387   4.404  18.626  0.00  0.00    +0.000 C 
ATOM      8  O   UNL     1       6.144   4.910  19.450  0.00  0.00    +0.000 OA
ATOM      9  N   UNL     1       4.170   3.846  18.958  0.00  0.00    +0.000 N 
ATOM     10  H   UNL     1       3.567   3.499  18.227  0.00  0.00    +0.000 HD
BRANCH   9  11
ATOM     11  C   UNL     1       3.651   3.935  20.324  0.00  0.00    +0.000 C 
ATOM     12  C   UNL     1       2.645   5.083  20.451  0.00  0.00    +0.000 C 
ATOM     13  C   UNL     1       1.346   4.784  19.702  0.00  0.00    +0.000 C 
ATOM     14  C   UNL     1       0.716   3.473  20.165  0.00  0.00    +0.000 C 
ATOM     15  C   UNL     1       1.696   2.305  20.094  0.00  0.00    +0.000 C 
ATOM     16  C   UNL     1       3.017   2.620  20.795  0.00  0.00    +0.000 C 
ENDBRANCH   9  11
ENDBRANCH   4   7
BRANCH   1  17
ATOM     17  O   UNL     1       7.119   4.687  13.232  0.00  0.00    +0.000 OA
BRANCH  17  18
ATOM     18  C   UNL     1       6.221   4.066  12.298  0.00  0.00    +0.000 C 
BRANCH  18  19
ATOM     19  C   UNL     1       6.811   2.788  11.726  0.00  0.00    +0.000 C 
BRANCH  19  21
ATOM     20  C   UNL     1       6.292   0.386  11.218  0.00  0.00    +0.000 C 
ATOM     21  C   UNL     1       5.703   1.762  11.466  0.00  0.00    +0.000 C 
ENDBRANCH  19  21
ENDBRANCH  18  19
ENDBRANCH  17  18
ENDBRANCH   1  17
TORSDOF 6
ENDMDL
