MODEL 1
REMARK VINA RESULT:      -7.9      0.000      0.000
REMARK  Name = 
REMARK  6 active torsions:
REMARK  status: ('A' for Active; 'I' for Inactive)
REMARK    1  A    between atoms: C_1  and  C_2
REMARK    2  A    between atoms: C_2  and  O_3
REMARK    3  A    between atoms: O_3  and  C_4
REMARK    4  A    between atoms: C_4  and  C_6
REMARK    5  A    between atoms: N_10  and  N_11
REMARK    6  A    between atoms: C_17  and  C_18
REMARK                            x       y       z     vdW  Elec       q    Type
REMARK                         _______ _______ _______ _____ _____    ______ ____
ROOT
ATOM      1  C   UNL     1       6.876   5.052  16.003  0.00  0.00    +0.000 A 
ATOM      2  C   UNL     1       7.433   6.103  16.707  0.00  0.00    +0.000 A 
ATOM      3  S   UNL     1       7.119   5.928  18.378  0.00  0.00    +0.000 S 
ATOM      4  C   UNL     1       6.209   4.495  18.061  0.00  0.00    +0.000 A 
ATOM      5  N   UNL     1       5.605   3.848  19.098  0.00  0.00    +0.000 N 
ATOM      6  N   UNL     1       6.171   4.148  16.794  0.00  0.00    +0.000 NA
ATOM      7  H   UNL     1       5.744   4.284  20.005  0.00  0.00    +0.000 HD
ENDROOT
BRANCH   5   8
ATOM      8  N   UNL     1       4.535   3.030  18.917  0.00  0.00    +0.000 NA
ATOM      9  C   UNL     1       3.328   3.501  19.023  0.00  0.00    +0.000 C 
ATOM     10  C   UNL     1       2.185   2.535  18.763  0.00  0.00    +0.000 C 
ATOM     11  C   UNL     1       1.244   2.524  19.959  0.00  0.00    +0.000 C 
ATOM     12  C   UNL     1       0.775   3.928  20.333  0.00  0.00    +0.000 C 
ATOM     13  C   UNL     1       1.956   4.872  20.568  0.00  0.00    +0.000 C 
ATOM     14  C   UNL     1       2.933   4.932  19.389  0.00  0.00    +0.000 C 
ATOM     15  C   UNL     1       2.344   5.651  18.176  0.00  0.00    +0.000 C 
ENDBRANCH   5   8
BRANCH   1  16
ATOM     16  C   UNL     1       6.958   4.929  14.547  0.00  0.00    +0.000 C 
ATOM     17  O   UNL     1       7.777   5.541  13.868  0.00  0.00    +0.000 OA
BRANCH  16  18
ATOM     18  O   UNL     1       5.982   4.126  14.039  0.00  0.00    +0.000 OA
BRANCH  18  20
ATOM     19  C   UNL     1       4.953   3.352  12.026  0.00  0.00    +0.000 C 
ATOM     20  C   UNL     1       6.266   3.533  12.768  0.00  0.00    +0.000 C 
ENDBRANCH  18  20
ENDBRANCH  16  18
ENDBRANCH   1  16
TORSDOF 4
ENDMDL
MODEL 2
REMARK VINA RESULT:      -7.5      1.472      1.806
REMARK  Name = 
REMARK  6 active torsions:
REMARK  status: ('A' for Active; 'I' for Inactive)
REMARK    1  A    between atoms: C_1  and  C_2
REMARK    2  A    between atoms: C_2  and  O_3
REMARK    3  A    between atoms: O_3  and  C_4
REMARK    4  A    between atoms: C_4  and  C_6
REMARK    5  A    between atoms: N_10  and  N_11
REMARK    6  A    between atoms: C_17  and  C_18
REMARK                            x       y       z     vdW  Elec       q    Type
REMARK                         _______ _______ _______ _____ _____    ______ ____
ROOT
ATOM      1  C   UNL     1       6.191   3.986  14.178  0.00  0.00    +0.000 A 
ATOM      2  C   UNL     1       7.099   4.928  14.626  0.00  0.00    +0.000 A 
ATOM      3  S   UNL     1       6.994   5.090  16.324  0.00  0.00    +0.000 S 
ATOM      4  C   UNL     1       5.704   3.942  16.357  0.00  0.00    +0.000 A 
ATOM      5  N   UNL     1       5.107   3.647  17.547  0.00  0.00    +0.000 N 
ATOM      6  N   UNL     1       5.396   3.441  15.183  0.00  0.00    +0.000 NA
ATOM      7  H   UNL     1       5.484   4.152  18.345  0.00  0.00    +0.000 HD
ENDROOT
BRANCH   5   8
ATOM      8  N   UNL     1       3.846   3.146  17.620  0.00  0.00    +0.000 NA
ATOM      9  C   UNL     1       2.923   3.795  18.267  0.00  0.00    +0.000 C 
ATOM     10  C   UNL     1       1.528   3.193  18.267  0.00  0.00    +0.000 C 
ATOM     11  C   UNL     1       1.047   3.018  19.700  0.00  0.00    +0.000 C 
ATOM     12  C   UNL     1       1.145   4.315  20.500  0.00  0.00    +0.000 C 
ATOM     13  C   UNL     1       2.561   4.895  20.460  0.00  0.00    +0.000 C 
ATOM     14  C   UNL     1       3.094   5.104  19.038  0.00  0.00    +0.000 C 
ATOM     15  C   UNL     1       2.390   6.249  18.310  0.00  0.00    +0.000 C 
ENDBRANCH   5   8
BRANCH   1  16
ATOM     16  C   UNL     1       6.029   3.638  12.766  0.00  0.00    +0.000 C 
ATOM     17  O   UNL     1       6.968   3.326  12.040  0.00  0.00    +0.000 OA
BRANCH  16  18
ATOM     18  O   UNL     1       4.741   3.774  12.344  0.00  0.00    +0.000 OA
BRANCH  18  20
ATOM     19  C   UNL     1       3.341   3.637  10.413  0.00  0.00    +0.000 C 
ATOM     20  C   UNL     1       4.338   2.897  11.287  0.00  0.00    +0.000 C 
ENDBRANCH  18  20
ENDBRANCH  16  18
ENDBRANCH   1  16
TORSDOF 4
ENDMDL
MODEL 3
REMARK VINA RESULT:      -7.1      0.951      1.048
REMARK  Name = 
REMARK  6 active torsions:
REMARK  status: ('A' for Active; 'I' for Inactive)
REMARK    1  A    between atoms: C_1  and  C_2
REMARK    2  A    between atoms: C_2  and  O_3
REMARK    3  A    between atoms: O_3  and  C_4
REMARK    4  A    between atoms: C_4  and  C_6
REMARK    5  A    between atoms: N_10  and  N_11
REMARK    6  A    between atoms: C_17  and  C_18
REMARK                            x       y       z     vdW  Elec       q    Type
REMARK                         _______ _______ _______ _____ _____    ______ ____
ROOT
ATOM      1  C   UNL     1       6.264   5.581  16.549  0.00  0.00    +0.000 A 
ATOM      2  C   UNL     1       7.065   6.320  17.400  0.00  0.00    +0.000 A 
ATOM      3  S   UNL     1       7.080   5.617  18.958  0.00  0.00    +0.000 S 
ATOM      4  C   UNL     1       5.970   4.405  18.425  0.00  0.00    +0.000 A 
ATOM      5  N   UNL     1       5.520   3.477  19.317  0.00  0.00    +0.000 N 
ATOM      6  N   UNL     1       5.638   4.496  17.157  0.00  0.00    +0.000 NA
ATOM      7  H   UNL     1       5.888   3.584  20.258  0.00  0.00    +0.000 HD
ENDROOT
BRANCH   5   8
ATOM      8  N   UNL     1       4.352   2.807  19.138  0.00  0.00    +0.000 NA
ATOM      9  C   UNL     1       3.218   3.436  19.233  0.00  0.00    +0.000 C 
ATOM     10  C   UNL     1       1.957   2.628  18.976  0.00  0.00    +0.000 C 
ATOM     11  C   UNL     1       1.018   2.755  20.167  0.00  0.00    +0.000 C 
ATOM     12  C   UNL     1       0.739   4.213  20.524  0.00  0.00    +0.000 C 
ATOM     13  C   UNL     1       2.035   4.993  20.757  0.00  0.00    +0.000 C 
ATOM     14  C   UNL     1       3.016   4.910  19.582  0.00  0.00    +0.000 C 
ATOM     15  C   UNL     1       2.533   5.688  18.359  0.00  0.00    +0.000 C 
ENDBRANCH   5   8
BRANCH   1  16
ATOM     16  C   UNL     1       6.035   5.942  15.150  0.00  0.00    +0.000 C 
ATOM     17  O   UNL     1       5.214   6.785  14.800  0.00  0.00    +0.000 OA
BRANCH  16  18
ATOM     18  O   UNL     1       6.778   5.188  14.292  0.00  0.00    +0.000 OA
BRANCH  18  20
ATOM     19  C   UNL     1       6.471   3.692  12.455  0.00  0.00    +0.000 C 
ATOM     20  C   UNL     1       6.215   3.921  13.934  0.00  0.00    +0.000 C 
ENDBRANCH  18  20
ENDBRANCH  16  18
ENDBRANCH   1  16
TORSDOF 4
ENDMDL
MODEL 4
REMARK VINA RESULT:      -7.1      1.531      1.655
REMARK  Name = 
REMARK  6 active torsions:
REMARK  status: ('A' for Active; 'I' for Inactive)
REMARK    1  A    between atoms: C_1  and  C_2
REMARK    2  A    between atoms: C_2  and  O_3
REMARK    3  A    between atoms: O_3  and  C_4
REMARK    4  A    between atoms: C_4  and  C_6
REMARK    5  A    between atoms: N_10  and  N_11
REMARK    6  A    between atoms: C_17  and  C_18
REMARK                            x       y       z     vdW  Elec       q    Type
REMARK                         _______ _______ _______ _____ _____    ______ ____
ROOT
ATOM      1  C   UNL     1       5.820   5.598  15.680  0.00  0.00    +0.000 A 
ATOM      2  C   UNL     1       5.146   6.781  15.441  0.00  0.00    +0.000 A 
ATOM      3  S   UNL     1       4.374   7.321  16.866  0.00  0.00    +0.000 S 
ATOM      4  C   UNL     1       4.931   5.917  17.704  0.00  0.00    +0.000 A 
ATOM      5  N   UNL     1       4.570   5.732  19.006  0.00  0.00    +0.000 N 
ATOM      6  N   UNL     1       5.676   5.114  16.978  0.00  0.00    +0.000 NA
ATOM      7  H   UNL     1       3.977   6.464  19.387  0.00  0.00    +0.000 HD
ENDROOT
BRANCH   5   8
ATOM      8  N   UNL     1       4.557   4.504  19.587  0.00  0.00    +0.000 NA
ATOM      9  C   UNL     1       3.435   3.864  19.734  0.00  0.00    +0.000 C 
ATOM     10  C   UNL     1       3.507   2.478  20.352  0.00  0.00    +0.000 C 
ATOM     11  C   UNL     1       2.584   2.409  21.560  0.00  0.00    +0.000 C 
ATOM     12  C   UNL     1       1.161   2.845  21.220  0.00  0.00    +0.000 C 
ATOM     13  C   UNL     1       1.136   4.237  20.585  0.00  0.00    +0.000 C 
ATOM     14  C   UNL     1       2.041   4.362  19.354  0.00  0.00    +0.000 C 
ATOM     15  C   UNL     1       1.505   3.586  18.152  0.00  0.00    +0.000 C 
ENDBRANCH   5   8
BRANCH   1  16
ATOM     16  C   UNL     1       6.564   4.877  14.647  0.00  0.00    +0.000 C 
ATOM     17  O   UNL     1       7.723   5.146  14.344  0.00  0.00    +0.000 OA
BRANCH  16  18
ATOM     18  O   UNL     1       5.803   3.936  14.022  0.00  0.00    +0.000 OA
BRANCH  18  20
ATOM     19  C   UNL     1       4.996   3.200  11.896  0.00  0.00    +0.000 C 
ATOM     20  C   UNL     1       6.227   3.569  12.705  0.00  0.00    +0.000 C 
ENDBRANCH  18  20
ENDBRANCH  16  18
ENDBRANCH   1  16
TORSDOF 4
ENDMDL
MODEL 5
REMARK VINA RESULT:      -7.0      0.994      1.405
REMARK  Name = 
REMARK  6 active torsions:
REMARK  status: ('A' for Active; 'I' for Inactive)
REMARK    1  A    between atoms: C_1  and  C_2
REMARK    2  A    between atoms: C_2  and  O_3
REMARK    3  A    between atoms: O_3  and  C_4
REMARK    4  A    between atoms: C_4  and  C_6
REMARK    5  A    between atoms: N_10  and  N_11
REMARK    6  A    between atoms: C_17  and  C_18
REMARK                            x       y       z     vdW  Elec       q    Type
REMARK                         _______ _______ _______ _____ _____    ______ ____
ROOT
ATOM      1  C   UNL     1       6.757   4.968  16.108  0.00  0.00    +0.000 A 
ATOM      2  C   UNL     1       7.245   6.159  16.612  0.00  0.00    +0.000 A 
ATOM      3  S   UNL     1       7.062   6.202  18.310  0.00  0.00    +0.000 S 
ATOM      4  C   UNL     1       6.290   4.658  18.270  0.00  0.00    +0.000 A 
ATOM      5  N   UNL     1       5.827   4.115  19.432  0.00  0.00    +0.000 N 
ATOM      6  N   UNL     1       6.206   4.126  17.071  0.00  0.00    +0.000 NA
ATOM      7  H   UNL     1       5.978   4.690  20.256  0.00  0.00    +0.000 HD
ENDROOT
BRANCH   5   8
ATOM      8  N   UNL     1       4.840   3.181  19.453  0.00  0.00    +0.000 NA
ATOM      9  C   UNL     1       3.594   3.549  19.421  0.00  0.00    +0.000 C 
ATOM     10  C   UNL     1       2.549   2.445  19.402  0.00  0.00    +0.000 C 
ATOM     11  C   UNL     1       1.571   2.648  20.550  0.00  0.00    +0.000 C 
ATOM     12  C   UNL     1       0.967   4.051  20.547  0.00  0.00    +0.000 C 
ATOM     13  C   UNL     1       2.052   5.130  20.548  0.00  0.00    +0.000 C 
ATOM     14  C   UNL     1       3.062   4.981  19.404  0.00  0.00    +0.000 C 
ATOM     15  C   UNL     1       2.455   5.312  18.041  0.00  0.00    +0.000 C 
ENDBRANCH   5   8
BRANCH   1  16
ATOM     16  C   UNL     1       6.756   4.642  14.681  0.00  0.00    +0.000 C 
ATOM     17  O   UNL     1       6.038   3.775  14.192  0.00  0.00    +0.000 OA
BRANCH  16  18
ATOM     18  O   UNL     1       7.688   5.354  13.987  0.00  0.00    +0.000 OA
BRANCH  18  20
ATOM     19  C   UNL     1       8.234   6.302  11.863  0.00  0.00    +0.000 C 
ATOM     20  C   UNL     1       7.790   5.047  12.592  0.00  0.00    +0.000 C 
ENDBRANCH  18  20
ENDBRANCH  16  18
ENDBRANCH   1  16
TORSDOF 4
ENDMDL
MODEL 6
REMARK VINA RESULT:      -6.8      1.511      1.783
REMARK  Name = 
REMARK  6 active torsions:
REMARK  status: ('A' for Active; 'I' for Inactive)
REMARK    1  A    between atoms: C_1  and  C_2
REMARK    2  A    between atoms: C_2  and  O_3
REMARK    3  A    between atoms: O_3  and  C_4
REMARK    4  A    between atoms: C_4  and  C_6
REMARK    5  A    between atoms: N_10  and  N_11
REMARK    6  A    between atoms: C_17  and  C_18
REMARK                            x       y       z     vdW  Elec       q    Type
REMARK                         _______ _______ _______ _____ _____    ______ ____
ROOT
ATOM      1  C   UNL     1       6.419   4.185  14.274  0.00  0.00    +0.000 A 
ATOM      2  C   UNL     1       7.341   5.079  14.788  0.00  0.00    +0.000 A 
ATOM      3  S   UNL     1       7.026   5.367  16.442  0.00  0.00    +0.000 S 
ATOM      4  C   UNL     1       5.645   4.332  16.364  0.00  0.00    +0.000 A 
ATOM      5  N   UNL     1       4.871   4.170  17.474  0.00  0.00    +0.000 N 
ATOM      6  N   UNL     1       5.451   3.777  15.188  0.00  0.00    +0.000 NA
ATOM      7  H   UNL     1       5.182   4.697  18.286  0.00  0.00    +0.000 HD
ENDROOT
BRANCH   5   8
ATOM      8  N   UNL     1       3.571   3.780  17.402  0.00  0.00    +0.000 NA
ATOM      9  C   UNL     1       2.738   4.107  18.345  0.00  0.00    +0.000 C 
ATOM     10  C   UNL     1       1.293   3.672  18.170  0.00  0.00    +0.000 C 
ATOM     11  C   UNL     1       0.849   2.875  19.388  0.00  0.00    +0.000 C 
ATOM     12  C   UNL     1       1.099   3.632  20.690  0.00  0.00    +0.000 C 
ATOM     13  C   UNL     1       2.560   4.066  20.817  0.00  0.00    +0.000 C 
ATOM     14  C   UNL     1       3.060   4.884  19.621  0.00  0.00    +0.000 C 
ATOM     15  C   UNL     1       2.442   6.281  19.568  0.00  0.00    +0.000 C 
ENDBRANCH   5   8
BRANCH   1  16
ATOM     16  C   UNL     1       6.415   3.754  12.875  0.00  0.00    +0.000 C 
ATOM     17  O   UNL     1       7.129   4.261  12.015  0.00  0.00    +0.000 OA
BRANCH  16  18
ATOM     18  O   UNL     1       5.484   2.789  12.634  0.00  0.00    +0.000 OA
BRANCH  18  20
ATOM     19  C   UNL     1       6.264   1.067  11.172  0.00  0.00    +0.000 C 
ATOM     20  C   UNL     1       5.413   2.320  11.283  0.00  0.00    +0.000 C 
ENDBRANCH  18  20
ENDBRANCH  16  18
ENDBRANCH   1  16
TORSDOF 4
ENDMDL
MODEL 7
REMARK VINA RESULT:      -6.5      1.293      1.956
REMARK  Name = 
REMARK  6 active torsions:
REMARK  status: ('A' for Active; 'I' for Inactive)
REMARK    1  A    between atoms: C_1  and  C_2
REMARK    2  A    between atoms: C_2  and  O_3
REMARK    3  A    between atoms: O_3  and  C_4
REMARK    4  A    between atoms: C_4  and  C_6
REMARK    5  A    between atoms: N_10  and  N_11
REMARK    6  A    between atoms: C_17  and  C_18
REMARK                            x       y       z     vdW  Elec       q    Type
REMARK                         _______ _______ _______ _____ _____    ______ ____
ROOT
ATOM      1  C   UNL     1       6.888   5.020  16.799  0.00  0.00    +0.000 A 
ATOM      2  C   UNL     1       7.941   5.471  17.573  0.00  0.00    +0.000 A 
ATOM      3  S   UNL     1       7.439   5.677  19.193  0.00  0.00    +0.000 S 
ATOM      4  C   UNL     1       5.833   5.212  18.758  0.00  0.00    +0.000 A 
ATOM      5  N   UNL     1       4.857   5.219  19.711  0.00  0.00    +0.000 N 
ATOM      6  N   UNL     1       5.688   4.888  17.493  0.00  0.00    +0.000 NA
ATOM      7  H   UNL     1       5.170   5.514  20.632  0.00  0.00    +0.000 HD
ENDROOT
BRANCH   5   8
ATOM      8  N   UNL     1       3.540   5.324  19.398  0.00  0.00    +0.000 NA
ATOM      9  C   UNL     1       2.743   4.313  19.584  0.00  0.00    +0.000 C 
ATOM     10  C   UNL     1       1.275   4.522  19.251  0.00  0.00    +0.000 C 
ATOM     11  C   UNL     1       0.818   3.456  18.267  0.00  0.00    +0.000 C 
ATOM     12  C   UNL     1       1.131   2.045  18.762  0.00  0.00    +0.000 C 
ATOM     13  C   UNL     1       2.614   1.885  19.102  0.00  0.00    +0.000 C 
ATOM     14  C   UNL     1       3.128   2.927  20.101  0.00  0.00    +0.000 C 
ATOM     15  C   UNL     1       2.577   2.710  21.510  0.00  0.00    +0.000 C 
ENDBRANCH   5   8
BRANCH   1  16
ATOM     16  C   UNL     1       7.000   4.767  15.362  0.00  0.00    +0.000 C 
ATOM     17  O   UNL     1       7.715   5.432  14.618  0.00  0.00    +0.000 OA
BRANCH  16  18
ATOM     18  O   UNL     1       6.171   3.769  14.946  0.00  0.00    +0.000 OA
BRANCH  18  20
ATOM     19  C   UNL     1       6.069   3.345  12.597  0.00  0.00    +0.000 C 
ATOM     20  C   UNL     1       5.407   4.049  13.768  0.00  0.00    +0.000 C 
ENDBRANCH  18  20
ENDBRANCH  16  18
ENDBRANCH   1  16
TORSDOF 4
ENDMDL
MODEL 8
REMARK VINA RESULT:      -6.5      2.401      3.716
REMARK  Name = 
REMARK  6 active torsions:
REMARK  status: ('A' for Active; 'I' for Inactive)
REMARK    1  A    between atoms: C_1  and  C_2
REMARK    2  A    between atoms: C_2  and  O_3
REMARK    3  A    between atoms: O_3  and  C_4
REMARK    4  A    between atoms: C_4  and  C_6
REMARK    5  A    between atoms: N_10  and  N_11
REMARK    6  A    between atoms: C_17  and  C_18
REMARK                            x       y       z     vdW  Elec       q    Type
REMARK                         _______ _______ _______ _____ _____    ______ ____
ROOT
ATOM      1  C   UNL     1       6.898   5.534  17.145  0.00  0.00    +0.000 A 
ATOM      2  C   UNL     1       7.145   5.166  15.835  0.00  0.00    +0.000 A 
ATOM      3  S   UNL     1       6.063   3.934  15.353  0.00  0.00    +0.000 S 
ATOM      4  C   UNL     1       5.369   3.920  16.935  0.00  0.00    +0.000 A 
ATOM      5  N   UNL     1       4.379   3.026  17.218  0.00  0.00    +0.000 N 
ATOM      6  N   UNL     1       5.885   4.802  17.760  0.00  0.00    +0.000 NA
ATOM      7  H   UNL     1       4.127   2.416  16.445  0.00  0.00    +0.000 HD
ENDROOT
BRANCH   5   8
ATOM      8  N   UNL     1       4.105   2.626  18.488  0.00  0.00    +0.000 NA
ATOM      9  C   UNL     1       3.043   3.066  19.095  0.00  0.00    +0.000 C 
ATOM     10  C   UNL     1       2.782   2.540  20.496  0.00  0.00    +0.000 C 
ATOM     11  C   UNL     1       2.632   3.707  21.461  0.00  0.00    +0.000 C 
ATOM     12  C   UNL     1       1.584   4.711  20.987  0.00  0.00    +0.000 C 
ATOM     13  C   UNL     1       1.875   5.201  19.567  0.00  0.00    +0.000 C 
ATOM     14  C   UNL     1       2.025   4.066  18.548  0.00  0.00    +0.000 C 
ATOM     15  C   UNL     1       0.698   3.369  18.249  0.00  0.00    +0.000 C 
ENDBRANCH   5   8
BRANCH   1  16
ATOM     16  C   UNL     1       7.674   6.555  17.850  0.00  0.00    +0.000 C 
ATOM     17  O   UNL     1       8.051   6.427  19.011  0.00  0.00    +0.000 OA
BRANCH  16  18
ATOM     18  O   UNL     1       7.860   7.675  17.098  0.00  0.00    +0.000 OA
BRANCH  18  20
ATOM     19  C   UNL     1       8.655   9.641  18.200  0.00  0.00    +0.000 C 
ATOM     20  C   UNL     1       7.428   8.902  17.696  0.00  0.00    +0.000 C 
ENDBRANCH  18  20
ENDBRANCH  16  18
ENDBRANCH   1  16
TORSDOF 4
ENDMDL
MODEL 9
REMARK VINA RESULT:      -6.5      2.394      3.353
REMARK  Name = 
REMARK  6 active torsions:
REMARK  status: ('A' for Active; 'I' for Inactive)
REMARK    1  A    between atoms: C_1  and  C_2
REMARK    2  A    between atoms: C_2  and  O_3
REMARK    3  A    between atoms: O_3  and  C_4
REMARK    4  A    between atoms: C_4  and  C_6
REMARK    5  A    between atoms: N_10  and  N_11
REMARK    6  A    between atoms: C_17  and  C_18
REMARK                            x       y       z     vdW  Elec       q    Type
REMARK                         _______ _______ _______ _____ _____    ______ ____
ROOT
ATOM      1  C   UNL     1       5.800   3.788  13.090  0.00  0.00    +0.000 A 
ATOM      2  C   UNL     1       7.106   4.234  13.010  0.00  0.00    +0.000 A 
ATOM      3  S   UNL     1       7.558   5.005  14.467  0.00  0.00    +0.000 S 
ATOM      4  C   UNL     1       5.969   4.753  15.097  0.00  0.00    +0.000 A 
ATOM      5  N   UNL     1       5.661   5.233  16.336  0.00  0.00    +0.000 N 
ATOM      6  N   UNL     1       5.164   4.103  14.288  0.00  0.00    +0.000 NA
ATOM      7  H   UNL     1       6.422   5.720  16.800  0.00  0.00    +0.000 HD
ENDROOT
BRANCH   5   8
ATOM      8  N   UNL     1       4.383   5.494  16.714  0.00  0.00    +0.000 NA
ATOM      9  C   UNL     1       3.764   4.684  17.521  0.00  0.00    +0.000 C 
ATOM     10  C   UNL     1       2.352   5.067  17.934  0.00  0.00    +0.000 C 
ATOM     11  C   UNL     1       1.399   3.925  17.615  0.00  0.00    +0.000 C 
ATOM     12  C   UNL     1       1.867   2.602  18.219  0.00  0.00    +0.000 C 
ATOM     13  C   UNL     1       3.297   2.264  17.793  0.00  0.00    +0.000 C 
ATOM     14  C   UNL     1       4.305   3.378  18.100  0.00  0.00    +0.000 C 
ATOM     15  C   UNL     1       4.574   3.526  19.597  0.00  0.00    +0.000 C 
ENDBRANCH   5   8
BRANCH   1  16
ATOM     16  C   UNL     1       5.119   3.103  11.990  0.00  0.00    +0.000 C 
ATOM     17  O   UNL     1       5.483   2.017  11.548  0.00  0.00    +0.000 OA
BRANCH  16  18
ATOM     18  O   UNL     1       4.095   3.841  11.476  0.00  0.00    +0.000 OA
BRANCH  18  20
ATOM     19  C   UNL     1       2.830   4.263   9.494  0.00  0.00    +0.000 C 
ATOM     20  C   UNL     1       3.317   3.198  10.461  0.00  0.00    +0.000 C 
ENDBRANCH  18  20
ENDBRANCH  16  18
ENDBRANCH   1  16
TORSDOF 4
ENDMDL
