MODEL 1
REMARK VINA RESULT:      -6.1      0.000      0.000
REMARK  Name = 
REMARK  6 active torsions:
REMARK  status: ('A' for Active; 'I' for Inactive)
REMARK    1  A    between atoms: C_1  and  S_2
REMARK    2  A    between atoms: S_2  and  C_3
REMARK    3  A    between atoms: C_5  and  O_6
REMARK    4  A    between atoms: O_6  and  C_7
REMARK    5  A    between atoms: C_7  and  C_8
REMARK    6  A    between atoms: C_7  and  C_9
REMARK                            x       y       z     vdW  Elec       q    Type
REMARK                         _______ _______ _______ _____ _____    ______ ____
ROOT
ATOM      1  C   UNL     1       4.887   3.965  16.635  0.00  0.00    +0.000 A 
ATOM      2  N   UNL     1       5.788   4.808  17.254  0.00  0.00    +0.000 NA
ATOM      3  C   UNL     1       6.717   5.315  16.507  0.00  0.00    +0.000 A 
ATOM      4  N   UNL     1       6.800   5.036  15.150  0.00  0.00    +0.000 N 
ATOM      5  N   UNL     1       7.739   5.486  14.282  0.00  0.00    +0.000 NA
ATOM      6  C   UNL     1       7.423   4.850  13.146  0.00  0.00    +0.000 A 
ATOM      7  C   UNL     1       6.304   4.016  13.301  0.00  0.00    +0.000 A 
ATOM      8 BR   UNL     1       5.575   2.929  11.971  0.00  0.00    +0.000 Br
ATOM      9  C   UNL     1       5.899   4.157  14.605  0.00  0.00    +0.000 A 
ATOM     10  N   UNL     1       4.909   3.628  15.376  0.00  0.00    +0.000 NA
ENDROOT
BRANCH   1  12
ATOM     11  C   UNL     1       4.476   3.368  19.282  0.00  0.00    +0.000 C 
ATOM     12  S   UNL     1       3.643   3.306  17.683  0.00  0.00    +0.000 S 
ENDBRANCH   1  12
BRANCH   3  13
ATOM     13  O   UNL     1       7.732   6.109  16.929  0.00  0.00    +0.000 OA
BRANCH  13  14
ATOM     14  C   UNL     1       7.493   6.904  18.108  0.00  0.00    +0.000 C 
ATOM     15  C   UNL     1       8.196   6.267  19.306  0.00  0.00    +0.000 C 
ATOM     16  C   UNL     1       8.074   8.290  17.843  0.00  0.00    +0.000 C 
ENDBRANCH  13  14
ENDBRANCH   3  13
TORSDOF 3
ENDMDL
MODEL 2
REMARK VINA RESULT:      -6.0      3.828      5.388
REMARK  Name = 
REMARK  6 active torsions:
REMARK  status: ('A' for Active; 'I' for Inactive)
REMARK    1  A    between atoms: C_1  and  S_2
REMARK    2  A    between atoms: S_2  and  C_3
REMARK    3  A    between atoms: C_5  and  O_6
REMARK    4  A    between atoms: O_6  and  C_7
REMARK    5  A    between atoms: C_7  and  C_8
REMARK    6  A    between atoms: C_7  and  C_9
REMARK                            x       y       z     vdW  Elec       q    Type
REMARK                         _______ _______ _______ _____ _____    ______ ____
ROOT
ATOM      1  C   UNL     1       2.860   6.315  18.275  0.00  0.00    +0.000 A 
ATOM      2  N   UNL     1       3.782   6.000  17.298  0.00  0.00    +0.000 NA
ATOM      3  C   UNL     1       4.144   4.758  17.220  0.00  0.00    +0.000 A 
ATOM      4  N   UNL     1       3.626   3.789  18.068  0.00  0.00    +0.000 N 
ATOM      5  N   UNL     1       3.950   2.473  18.094  0.00  0.00    +0.000 NA
ATOM      6  C   UNL     1       3.254   2.016  19.143  0.00  0.00    +0.000 A 
ATOM      7  C   UNL     1       2.505   3.030  19.763  0.00  0.00    +0.000 A 
ATOM      8 BR   UNL     1       1.439   2.813  21.279  0.00  0.00    +0.000 Br
ATOM      9  C   UNL     1       2.745   4.176  19.045  0.00  0.00    +0.000 A 
ATOM     10  N   UNL     1       2.345   5.475  19.128  0.00  0.00    +0.000 NA
ENDROOT
BRANCH   1  12
ATOM     11  C   UNL     1       1.743   8.114  20.020  0.00  0.00    +0.000 C 
ATOM     12  S   UNL     1       2.393   8.006  18.341  0.00  0.00    +0.000 S 
ENDBRANCH   1  12
BRANCH   3  13
ATOM     13  O   UNL     1       5.081   4.255  16.378  0.00  0.00    +0.000 OA
BRANCH  13  14
ATOM     14  C   UNL     1       6.293   5.017  16.218  0.00  0.00    +0.000 C 
ATOM     15  C   UNL     1       7.320   4.572  17.259  0.00  0.00    +0.000 C 
ATOM     16  C   UNL     1       6.822   4.735  14.815  0.00  0.00    +0.000 C 
ENDBRANCH  13  14
ENDBRANCH   3  13
TORSDOF 3
ENDMDL
MODEL 3
REMARK VINA RESULT:      -5.8      4.251      5.463
REMARK  Name = 
REMARK  6 active torsions:
REMARK  status: ('A' for Active; 'I' for Inactive)
REMARK    1  A    between atoms: C_1  and  S_2
REMARK    2  A    between atoms: S_2  and  C_3
REMARK    3  A    between atoms: C_5  and  O_6
REMARK    4  A    between atoms: O_6  and  C_7
REMARK    5  A    between atoms: C_7  and  C_8
REMARK    6  A    between atoms: C_7  and  C_9
REMARK                            x       y       z     vdW  Elec       q    Type
REMARK                         _______ _______ _______ _____ _____    ______ ____
ROOT
ATOM      1  C   UNL     1       2.604   6.786  19.198  0.00  0.00    +0.000 A 
ATOM      2  N   UNL     1       3.668   6.804  18.319  0.00  0.00    +0.000 NA
ATOM      3  C   UNL     1       4.291   5.683  18.139  0.00  0.00    +0.000 A 
ATOM      4  N   UNL     1       3.904   4.517  18.787  0.00  0.00    +0.000 N 
ATOM      5  N   UNL     1       4.496   3.301  18.695  0.00  0.00    +0.000 NA
ATOM      6  C   UNL     1       3.807   2.569  19.581  0.00  0.00    +0.000 A 
ATOM      7  C   UNL     1       2.801   3.315  20.216  0.00  0.00    +0.000 A 
ATOM      8 BR   UNL     1       1.654   2.674  21.541  0.00  0.00    +0.000 Br
ATOM      9  C   UNL     1       2.866   4.577  19.680  0.00  0.00    +0.000 A 
ATOM     10  N   UNL     1       2.193   5.747  19.867  0.00  0.00    +0.000 NA
ENDROOT
BRANCH   1  12
ATOM     11  C   UNL     1       1.995   9.048  17.767  0.00  0.00    +0.000 C 
ATOM     12  S   UNL     1       1.785   8.326  19.407  0.00  0.00    +0.000 S 
ENDBRANCH   1  12
BRANCH   3  13
ATOM     13  O   UNL     1       5.395   5.500  17.373  0.00  0.00    +0.000 OA
BRANCH  13  14
ATOM     14  C   UNL     1       6.670   5.776  17.987  0.00  0.00    +0.000 C 
ATOM     15  C   UNL     1       7.637   4.629  17.695  0.00  0.00    +0.000 C 
ATOM     16  C   UNL     1       7.198   7.068  17.371  0.00  0.00    +0.000 C 
ENDBRANCH  13  14
ENDBRANCH   3  13
TORSDOF 3
ENDMDL
MODEL 4
REMARK VINA RESULT:      -5.7      3.735      4.609
REMARK  Name = 
REMARK  6 active torsions:
REMARK  status: ('A' for Active; 'I' for Inactive)
REMARK    1  A    between atoms: C_1  and  S_2
REMARK    2  A    between atoms: S_2  and  C_3
REMARK    3  A    between atoms: C_5  and  O_6
REMARK    4  A    between atoms: O_6  and  C_7
REMARK    5  A    between atoms: C_7  and  C_8
REMARK    6  A    between atoms: C_7  and  C_9
REMARK                            x       y       z     vdW  Elec       q    Type
REMARK                         _______ _______ _______ _____ _____    ______ ____
ROOT
ATOM      1  C   UNL     1       2.644   7.032  18.123  0.00  0.00    +0.000 A 
ATOM      2  N   UNL     1       3.931   7.139  17.636  0.00  0.00    +0.000 NA
ATOM      3  C   UNL     1       4.537   6.030  17.349  0.00  0.00    +0.000 A 
ATOM      4  N   UNL     1       3.924   4.796  17.512  0.00  0.00    +0.000 N 
ATOM      5  N   UNL     1       4.469   3.578  17.271  0.00  0.00    +0.000 NA
ATOM      6  C   UNL     1       3.509   2.737  17.680  0.00  0.00    +0.000 A 
ATOM      7  C   UNL     1       2.382   3.418  18.169  0.00  0.00    +0.000 A 
ATOM      8 BR   UNL     1       0.853   2.612  18.871  0.00  0.00    +0.000 Br
ATOM      9  C   UNL     1       2.659   4.757  18.040  0.00  0.00    +0.000 A 
ATOM     10  N   UNL     1       2.006   5.915  18.332  0.00  0.00    +0.000 NA
ENDROOT
BRANCH   1  12
ATOM     11  C   UNL     1       1.529   8.352  20.254  0.00  0.00    +0.000 C 
ATOM     12  S   UNL     1       1.859   8.558  18.492  0.00  0.00    +0.000 S 
ENDBRANCH   1  12
BRANCH   3  13
ATOM     13  O   UNL     1       5.819   5.913  16.922  0.00  0.00    +0.000 OA
BRANCH  13  14
ATOM     14  C   UNL     1       6.855   6.064  17.914  0.00  0.00    +0.000 C 
ATOM     15  C   UNL     1       7.759   4.832  17.902  0.00  0.00    +0.000 C 
ATOM     16  C   UNL     1       7.662   7.303  17.538  0.00  0.00    +0.000 C 
ENDBRANCH  13  14
ENDBRANCH   3  13
TORSDOF 3
ENDMDL
MODEL 5
REMARK VINA RESULT:      -5.7      2.470      4.206
REMARK  Name = 
REMARK  6 active torsions:
REMARK  status: ('A' for Active; 'I' for Inactive)
REMARK    1  A    between atoms: C_1  and  S_2
REMARK    2  A    between atoms: S_2  and  C_3
REMARK    3  A    between atoms: C_5  and  O_6
REMARK    4  A    between atoms: O_6  and  C_7
REMARK    5  A    between atoms: C_7  and  C_8
REMARK    6  A    between atoms: C_7  and  C_9
REMARK                            x       y       z     vdW  Elec       q    Type
REMARK                         _______ _______ _______ _____ _____    ______ ____
ROOT
ATOM      1  C   UNL     1       5.378   4.418  15.339  0.00  0.00    +0.000 A 
ATOM      2  N   UNL     1       6.026   5.570  15.735  0.00  0.00    +0.000 NA
ATOM      3  C   UNL     1       5.709   6.043  16.899  0.00  0.00    +0.000 A 
ATOM      4  N   UNL     1       4.774   5.419  17.714  0.00  0.00    +0.000 N 
ATOM      5  N   UNL     1       4.349   5.837  18.931  0.00  0.00    +0.000 NA
ATOM      6  C   UNL     1       3.390   4.950  19.231  0.00  0.00    +0.000 A 
ATOM      7  C   UNL     1       3.220   3.993  18.218  0.00  0.00    +0.000 A 
ATOM      8 BR   UNL     1       1.960   2.616  18.233  0.00  0.00    +0.000 Br
ATOM      9  C   UNL     1       4.136   4.301  17.243  0.00  0.00    +0.000 A 
ATOM     10  N   UNL     1       4.470   3.786  16.027  0.00  0.00    +0.000 NA
ENDROOT
BRANCH   1  12
ATOM     11  C   UNL     1       7.267   4.854  13.397  0.00  0.00    +0.000 C 
ATOM     12  S   UNL     1       5.842   3.809  13.759  0.00  0.00    +0.000 S 
ENDBRANCH   1  12
BRANCH   3  13
ATOM     13  O   UNL     1       6.178   7.193  17.444  0.00  0.00    +0.000 OA
BRANCH  13  14
ATOM     14  C   UNL     1       7.606   7.306  17.605  0.00  0.00    +0.000 C 
ATOM     15  C   UNL     1       7.977   8.763  17.878  0.00  0.00    +0.000 C 
ATOM     16  C   UNL     1       7.996   6.440  18.799  0.00  0.00    +0.000 C 
ENDBRANCH  13  14
ENDBRANCH   3  13
TORSDOF 3
ENDMDL
MODEL 6
REMARK VINA RESULT:      -5.6      4.073      5.488
REMARK  Name = 
REMARK  6 active torsions:
REMARK  status: ('A' for Active; 'I' for Inactive)
REMARK    1  A    between atoms: C_1  and  S_2
REMARK    2  A    between atoms: S_2  and  C_3
REMARK    3  A    between atoms: C_5  and  O_6
REMARK    4  A    between atoms: O_6  and  C_7
REMARK    5  A    between atoms: C_7  and  C_8
REMARK    6  A    between atoms: C_7  and  C_9
REMARK                            x       y       z     vdW  Elec       q    Type
REMARK                         _______ _______ _______ _____ _____    ______ ____
ROOT
ATOM      1  C   UNL     1       3.307   4.016  19.702  0.00  0.00    +0.000 A 
ATOM      2  N   UNL     1       3.955   3.894  18.490  0.00  0.00    +0.000 NA
ATOM      3  C   UNL     1       4.014   4.958  17.753  0.00  0.00    +0.000 A 
ATOM      4  N   UNL     1       3.464   6.164  18.163  0.00  0.00    +0.000 N 
ATOM      5  N   UNL     1       3.443   7.327  17.467  0.00  0.00    +0.000 NA
ATOM      6  C   UNL     1       2.717   8.132  18.255  0.00  0.00    +0.000 A 
ATOM      7  C   UNL     1       2.292   7.482  19.425  0.00  0.00    +0.000 A 
ATOM      8 BR   UNL     1       1.226   8.242  20.756  0.00  0.00    +0.000 Br
ATOM      9  C   UNL     1       2.796   6.207  19.360  0.00  0.00    +0.000 A 
ATOM     10  N   UNL     1       2.740   5.100  20.150  0.00  0.00    +0.000 NA
ENDROOT
BRANCH   1  12
ATOM     11  C   UNL     1       1.700   2.782  21.552  0.00  0.00    +0.000 C 
ATOM     12  S   UNL     1       3.257   2.552  20.670  0.00  0.00    +0.000 S 
ENDBRANCH   1  12
BRANCH   3  13
ATOM     13  O   UNL     1       4.546   5.034  16.508  0.00  0.00    +0.000 OA
BRANCH  13  14
ATOM     14  C   UNL     1       5.841   4.435  16.312  0.00  0.00    +0.000 C 
ATOM     15  C   UNL     1       6.002   4.029  14.847  0.00  0.00    +0.000 C 
ATOM     16  C   UNL     1       6.885   5.486  16.675  0.00  0.00    +0.000 C 
ENDBRANCH  13  14
ENDBRANCH   3  13
TORSDOF 3
ENDMDL
MODEL 7
REMARK VINA RESULT:      -5.6      3.724      4.949
REMARK  Name = 
REMARK  6 active torsions:
REMARK  status: ('A' for Active; 'I' for Inactive)
REMARK    1  A    between atoms: C_1  and  S_2
REMARK    2  A    between atoms: S_2  and  C_3
REMARK    3  A    between atoms: C_5  and  O_6
REMARK    4  A    between atoms: O_6  and  C_7
REMARK    5  A    between atoms: C_7  and  C_8
REMARK    6  A    between atoms: C_7  and  C_9
REMARK                            x       y       z     vdW  Elec       q    Type
REMARK                         _______ _______ _______ _____ _____    ______ ____
ROOT
ATOM      1  C   UNL     1       3.444   6.376  18.278  0.00  0.00    +0.000 A 
ATOM      2  N   UNL     1       4.785   6.367  18.603  0.00  0.00    +0.000 NA
ATOM      3  C   UNL     1       5.273   5.242  19.021  0.00  0.00    +0.000 A 
ATOM      4  N   UNL     1       4.492   4.099  19.130  0.00  0.00    +0.000 N 
ATOM      5  N   UNL     1       4.888   2.883  19.578  0.00  0.00    +0.000 NA
ATOM      6  C   UNL     1       3.747   2.180  19.576  0.00  0.00    +0.000 A 
ATOM      7  C   UNL     1       2.656   2.945  19.133  0.00  0.00    +0.000 A 
ATOM      8 BR   UNL     1       0.891   2.348  19.026  0.00  0.00    +0.000 Br
ATOM      9  C   UNL     1       3.157   4.187  18.832  0.00  0.00    +0.000 A 
ATOM     10  N   UNL     1       2.635   5.360  18.377  0.00  0.00    +0.000 NA
ENDROOT
BRANCH   1  12
ATOM     11  C   UNL     1       1.798   8.408  19.109  0.00  0.00    +0.000 C 
ATOM     12  S   UNL     1       2.827   7.919  17.710  0.00  0.00    +0.000 S 
ENDBRANCH   1  12
BRANCH   3  13
ATOM     13  O   UNL     1       6.543   5.036  19.450  0.00  0.00    +0.000 OA
BRANCH  13  14
ATOM     14  C   UNL     1       7.597   5.221  18.484  0.00  0.00    +0.000 C 
ATOM     15  C   UNL     1       7.166   4.642  17.138  0.00  0.00    +0.000 C 
ATOM     16  C   UNL     1       7.830   6.723  18.352  0.00  0.00    +0.000 C 
ENDBRANCH  13  14
ENDBRANCH   3  13
TORSDOF 3
ENDMDL
MODEL 8
REMARK VINA RESULT:      -5.6      4.026      5.821
REMARK  Name = 
REMARK  6 active torsions:
REMARK  status: ('A' for Active; 'I' for Inactive)
REMARK    1  A    between atoms: C_1  and  S_2
REMARK    2  A    between atoms: S_2  and  C_3
REMARK    3  A    between atoms: C_5  and  O_6
REMARK    4  A    between atoms: O_6  and  C_7
REMARK    5  A    between atoms: C_7  and  C_8
REMARK    6  A    between atoms: C_7  and  C_9
REMARK                            x       y       z     vdW  Elec       q    Type
REMARK                         _______ _______ _______ _____ _____    ______ ____
ROOT
ATOM      1  C   UNL     1       2.839   7.310  18.359  0.00  0.00    +0.000 A 
ATOM      2  N   UNL     1       2.361   6.561  19.416  0.00  0.00    +0.000 NA
ATOM      3  C   UNL     1       3.048   5.512  19.740  0.00  0.00    +0.000 A 
ATOM      4  N   UNL     1       4.211   5.160  19.068  0.00  0.00    +0.000 N 
ATOM      5  N   UNL     1       4.989   4.076  19.303  0.00  0.00    +0.000 NA
ATOM      6  C   UNL     1       5.907   4.153  18.330  0.00  0.00    +0.000 A 
ATOM      7  C   UNL     1       5.705   5.268  17.500  0.00  0.00    +0.000 A 
ATOM      8 BR   UNL     1       6.738   5.705  16.008  0.00  0.00    +0.000 Br
ATOM      9  C   UNL     1       4.607   5.922  18.000  0.00  0.00    +0.000 A 
ATOM     10  N   UNL     1       3.903   7.037  17.658  0.00  0.00    +0.000 NA
ENDROOT
BRANCH   1  12
ATOM     11  C   UNL     1       1.211   9.154  19.577  0.00  0.00    +0.000 C 
ATOM     12  S   UNL     1       1.881   8.726  17.958  0.00  0.00    +0.000 S 
ENDBRANCH   1  12
BRANCH   3  13
ATOM     13  O   UNL     1       2.719   4.612  20.700  0.00  0.00    +0.000 OA
BRANCH  13  14
ATOM     14  C   UNL     1       1.428   3.981  20.589  0.00  0.00    +0.000 C 
ATOM     15  C   UNL     1       1.256   3.409  19.182  0.00  0.00    +0.000 C 
ATOM     16  C   UNL     1       1.387   2.852  21.615  0.00  0.00    +0.000 C 
ENDBRANCH  13  14
ENDBRANCH   3  13
TORSDOF 3
ENDMDL
MODEL 9
REMARK VINA RESULT:      -5.5      3.453      4.157
REMARK  Name = 
REMARK  6 active torsions:
REMARK  status: ('A' for Active; 'I' for Inactive)
REMARK    1  A    between atoms: C_1  and  S_2
REMARK    2  A    between atoms: S_2  and  C_3
REMARK    3  A    between atoms: C_5  and  O_6
REMARK    4  A    between atoms: O_6  and  C_7
REMARK    5  A    between atoms: C_7  and  C_8
REMARK    6  A    between atoms: C_7  and  C_9
REMARK                            x       y       z     vdW  Elec       q    Type
REMARK                         _______ _______ _______ _____ _____    ______ ____
ROOT
ATOM      1  C   UNL     1       2.952   3.586  18.186  0.00  0.00    +0.000 A 
ATOM      2  N   UNL     1       2.672   4.711  18.935  0.00  0.00    +0.000 NA
ATOM      3  C   UNL     1       3.250   5.811  18.568  0.00  0.00    +0.000 A 
ATOM      4  N   UNL     1       4.100   5.862  17.471  0.00  0.00    +0.000 N 
ATOM      5  N   UNL     1       4.775   6.945  17.016  0.00  0.00    +0.000 NA
ATOM      6  C   UNL     1       5.513   6.437  16.019  0.00  0.00    +0.000 A 
ATOM      7  C   UNL     1       5.301   5.059  15.854  0.00  0.00    +0.000 A 
ATOM      8 BR   UNL     1       6.167   3.974  14.606  0.00  0.00    +0.000 Br
ATOM      9  C   UNL     1       4.369   4.700  16.796  0.00  0.00    +0.000 A 
ATOM     10  N   UNL     1       3.757   3.540  17.162  0.00  0.00    +0.000 NA
ENDROOT
BRANCH   1  12
ATOM     11  C   UNL     1       0.824   2.808  19.734  0.00  0.00    +0.000 C 
ATOM     12  S   UNL     1       2.143   2.120  18.714  0.00  0.00    +0.000 S 
ENDBRANCH   1  12
BRANCH   3  13
ATOM     13  O   UNL     1       3.161   7.006  19.203  0.00  0.00    +0.000 OA
BRANCH  13  14
ATOM     14  C   UNL     1       1.873   7.652  19.203  0.00  0.00    +0.000 C 
ATOM     15  C   UNL     1       1.563   8.176  20.605  0.00  0.00    +0.000 C 
ATOM     16  C   UNL     1       1.952   8.817  18.221  0.00  0.00    +0.000 C 
ENDBRANCH  13  14
ENDBRANCH   3  13
TORSDOF 3
ENDMDL
