MODEL 1
REMARK VINA RESULT:      -6.2      0.000      0.000
REMARK  Name = 
REMARK  15 active torsions:
REMARK  status: ('A' for Active; 'I' for Inactive)
REMARK    1  A    between atoms: C_1  and  C_2
REMARK    2  A    between atoms: C_2  and  C_3
REMARK    3  A    between atoms: C_3  and  C_4
REMARK    4  A    between atoms: C_4  and  C_5
REMARK    5  A    between atoms: C_5  and  C_6
REMARK    6  A    between atoms: C_7  and  C_8
REMARK    7  A    between atoms: C_8  and  C_10
REMARK    8  A    between atoms: C_10  and  C_11
REMARK    9  A    between atoms: C_11  and  C_12
REMARK   10  A    between atoms: C_12  and  C_13
REMARK   11  A    between atoms: C_13  and  C_14
REMARK   12  A    between atoms: C_14  and  C_15
REMARK   13  A    between atoms: C_15  and  C_16
REMARK   14  A    between atoms: C_16  and  C_17
REMARK   15  A    between atoms: C_17  and  O_19
REMARK                            x       y       z     vdW  Elec       q    Type
REMARK                         _______ _______ _______ _____ _____    ______ ____
ROOT
ATOM      1  C   UNL     1       5.876   4.697  16.891  0.00  0.00    +0.000 C 
ENDROOT
BRANCH   1   2
ATOM      2  C   UNL     1       6.707   5.038  15.672  0.00  0.00    +0.000 C 
ATOM      3  O   UNL     1       7.601   5.882  15.697  0.00  0.00    +0.000 OA
BRANCH   2   5
ATOM      4  C   UNL     1       7.073   4.537  13.298  0.00  0.00    +0.000 C 
ATOM      5  C   UNL     1       6.413   4.265  14.434  0.00  0.00    +0.000 C 
BRANCH   4   6
ATOM      6  C   UNL     1       6.841   3.811  12.008  0.00  0.00    +0.000 C 
BRANCH   6   7
ATOM      7  C   UNL     1       5.565   2.974  12.075  0.00  0.00    +0.000 C 
BRANCH   7   8
ATOM      8  C   UNL     1       4.350   3.806  11.668  0.00  0.00    +0.000 C 
BRANCH   8  10
ATOM      9  C   UNL     1       2.928   4.053   9.613  0.00  0.00    +0.000 C 
ATOM     10  C   UNL     1       3.501   3.080  10.629  0.00  0.00    +0.000 C 
ENDBRANCH   8  10
ENDBRANCH   7   8
ENDBRANCH   6   7
ENDBRANCH   4   6
ENDBRANCH   2   5
ENDBRANCH   1   2
BRANCH   1  11
ATOM     11  C   UNL     1       5.451   5.963  17.627  0.00  0.00    +0.000 C 
BRANCH  11  12
ATOM     12  C   UNL     1       4.120   6.498  17.108  0.00  0.00    +0.000 C 
BRANCH  12  13
ATOM     13  C   UNL     1       3.109   6.612  18.246  0.00  0.00    +0.000 C 
BRANCH  13  14
ATOM     14  C   UNL     1       2.740   5.240  18.812  0.00  0.00    +0.000 C 
BRANCH  14  15
ATOM     15  C   UNL     1       1.995   4.417  17.764  0.00  0.00    +0.000 C 
BRANCH  15  16
ATOM     16  C   UNL     1       1.859   2.953  18.175  0.00  0.00    +0.000 C 
BRANCH  16  17
ATOM     17  C   UNL     1       3.145   2.431  18.774  0.00  0.00    +0.000 C 
ATOM     18  O   UNL     1       3.404   2.389  19.966  0.00  0.00    +0.000 OA
BRANCH  17  19
ATOM     19  O   UNL     1       4.013   1.998  17.832  0.00  0.00    +0.000 OA
ATOM     20  H   UNL     1       3.704   2.140  16.918  0.00  0.00    +0.000 HD
ENDBRANCH  17  19
ENDBRANCH  16  17
ENDBRANCH  15  16
ENDBRANCH  14  15
ENDBRANCH  13  14
ENDBRANCH  12  13
ENDBRANCH  11  12
ENDBRANCH   1  11
TORSDOF 14
ENDMDL
MODEL 2
REMARK VINA RESULT:      -6.1      0.990      1.674
REMARK  Name = 
REMARK  15 active torsions:
REMARK  status: ('A' for Active; 'I' for Inactive)
REMARK    1  A    between atoms: C_1  and  C_2
REMARK    2  A    between atoms: C_2  and  C_3
REMARK    3  A    between atoms: C_3  and  C_4
REMARK    4  A    between atoms: C_4  and  C_5
REMARK    5  A    between atoms: C_5  and  C_6
REMARK    6  A    between atoms: C_7  and  C_8
REMARK    7  A    between atoms: C_8  and  C_10
REMARK    8  A    between atoms: C_10  and  C_11
REMARK    9  A    between atoms: C_11  and  C_12
REMARK   10  A    between atoms: C_12  and  C_13
REMARK   11  A    between atoms: C_13  and  C_14
REMARK   12  A    between atoms: C_14  and  C_15
REMARK   13  A    between atoms: C_15  and  C_16
REMARK   14  A    between atoms: C_16  and  C_17
REMARK   15  A    between atoms: C_17  and  O_19
REMARK                            x       y       z     vdW  Elec       q    Type
REMARK                         _______ _______ _______ _____ _____    ______ ____
ROOT
ATOM      1  C   UNL     1       5.650   4.117  15.745  0.00  0.00    +0.000 C 
ENDROOT
BRANCH   1   2
ATOM      2  C   UNL     1       6.585   4.424  14.594  0.00  0.00    +0.000 C 
ATOM      3  O   UNL     1       7.529   5.206  14.700  0.00  0.00    +0.000 OA
BRANCH   2   5
ATOM      4  C   UNL     1       5.207   3.932  12.623  0.00  0.00    +0.000 C 
ATOM      5  C   UNL     1       6.329   3.697  13.320  0.00  0.00    +0.000 C 
BRANCH   4   6
ATOM      6  C   UNL     1       4.870   3.246  11.336  0.00  0.00    +0.000 C 
BRANCH   6   7
ATOM      7  C   UNL     1       3.388   2.878  11.284  0.00  0.00    +0.000 C 
BRANCH   7   8
ATOM      8  C   UNL     1       2.817   3.128   9.890  0.00  0.00    +0.000 C 
BRANCH   8  10
ATOM      9  C   UNL     1       1.993   5.211   8.754  0.00  0.00    +0.000 C 
ATOM     10  C   UNL     1       3.192   4.516   9.375  0.00  0.00    +0.000 C 
ENDBRANCH   8  10
ENDBRANCH   7   8
ENDBRANCH   6   7
ENDBRANCH   4   6
ENDBRANCH   2   5
ENDBRANCH   1   2
BRANCH   1  11
ATOM     11  C   UNL     1       6.184   4.703  17.047  0.00  0.00    +0.000 C 
BRANCH  11  12
ATOM     12  C   UNL     1       5.686   6.128  17.271  0.00  0.00    +0.000 C 
BRANCH  12  13
ATOM     13  C   UNL     1       4.163   6.183  17.169  0.00  0.00    +0.000 C 
BRANCH  13  14
ATOM     14  C   UNL     1       3.495   5.721  18.463  0.00  0.00    +0.000 C 
BRANCH  14  15
ATOM     15  C   UNL     1       2.628   4.491  18.203  0.00  0.00    +0.000 C 
BRANCH  15  16
ATOM     16  C   UNL     1       2.762   3.450  19.311  0.00  0.00    +0.000 C 
BRANCH  16  17
ATOM     17  C   UNL     1       3.787   2.397  18.952  0.00  0.00    +0.000 C 
ATOM     18  O   UNL     1       3.584   1.426  18.241  0.00  0.00    +0.000 OA
BRANCH  17  19
ATOM     19  O   UNL     1       4.993   2.642  19.511  0.00  0.00    +0.000 OA
ATOM     20  H   UNL     1       5.026   3.469  20.027  0.00  0.00    +0.000 HD
ENDBRANCH  17  19
ENDBRANCH  16  17
ENDBRANCH  15  16
ENDBRANCH  14  15
ENDBRANCH  13  14
ENDBRANCH  12  13
ENDBRANCH  11  12
ENDBRANCH   1  11
TORSDOF 14
ENDMDL
MODEL 3
REMARK VINA RESULT:      -6.0      3.834      6.504
REMARK  Name = 
REMARK  15 active torsions:
REMARK  status: ('A' for Active; 'I' for Inactive)
REMARK    1  A    between atoms: C_1  and  C_2
REMARK    2  A    between atoms: C_2  and  C_3
REMARK    3  A    between atoms: C_3  and  C_4
REMARK    4  A    between atoms: C_4  and  C_5
REMARK    5  A    between atoms: C_5  and  C_6
REMARK    6  A    between atoms: C_7  and  C_8
REMARK    7  A    between atoms: C_8  and  C_10
REMARK    8  A    between atoms: C_10  and  C_11
REMARK    9  A    between atoms: C_11  and  C_12
REMARK   10  A    between atoms: C_12  and  C_13
REMARK   11  A    between atoms: C_13  and  C_14
REMARK   12  A    between atoms: C_14  and  C_15
REMARK   13  A    between atoms: C_15  and  C_16
REMARK   14  A    between atoms: C_16  and  C_17
REMARK   15  A    between atoms: C_17  and  O_19
REMARK                            x       y       z     vdW  Elec       q    Type
REMARK                         _______ _______ _______ _____ _____    ______ ____
ROOT
ATOM      1  C   UNL     1       7.281   4.807  17.171  0.00  0.00    +0.000 C 
ENDROOT
BRANCH   1   2
ATOM      2  C   UNL     1       7.345   5.502  18.515  0.00  0.00    +0.000 C 
ATOM      3  O   UNL     1       6.927   4.982  19.549  0.00  0.00    +0.000 OA
BRANCH   2   5
ATOM      4  C   UNL     1       7.584   7.794  17.672  0.00  0.00    +0.000 C 
ATOM      5  C   UNL     1       7.982   6.848  18.535  0.00  0.00    +0.000 C 
BRANCH   4   6
ATOM      6  C   UNL     1       8.169   9.172  17.622  0.00  0.00    +0.000 C 
BRANCH   6   7
ATOM      7  C   UNL     1       8.840   9.529  18.947  0.00  0.00    +0.000 C 
BRANCH   7   8
ATOM      8  C   UNL     1       9.719  10.769  18.792  0.00  0.00    +0.000 C 
BRANCH   8  10
ATOM      9  C   UNL     1       9.407  13.241  18.475  0.00  0.00    +0.000 C 
ATOM     10  C   UNL     1       9.009  11.857  17.991  0.00  0.00    +0.000 C 
ENDBRANCH   8  10
ENDBRANCH   7   8
ENDBRANCH   6   7
ENDBRANCH   4   6
ENDBRANCH   2   5
ENDBRANCH   1   2
BRANCH   1  11
ATOM     11  C   UNL     1       5.883   4.254  16.915  0.00  0.00    +0.000 C 
BRANCH  11  12
ATOM     12  C   UNL     1       4.828   5.355  16.944  0.00  0.00    +0.000 C 
BRANCH  12  13
ATOM     13  C   UNL     1       3.603   4.900  17.734  0.00  0.00    +0.000 C 
BRANCH  13  14
ATOM     14  C   UNL     1       3.412   5.727  19.005  0.00  0.00    +0.000 C 
BRANCH  14  15
ATOM     15  C   UNL     1       2.097   5.358  19.687  0.00  0.00    +0.000 C 
BRANCH  15  16
ATOM     16  C   UNL     1       2.320   4.685  21.038  0.00  0.00    +0.000 C 
BRANCH  16  17
ATOM     17  C   UNL     1       1.463   3.448  21.182  0.00  0.00    +0.000 C 
ATOM     18  O   UNL     1       1.640   2.556  21.996  0.00  0.00    +0.000 OA
BRANCH  17  19
ATOM     19  O   UNL     1       0.445   3.421  20.293  0.00  0.00    +0.000 OA
ATOM     20  H   UNL     1       0.407   4.206  19.716  0.00  0.00    +0.000 HD
ENDBRANCH  17  19
ENDBRANCH  16  17
ENDBRANCH  15  16
ENDBRANCH  14  15
ENDBRANCH  13  14
ENDBRANCH  12  13
ENDBRANCH  11  12
ENDBRANCH   1  11
TORSDOF 14
ENDMDL
MODEL 4
REMARK VINA RESULT:      -6.0      4.233      6.732
REMARK  Name = 
REMARK  15 active torsions:
REMARK  status: ('A' for Active; 'I' for Inactive)
REMARK    1  A    between atoms: C_1  and  C_2
REMARK    2  A    between atoms: C_2  and  C_3
REMARK    3  A    between atoms: C_3  and  C_4
REMARK    4  A    between atoms: C_4  and  C_5
REMARK    5  A    between atoms: C_5  and  C_6
REMARK    6  A    between atoms: C_7  and  C_8
REMARK    7  A    between atoms: C_8  and  C_10
REMARK    8  A    between atoms: C_10  and  C_11
REMARK    9  A    between atoms: C_11  and  C_12
REMARK   10  A    between atoms: C_12  and  C_13
REMARK   11  A    between atoms: C_13  and  C_14
REMARK   12  A    between atoms: C_14  and  C_15
REMARK   13  A    between atoms: C_15  and  C_16
REMARK   14  A    between atoms: C_16  and  C_17
REMARK   15  A    between atoms: C_17  and  O_19
REMARK                            x       y       z     vdW  Elec       q    Type
REMARK                         _______ _______ _______ _____ _____    ______ ____
ROOT
ATOM      1  C   UNL     1       5.784   5.854  17.514  0.00  0.00    +0.000 C 
ENDROOT
BRANCH   1   2
ATOM      2  C   UNL     1       7.118   6.407  17.056  0.00  0.00    +0.000 C 
ATOM      3  O   UNL     1       7.558   6.217  15.923  0.00  0.00    +0.000 OA
BRANCH   2   5
ATOM      4  C   UNL     1       8.087   8.537  17.798  0.00  0.00    +0.000 C 
ATOM      5  C   UNL     1       7.864   7.236  18.042  0.00  0.00    +0.000 C 
BRANCH   4   6
ATOM      6  C   UNL     1       8.828   9.442  18.733  0.00  0.00    +0.000 C 
BRANCH   6   7
ATOM      7  C   UNL     1       8.823  10.881  18.218  0.00  0.00    +0.000 C 
BRANCH   7   8
ATOM      8  C   UNL     1      10.247  11.365  17.955  0.00  0.00    +0.000 C 
BRANCH   8  10
ATOM      9  C   UNL     1      11.663  13.204  16.994  0.00  0.00    +0.000 C 
ATOM     10  C   UNL     1      10.256  12.779  17.378  0.00  0.00    +0.000 C 
ENDBRANCH   8  10
ENDBRANCH   7   8
ENDBRANCH   6   7
ENDBRANCH   4   6
ENDBRANCH   2   5
ENDBRANCH   1   2
BRANCH   1  11
ATOM     11  C   UNL     1       5.889   5.290  18.927  0.00  0.00    +0.000 C 
BRANCH  11  12
ATOM     12  C   UNL     1       4.858   4.193  19.174  0.00  0.00    +0.000 C 
BRANCH  12  13
ATOM     13  C   UNL     1       3.882   4.104  18.003  0.00  0.00    +0.000 C 
BRANCH  13  14
ATOM     14  C   UNL     1       2.460   4.471  18.425  0.00  0.00    +0.000 C 
BRANCH  14  15
ATOM     15  C   UNL     1       2.488   5.376  19.655  0.00  0.00    +0.000 C 
BRANCH  15  16
ATOM     16  C   UNL     1       1.377   5.034  20.645  0.00  0.00    +0.000 C 
BRANCH  16  17
ATOM     17  C   UNL     1       1.511   3.616  21.151  0.00  0.00    +0.000 C 
ATOM     18  O   UNL     1       2.336   3.230  21.964  0.00  0.00    +0.000 OA
BRANCH  17  19
ATOM     19  O   UNL     1       0.598   2.785  20.600  0.00  0.00    +0.000 OA
ATOM     20  H   UNL     1       0.253   3.094  19.742  0.00  0.00    +0.000 HD
ENDBRANCH  17  19
ENDBRANCH  16  17
ENDBRANCH  15  16
ENDBRANCH  14  15
ENDBRANCH  13  14
ENDBRANCH  12  13
ENDBRANCH  11  12
ENDBRANCH   1  11
TORSDOF 14
ENDMDL
MODEL 5
REMARK VINA RESULT:      -6.0      1.569      2.093
REMARK  Name = 
REMARK  15 active torsions:
REMARK  status: ('A' for Active; 'I' for Inactive)
REMARK    1  A    between atoms: C_1  and  C_2
REMARK    2  A    between atoms: C_2  and  C_3
REMARK    3  A    between atoms: C_3  and  C_4
REMARK    4  A    between atoms: C_4  and  C_5
REMARK    5  A    between atoms: C_5  and  C_6
REMARK    6  A    between atoms: C_7  and  C_8
REMARK    7  A    between atoms: C_8  and  C_10
REMARK    8  A    between atoms: C_10  and  C_11
REMARK    9  A    between atoms: C_11  and  C_12
REMARK   10  A    between atoms: C_12  and  C_13
REMARK   11  A    between atoms: C_13  and  C_14
REMARK   12  A    between atoms: C_14  and  C_15
REMARK   13  A    between atoms: C_15  and  C_16
REMARK   14  A    between atoms: C_16  and  C_17
REMARK   15  A    between atoms: C_17  and  O_19
REMARK                            x       y       z     vdW  Elec       q    Type
REMARK                         _______ _______ _______ _____ _____    ______ ____
ROOT
ATOM      1  C   UNL     1       5.550   6.546  17.528  0.00  0.00    +0.000 C 
ENDROOT
BRANCH   1   2
ATOM      2  C   UNL     1       6.211   5.987  16.286  0.00  0.00    +0.000 C 
ATOM      3  O   UNL     1       7.395   6.189  16.020  0.00  0.00    +0.000 OA
BRANCH   2   5
ATOM      4  C   UNL     1       5.901   4.495  14.362  0.00  0.00    +0.000 C 
ATOM      5  C   UNL     1       5.360   5.137  15.408  0.00  0.00    +0.000 C 
BRANCH   4   6
ATOM      6  C   UNL     1       5.120   3.622  13.429  0.00  0.00    +0.000 C 
BRANCH   6   7
ATOM      7  C   UNL     1       5.951   3.254  12.201  0.00  0.00    +0.000 C 
BRANCH   7   8
ATOM      8  C   UNL     1       5.059   2.703  11.090  0.00  0.00    +0.000 C 
BRANCH   8  10
ATOM      9  C   UNL     1       3.246   3.901   9.831  0.00  0.00    +0.000 C 
ATOM     10  C   UNL     1       3.653   3.291  11.161  0.00  0.00    +0.000 C 
ENDBRANCH   8  10
ENDBRANCH   7   8
ENDBRANCH   6   7
ENDBRANCH   4   6
ENDBRANCH   2   5
ENDBRANCH   1   2
BRANCH   1  11
ATOM     11  C   UNL     1       5.721   5.593  18.707  0.00  0.00    +0.000 C 
BRANCH  11  12
ATOM     12  C   UNL     1       4.405   5.367  19.445  0.00  0.00    +0.000 C 
BRANCH  12  13
ATOM     13  C   UNL     1       4.047   3.882  19.455  0.00  0.00    +0.000 C 
BRANCH  13  14
ATOM     14  C   UNL     1       4.039   3.295  18.044  0.00  0.00    +0.000 C 
BRANCH  14  15
ATOM     15  C   UNL     1       2.645   3.403  17.432  0.00  0.00    +0.000 C 
BRANCH  15  16
ATOM     16  C   UNL     1       1.640   4.027  18.397  0.00  0.00    +0.000 C 
BRANCH  16  17
ATOM     17  C   UNL     1       0.777   2.971  19.049  0.00  0.00    +0.000 C 
ATOM     18  O   UNL     1       0.244   2.038  18.471  0.00  0.00    +0.000 OA
BRANCH  17  19
ATOM     19  O   UNL     1       0.649   3.162  20.381  0.00  0.00    +0.000 OA
ATOM     20  H   UNL     1       0.060   3.903  20.617  0.00  0.00    +0.000 HD
ENDBRANCH  17  19
ENDBRANCH  16  17
ENDBRANCH  15  16
ENDBRANCH  14  15
ENDBRANCH  13  14
ENDBRANCH  12  13
ENDBRANCH  11  12
ENDBRANCH   1  11
TORSDOF 14
ENDMDL
MODEL 6
REMARK VINA RESULT:      -6.0      1.690      2.200
REMARK  Name = 
REMARK  15 active torsions:
REMARK  status: ('A' for Active; 'I' for Inactive)
REMARK    1  A    between atoms: C_1  and  C_2
REMARK    2  A    between atoms: C_2  and  C_3
REMARK    3  A    between atoms: C_3  and  C_4
REMARK    4  A    between atoms: C_4  and  C_5
REMARK    5  A    between atoms: C_5  and  C_6
REMARK    6  A    between atoms: C_7  and  C_8
REMARK    7  A    between atoms: C_8  and  C_10
REMARK    8  A    between atoms: C_10  and  C_11
REMARK    9  A    between atoms: C_11  and  C_12
REMARK   10  A    between atoms: C_12  and  C_13
REMARK   11  A    between atoms: C_13  and  C_14
REMARK   12  A    between atoms: C_14  and  C_15
REMARK   13  A    between atoms: C_15  and  C_16
REMARK   14  A    between atoms: C_16  and  C_17
REMARK   15  A    between atoms: C_17  and  O_19
REMARK                            x       y       z     vdW  Elec       q    Type
REMARK                         _______ _______ _______ _____ _____    ______ ____
ROOT
ATOM      1  C   UNL     1       5.372   5.621  17.361  0.00  0.00    +0.000 C 
ENDROOT
BRANCH   1   2
ATOM      2  C   UNL     1       6.396   5.793  16.259  0.00  0.00    +0.000 C 
ATOM      3  O   UNL     1       7.507   6.282  16.461  0.00  0.00    +0.000 OA
BRANCH   2   5
ATOM      4  C   UNL     1       6.774   4.407  14.270  0.00  0.00    +0.000 C 
ATOM      5  C   UNL     1       6.006   5.301  14.909  0.00  0.00    +0.000 C 
BRANCH   4   6
ATOM      6  C   UNL     1       6.458   3.860  12.912  0.00  0.00    +0.000 C 
BRANCH   6   7
ATOM      7  C   UNL     1       4.980   3.491  12.802  0.00  0.00    +0.000 C 
BRANCH   7   8
ATOM      8  C   UNL     1       4.656   2.963  11.406  0.00  0.00    +0.000 C 
BRANCH   8  10
ATOM      9  C   UNL     1       2.739   3.610   9.918  0.00  0.00    +0.000 C 
ATOM     10  C   UNL     1       4.060   4.055  10.522  0.00  0.00    +0.000 C 
ENDBRANCH   8  10
ENDBRANCH   7   8
ENDBRANCH   6   7
ENDBRANCH   4   6
ENDBRANCH   2   5
ENDBRANCH   1   2
BRANCH   1  11
ATOM     11  C   UNL     1       4.214   4.746  16.892  0.00  0.00    +0.000 C 
BRANCH  11  12
ATOM     12  C   UNL     1       4.143   3.438  17.673  0.00  0.00    +0.000 C 
BRANCH  12  13
ATOM     13  C   UNL     1       2.738   2.845  17.594  0.00  0.00    +0.000 C 
BRANCH  13  14
ATOM     14  C   UNL     1       1.664   3.930  17.652  0.00  0.00    +0.000 C 
BRANCH  14  15
ATOM     15  C   UNL     1       1.366   4.305  19.102  0.00  0.00    +0.000 C 
BRANCH  15  16
ATOM     16  C   UNL     1       1.171   3.075  19.985  0.00  0.00    +0.000 C 
BRANCH  16  17
ATOM     17  C   UNL     1       1.722   3.305  21.374  0.00  0.00    +0.000 C 
ATOM     18  O   UNL     1       2.412   4.252  21.714  0.00  0.00    +0.000 OA
BRANCH  17  19
ATOM     19  O   UNL     1       1.364   2.328  22.237  0.00  0.00    +0.000 OA
ATOM     20  H   UNL     1       1.083   2.658  23.111  0.00  0.00    +0.000 HD
ENDBRANCH  17  19
ENDBRANCH  16  17
ENDBRANCH  15  16
ENDBRANCH  14  15
ENDBRANCH  13  14
ENDBRANCH  12  13
ENDBRANCH  11  12
ENDBRANCH   1  11
TORSDOF 14
ENDMDL
MODEL 7
REMARK VINA RESULT:      -5.9      5.101      8.745
REMARK  Name = 
REMARK  15 active torsions:
REMARK  status: ('A' for Active; 'I' for Inactive)
REMARK    1  A    between atoms: C_1  and  C_2
REMARK    2  A    between atoms: C_2  and  C_3
REMARK    3  A    between atoms: C_3  and  C_4
REMARK    4  A    between atoms: C_4  and  C_5
REMARK    5  A    between atoms: C_5  and  C_6
REMARK    6  A    between atoms: C_7  and  C_8
REMARK    7  A    between atoms: C_8  and  C_10
REMARK    8  A    between atoms: C_10  and  C_11
REMARK    9  A    between atoms: C_11  and  C_12
REMARK   10  A    between atoms: C_12  and  C_13
REMARK   11  A    between atoms: C_13  and  C_14
REMARK   12  A    between atoms: C_14  and  C_15
REMARK   13  A    between atoms: C_15  and  C_16
REMARK   14  A    between atoms: C_16  and  C_17
REMARK   15  A    between atoms: C_17  and  O_19
REMARK                            x       y       z     vdW  Elec       q    Type
REMARK                         _______ _______ _______ _____ _____    ______ ____
ROOT
ATOM      1  C   UNL     1       8.102   6.787  18.532  0.00  0.00    +0.000 C 
ENDROOT
BRANCH   1   2
ATOM      2  C   UNL     1       7.030   5.800  18.949  0.00  0.00    +0.000 C 
ATOM      3  O   UNL     1       7.119   5.122  19.971  0.00  0.00    +0.000 OA
BRANCH   2   5
ATOM      4  C   UNL     1       4.600   5.765  18.606  0.00  0.00    +0.000 C 
ATOM      5  C   UNL     1       5.830   5.717  18.072  0.00  0.00    +0.000 C 
BRANCH   4   6
ATOM      6  C   UNL     1       3.340   5.687  17.801  0.00  0.00    +0.000 C 
BRANCH   6   7
ATOM      7  C   UNL     1       2.941   4.234  17.549  0.00  0.00    +0.000 C 
BRANCH   7   8
ATOM      8  C   UNL     1       1.794   3.822  18.470  0.00  0.00    +0.000 C 
BRANCH   8  10
ATOM      9  C   UNL     1       1.179   3.120  20.802  0.00  0.00    +0.000 C 
ATOM     10  C   UNL     1       2.314   3.305  19.809  0.00  0.00    +0.000 C 
ENDBRANCH   8  10
ENDBRANCH   7   8
ENDBRANCH   6   7
ENDBRANCH   4   6
ENDBRANCH   2   5
ENDBRANCH   1   2
BRANCH   1  11
ATOM     11  C   UNL     1       7.586   7.714  17.437  0.00  0.00    +0.000 C 
BRANCH  11  12
ATOM     12  C   UNL     1       7.912   9.175  17.736  0.00  0.00    +0.000 C 
BRANCH  12  13
ATOM     13  C   UNL     1       8.924   9.274  18.874  0.00  0.00    +0.000 C 
BRANCH  13  14
ATOM     14  C   UNL     1       9.310  10.725  19.160  0.00  0.00    +0.000 C 
BRANCH  14  15
ATOM     15  C   UNL     1      10.347  11.209  18.149  0.00  0.00    +0.000 C 
BRANCH  15  16
ATOM     16  C   UNL     1      10.031  12.608  17.628  0.00  0.00    +0.000 C 
BRANCH  16  17
ATOM     17  C   UNL     1      11.263  13.269  17.052  0.00  0.00    +0.000 C 
ATOM     18  O   UNL     1      11.345  14.438  16.712  0.00  0.00    +0.000 OA
BRANCH  17  19
ATOM     19  O   UNL     1      12.304  12.413  16.947  0.00  0.00    +0.000 OA
ATOM     20  H   UNL     1      12.085  11.582  16.486  0.00  0.00    +0.000 HD
ENDBRANCH  17  19
ENDBRANCH  16  17
ENDBRANCH  15  16
ENDBRANCH  14  15
ENDBRANCH  13  14
ENDBRANCH  12  13
ENDBRANCH  11  12
ENDBRANCH   1  11
TORSDOF 14
ENDMDL
MODEL 8
REMARK VINA RESULT:      -5.9      1.457      1.816
REMARK  Name = 
REMARK  15 active torsions:
REMARK  status: ('A' for Active; 'I' for Inactive)
REMARK    1  A    between atoms: C_1  and  C_2
REMARK    2  A    between atoms: C_2  and  C_3
REMARK    3  A    between atoms: C_3  and  C_4
REMARK    4  A    between atoms: C_4  and  C_5
REMARK    5  A    between atoms: C_5  and  C_6
REMARK    6  A    between atoms: C_7  and  C_8
REMARK    7  A    between atoms: C_8  and  C_10
REMARK    8  A    between atoms: C_10  and  C_11
REMARK    9  A    between atoms: C_11  and  C_12
REMARK   10  A    between atoms: C_12  and  C_13
REMARK   11  A    between atoms: C_13  and  C_14
REMARK   12  A    between atoms: C_14  and  C_15
REMARK   13  A    between atoms: C_15  and  C_16
REMARK   14  A    between atoms: C_16  and  C_17
REMARK   15  A    between atoms: C_17  and  O_19
REMARK                            x       y       z     vdW  Elec       q    Type
REMARK                         _______ _______ _______ _____ _____    ______ ____
ROOT
ATOM      1  C   UNL     1       5.019   5.546  16.026  0.00  0.00    +0.000 C 
ENDROOT
BRANCH   1   2
ATOM      2  C   UNL     1       6.383   5.146  15.501  0.00  0.00    +0.000 C 
ATOM      3  O   UNL     1       7.414   5.733  15.826  0.00  0.00    +0.000 OA
BRANCH   2   5
ATOM      4  C   UNL     1       6.453   4.143  13.263  0.00  0.00    +0.000 C 
ATOM      5  C   UNL     1       6.423   3.967  14.592  0.00  0.00    +0.000 C 
BRANCH   4   6
ATOM      6  C   UNL     1       6.493   3.016  12.277  0.00  0.00    +0.000 C 
BRANCH   6   7
ATOM      7  C   UNL     1       5.518   3.261  11.127  0.00  0.00    +0.000 C 
BRANCH   7   8
ATOM      8  C   UNL     1       4.081   3.325  11.641  0.00  0.00    +0.000 C 
BRANCH   8  10
ATOM      9  C   UNL     1       2.978   4.313   9.612  0.00  0.00    +0.000 C 
ATOM     10  C   UNL     1       3.076   3.095  10.515  0.00  0.00    +0.000 C 
ENDBRANCH   8  10
ENDBRANCH   7   8
ENDBRANCH   6   7
ENDBRANCH   4   6
ENDBRANCH   2   5
ENDBRANCH   1   2
BRANCH   1  11
ATOM     11  C   UNL     1       4.977   5.453  17.547  0.00  0.00    +0.000 C 
BRANCH  11  12
ATOM     12  C   UNL     1       5.131   4.014  18.030  0.00  0.00    +0.000 C 
BRANCH  12  13
ATOM     13  C   UNL     1       4.636   3.877  19.468  0.00  0.00    +0.000 C 
BRANCH  13  14
ATOM     14  C   UNL     1       3.400   4.738  19.723  0.00  0.00    +0.000 C 
BRANCH  14  15
ATOM     15  C   UNL     1       2.369   3.961  20.538  0.00  0.00    +0.000 C 
BRANCH  15  16
ATOM     16  C   UNL     1       1.058   3.777  19.779  0.00  0.00    +0.000 C 
BRANCH  16  17
ATOM     17  C   UNL     1       1.291   3.145  18.426  0.00  0.00    +0.000 C 
ATOM     18  O   UNL     1       1.288   3.736  17.359  0.00  0.00    +0.000 OA
BRANCH  17  19
ATOM     19  O   UNL     1       1.514   1.813  18.512  0.00  0.00    +0.000 OA
ATOM     20  H   UNL     1       2.451   1.579  18.645  0.00  0.00    +0.000 HD
ENDBRANCH  17  19
ENDBRANCH  16  17
ENDBRANCH  15  16
ENDBRANCH  14  15
ENDBRANCH  13  14
ENDBRANCH  12  13
ENDBRANCH  11  12
ENDBRANCH   1  11
TORSDOF 14
ENDMDL
MODEL 9
REMARK VINA RESULT:      -5.9      1.395      1.974
REMARK  Name = 
REMARK  15 active torsions:
REMARK  status: ('A' for Active; 'I' for Inactive)
REMARK    1  A    between atoms: C_1  and  C_2
REMARK    2  A    between atoms: C_2  and  C_3
REMARK    3  A    between atoms: C_3  and  C_4
REMARK    4  A    between atoms: C_4  and  C_5
REMARK    5  A    between atoms: C_5  and  C_6
REMARK    6  A    between atoms: C_7  and  C_8
REMARK    7  A    between atoms: C_8  and  C_10
REMARK    8  A    between atoms: C_10  and  C_11
REMARK    9  A    between atoms: C_11  and  C_12
REMARK   10  A    between atoms: C_12  and  C_13
REMARK   11  A    between atoms: C_13  and  C_14
REMARK   12  A    between atoms: C_14  and  C_15
REMARK   13  A    between atoms: C_15  and  C_16
REMARK   14  A    between atoms: C_16  and  C_17
REMARK   15  A    between atoms: C_17  and  O_19
REMARK                            x       y       z     vdW  Elec       q    Type
REMARK                         _______ _______ _______ _____ _____    ______ ____
ROOT
ATOM      1  C   UNL     1       6.080   5.778  17.970  0.00  0.00    +0.000 C 
ENDROOT
BRANCH   1   2
ATOM      2  C   UNL     1       7.036   6.062  16.831  0.00  0.00    +0.000 C 
ATOM      3  O   UNL     1       7.689   7.102  16.760  0.00  0.00    +0.000 OA
BRANCH   2   5
ATOM      4  C   UNL     1       6.235   4.816  14.874  0.00  0.00    +0.000 C 
ATOM      5  C   UNL     1       7.183   4.991  15.807  0.00  0.00    +0.000 C 
BRANCH   4   6
ATOM      6  C   UNL     1       6.301   3.765  13.809  0.00  0.00    +0.000 C 
BRANCH   6   7
ATOM      7  C   UNL     1       4.990   3.697  13.028  0.00  0.00    +0.000 C 
BRANCH   7   8
ATOM      8  C   UNL     1       5.221   3.114  11.635  0.00  0.00    +0.000 C 
BRANCH   8  10
ATOM      9  C   UNL     1       6.400   0.967  11.077  0.00  0.00    +0.000 C 
ATOM     10  C   UNL     1       6.569   2.402  11.546  0.00  0.00    +0.000 C 
ENDBRANCH   8  10
ENDBRANCH   7   8
ENDBRANCH   6   7
ENDBRANCH   4   6
ENDBRANCH   2   5
ENDBRANCH   1   2
BRANCH   1  11
ATOM     11  C   UNL     1       4.732   6.449  17.724  0.00  0.00    +0.000 C 
BRANCH  11  12
ATOM     12  C   UNL     1       3.676   5.444  17.276  0.00  0.00    +0.000 C 
BRANCH  12  13
ATOM     13  C   UNL     1       2.440   5.533  18.169  0.00  0.00    +0.000 C 
BRANCH  13  14
ATOM     14  C   UNL     1       2.008   4.156  18.672  0.00  0.00    +0.000 C 
BRANCH  14  15
ATOM     15  C   UNL     1       2.736   3.056  17.904  0.00  0.00    +0.000 C 
BRANCH  15  16
ATOM     16  C   UNL     1       3.143   1.896  18.808  0.00  0.00    +0.000 C 
BRANCH  16  17
ATOM     17  C   UNL     1       4.101   2.351  19.886  0.00  0.00    +0.000 C 
ATOM     18  O   UNL     1       3.891   2.299  21.087  0.00  0.00    +0.000 OA
BRANCH  17  19
ATOM     19  O   UNL     1       5.255   2.839  19.376  0.00  0.00    +0.000 OA
ATOM     20  H   UNL     1       5.217   3.788  19.156  0.00  0.00    +0.000 HD
ENDBRANCH  17  19
ENDBRANCH  16  17
ENDBRANCH  15  16
ENDBRANCH  14  15
ENDBRANCH  13  14
ENDBRANCH  12  13
ENDBRANCH  11  12
ENDBRANCH   1  11
TORSDOF 14
ENDMDL
